ver_1.2
     RDKit          3D

 14 15  0  0  0  0  0  0  0  0999 V2000
    3.0286    1.5015   -0.1127 C   0  0  0  0  0  0  0  0  0  0  0  0
    2.2018    0.3256   -0.0699 N   0  0  0  0  0  0  0  0  0  0  0  0
    2.6332   -0.9379   -0.0628 C   0  0  0  0  0  0  0  0  0  0  0  0
    1.5895   -1.7853   -0.0188 N   0  0  0  0  0  0  0  0  0  0  0  0
    0.4586   -1.0283    0.0026 C   0  0  0  0  0  0  0  0  0  0  0  0
    0.8619    0.3129   -0.0303 C   0  0  0  0  0  0  0  0  0  0  0  0
   -0.1366    1.2477   -0.0155 C   0  0  0  0  0  0  0  0  0  0  0  0
    0.2041    2.4631   -0.0446 O   0  0  0  0  0  0  0  0  0  0  0  0
   -1.4590    0.9489    0.0281 N   0  0  0  0  0  0  0  0  0  0  0  0
   -1.8029   -0.3496    0.0585 C   0  0  0  0  0  0  0  0  0  0  0  0
   -3.0094   -0.6985    0.0995 O   0  0  0  0  0  0  0  0  0  0  0  0
   -0.8645   -1.3053    0.0459 N   0  0  0  0  0  0  0  0  0  0  0  0
   -1.2562   -2.7029    0.0793 C   0  0  0  0  0  0  0  0  0  0  0  0
   -2.4490    2.0080    0.0406 C   0  0  0  0  0  0  0  0  0  0  0  0
  1  2  1  0
  2  3  1  0
  3  4  2  0
  4  5  1  0
  5  6  2  0
  6  7  1  0
  7  8  2  0
  7  9  1  0
  9 10  1  0
 10 11  2  0
 10 12  1  0
 12 13  1  0
  9 14  1  0
  6  2  1  0
 12  5  1  0
M  END
>  <ref_url>  (1) 
https://github.com/matteoferla/Fragment-hit-follow-up-chemistry

>  <submitter_name>  (1) 
Matteo Ferla

>  <submitter_email>  (1) 
matteo.ferla@stats.ox.ac.uk

>  <submitter_institution>  (1) 
Nowehere

>  <generation_date>  (1) 
2023-08-20

>  <method>  (1) 
Fragmenstein-pairs-no_curation

>  <index>  (1) 
index

>  <∆∆G>  (1) 
∆∆G

>  <∆G_bound>  (1) 
∆G_bound

>  <∆G_unbound>  (1) 
∆G_unbound

>  <comRMSD>  (1) 
comRMSD

>  <N_constrained_atoms>  (1) 
N_constrained_atoms

>  <N_unconstrained_atoms>  (1) 
N_unconstrained_atoms

>  <runtime>  (1) 
runtime

>  <LE>  (1) 
LE

>  <percent_hybrid>  (1) 
percent_hybrid

>  <dist>  (1) 
dist

>  <ecfp4>  (1) 
ecfp4

>  <daylight>  (1) 
daylight

>  <topodist>  (1) 
topodist

>  <mces>  (1) 
mces

>  <tdn>  (1) 
tdn

>  <tup>  (1) 
tup

>  <rdn>  (1) 
rdn

>  <rup>  (1) 
rup

>  <ldn>  (1) 
ldn

>  <lup>  (1) 
lup

>  <mut>  (1) 
mut

>  <maj>  (1) 
maj

>  <min>  (1) 
min

>  <hyb>  (1) 
hyb

>  <sub>  (1) 
sub

>  <query_index>  (1) 
query_index

>  <max_hit_Tanimoto>  (1) 
max_hit_Tanimoto

>  <largest_ring>  (1) 
largest_ring

>  <N_interactions_kept>  (1) 
N_interactions_kept

>  <N_interactions_lost>  (1) 
N_interactions_lost

>  <interaction_uniqueness_metric>  (1) 
interaction_uniqueness_metric

>  <ad_hoc_penalty>  (1) 
ad_hoc_penalty

>  <N_rotatable_bonds>  (1) 
N_rotatable_bonds

>  <N_HA>  (1) 
N_HA

>  <cluster>  (1) 
cluster

>  <N_interactions>  (1) 
N_interactions

>  <Enamine>  (1) 
Enamine

>  <Mcule>  (1) 
Mcule

>  <N_PAINS>  (1) 
N_PAINS

>  <UFF_Gibbs>  (1) 
UFF_Gibbs

>  <strain_per_HA>  (1) 
strain_per_HA

>  <saltbridge:HIS:51>  (1) 
saltbridge:HIS:51

>  <pistack:HIS:51>  (1) 
pistack:HIS:51

>  <hydroph_interaction:HIS:51>  (1) 
hydroph_interaction:HIS:51

>  <hbond:ALA:132>  (1) 
hbond:ALA:132

>  <hbond:SER:135>  (1) 
hbond:SER:135

>  <hydroph_interaction:TYR:150>  (1) 
hydroph_interaction:TYR:150

>  <pistack:TYR:161>  (1) 
pistack:TYR:161

>  <hydroph_interaction:TYR:161>  (1) 
hydroph_interaction:TYR:161

>  <hydroph_interaction:ASP:83>  (1) 
hydroph_interaction:ASP:83

>  <hbond:TYR:130>  (1) 
hbond:TYR:130

>  <hydroph_interaction:ALA:132>  (1) 
hydroph_interaction:ALA:132

>  <hbond:HIS:51>  (1) 
hbond:HIS:51

>  <hbond:ASP:129>  (1) 
hbond:ASP:129

>  <hbond:TYR:150>  (1) 
hbond:TYR:150

>  <hbond:GLY:151>  (1) 
hbond:GLY:151

>  <hbond:TYR:161>  (1) 
hbond:TYR:161

>  <hydroph_interaction:TYR:130>  (1) 
hydroph_interaction:TYR:130

>  <hydroph_interaction:PRO:131>  (1) 
hydroph_interaction:PRO:131

>  <hydroph_interaction:ASP:129>  (1) 
hydroph_interaction:ASP:129

>  <saltbridge:ASP:75>  (1) 
saltbridge:ASP:75

>  <saltbridge:ASP:83>  (1) 
saltbridge:ASP:83

>  <hydroph_interaction:ASN:152>  (1) 
hydroph_interaction:ASN:152

>  <halogenbond:TYR:150>  (1) 
halogenbond:TYR:150

>  <hbond:ASP:83>  (1) 
hbond:ASP:83

>  <hydroph_interaction:VAL:155>  (1) 
hydroph_interaction:VAL:155

>  <pication:TYR:161>  (1) 
pication:TYR:161

>  <hbond:PRO:131>  (1) 
hbond:PRO:131

>  <hbond:LEU:128>  (1) 
hbond:LEU:128

>  <saltbridge:ASP:129>  (1) 
saltbridge:ASP:129

>  <hbond:THR:134>  (1) 
hbond:THR:134

>  <pication:HIS:51>  (1) 
pication:HIS:51

>  <hbond:SER:81>  (1) 
hbond:SER:81

>  <hbond:GLY:159>  (1) 
hbond:GLY:159

>  <hydroph_interaction:PRO:101>  (1) 
hydroph_interaction:PRO:101

>  <hydroph_interaction:THR:134>  (1) 
hydroph_interaction:THR:134

>  <hbond:GLY:82>  (1) 
hbond:GLY:82

>  <hydroph_interaction:GLU:104>  (1) 
hydroph_interaction:GLU:104

>  <hydroph_interaction:VAL:36>  (1) 
hydroph_interaction:VAL:36

>  <hydroph_interaction:MET:49>  (1) 
hydroph_interaction:MET:49

>  <halogenbond:GLU:104>  (1) 
halogenbond:GLU:104

>  <hydroph_interaction:LYS:107>  (1) 
hydroph_interaction:LYS:107

$$$$
MCULE-9781946122
     RDKit          3D

 47 49  0  0  0  0  0  0  0  0999 V2000
   -6.9941   10.4761  -26.2957 C   0  0  0  0  0  0  0  0  0  0  0  0
   -6.1733   11.1636  -25.3337 N   0  0  0  0  0  0  0  0  0  0  0  0
   -6.5761   11.3965  -23.9454 C   0  0  0  0  0  0  0  0  0  0  0  0
   -6.7300   10.0859  -23.2203 C   0  0  0  0  0  0  0  0  0  0  0  0
   -8.0045    9.5658  -22.9383 C   0  0  0  0  0  0  0  0  0  0  0  0
   -8.1372    8.3247  -22.3046 C   0  0  0  0  0  0  0  0  0  0  0  0
   -6.9955    7.5937  -21.9297 C   0  0  0  0  0  0  0  0  0  0  0  0
   -7.0731    6.3506  -21.2839 O   0  0  0  0  0  0  0  0  0  0  0  0
   -8.2827    5.6279  -21.0677 C   0  0  0  0  0  0  0  0  0  0  0  0
   -5.7297    8.1174  -22.2095 C   0  0  0  0  0  0  0  0  0  0  0  0
   -5.5962    9.3495  -22.8575 C   0  0  0  0  0  0  0  0  0  0  0  0
   -6.3830    9.7749  -27.3456 C   0  0  0  0  0  0  0  0  0  0  0  0
   -7.1560    9.0771  -28.2788 C   0  0  0  0  0  0  0  0  0  0  0  0
   -8.5552    9.0684  -28.1784 C   0  0  0  0  0  0  0  0  0  0  0  0
   -9.3268    8.3526  -29.1588 N   0  0  0  0  0  0  0  0  0  0  0  0
  -10.5715    7.6885  -28.8783 C   0  0  0  0  0  0  0  0  0  0  0  0
  -10.9594    7.5442  -27.6883 O   0  0  0  0  0  0  0  0  0  0  0  0
  -11.3635    7.1841  -29.9656 N   0  0  0  0  0  0  0  0  0  0  0  0
  -12.5503    6.3889  -29.7999 C   0  0  0  0  0  0  0  0  0  0  0  0
  -13.6158    6.5542  -30.6977 C   0  0  0  0  0  0  0  0  0  0  0  0
  -14.7772    5.7876  -30.5639 C   0  0  0  0  0  0  0  0  0  0  0  0
  -14.8785    4.8393  -29.5406 C   0  0  0  0  0  0  0  0  0  0  0  0
  -13.8136    4.6471  -28.6580 C   0  0  0  0  0  0  0  0  0  0  0  0
  -12.6493    5.4109  -28.7897 C   0  0  0  0  0  0  0  0  0  0  0  0
   -9.1708    9.8094  -27.1554 C   0  0  0  0  0  0  0  0  0  0  0  0
   -8.3973   10.5049  -26.2214 C   0  0  0  0  0  0  0  0  0  0  0  0
   -5.1800   11.3654  -25.5820 H   0  0  0  0  0  0  0  0  0  0  0  0
   -7.5050   12.0035  -23.9093 H   0  0  0  0  0  0  0  0  0  0  0  0
   -5.7907   11.9937  -23.4321 H   0  0  0  0  0  0  0  0  0  0  0  0
   -8.8972   10.1188  -23.2089 H   0  0  0  0  0  0  0  0  0  0  0  0
   -9.1290    7.9515  -22.0987 H   0  0  0  0  0  0  0  0  0  0  0  0
   -8.0453    4.6636  -20.5719 H   0  0  0  0  0  0  0  0  0  0  0  0
   -8.7781    5.4144  -22.0394 H   0  0  0  0  0  0  0  0  0  0  0  0
   -8.9650    6.2083  -20.4097 H   0  0  0  0  0  0  0  0  0  0  0  0
   -4.8421    7.5641  -21.9255 H   0  0  0  0  0  0  0  0  0  0  0  0
   -4.6073    9.7316  -23.0756 H   0  0  0  0  0  0  0  0  0  0  0  0
   -5.3019    9.7588  -27.4340 H   0  0  0  0  0  0  0  0  0  0  0  0
   -6.6633    8.5345  -29.0761 H   0  0  0  0  0  0  0  0  0  0  0  0
   -8.9201    8.2346  -30.1136 H   0  0  0  0  0  0  0  0  0  0  0  0
  -11.1299    7.5237  -30.9277 H   0  0  0  0  0  0  0  0  0  0  0  0
  -13.5498    7.2889  -31.4931 H   0  0  0  0  0  0  0  0  0  0  0  0
  -15.5983    5.9297  -31.2537 H   0  0  0  0  0  0  0  0  0  0  0  0
  -15.7782    4.2467  -29.4384 H   0  0  0  0  0  0  0  0  0  0  0  0
  -13.8854    3.9005  -27.8763 H   0  0  0  0  0  0  0  0  0  0  0  0
  -11.8226    5.2187  -28.1199 H   0  0  0  0  0  0  0  0  0  0  0  0
  -10.2477    9.8739  -27.0902 H   0  0  0  0  0  0  0  0  0  0  0  0
   -8.9014   11.0755  -25.4583 H   0  0  0  0  0  0  0  0  0  0  0  0
  1  2  1  0
  2  3  1  0
  3  4  1  0
  4  5  2  0
  5  6  1  0
  6  7  2  0
  7  8  1  0
  8  9  1  0
  7 10  1  0
 10 11  2  0
  1 12  2  0
 12 13  1  0
 13 14  2  0
 14 15  1  0
 15 16  1  0
 16 17  2  0
 16 18  1  0
 18 19  1  0
 19 20  2  0
 20 21  1  0
 21 22  2  0
 22 23  1  0
 23 24  2  0
 14 25  1  0
 25 26  2  0
  1 26  1  0
 11  4  1  0
 19 24  1  0
  2 27  1  0
  3 28  1  0
  3 29  1  0
  5 30  1  0
  6 31  1  0
  9 32  1  0
  9 33  1  0
  9 34  1  0
 10 35  1  0
 11 36  1  0
 12 37  1  0
 13 38  1  0
 15 39  1  0
 18 40  1  0
 20 41  1  0
 21 42  1  0
 22 43  1  0
 23 44  1  0
 24 45  1  0
 25 46  1  0
 26 47  1  0
A    1
 C1 
A    2
 N1 
A    3
 C2 
A    4
 C3 
A    5
 C4 
A    6
 C5 
A    7
 C6 
A    8
 O1 
A    9
 C7 
A   10
 C8 
A   11
 C9 
A   12
 C10
A   13
 C11
A   14
 C12
A   15
 N2 
A   16
 C13
A   17
 O2 
A   18
 N3 
A   19
 C14
A   20
 C15
A   21
 C16
A   22
 C17
A   23
 C18
A   24
 C19
A   25
 C20
A   26
 C21
A   27
 H1 
A   28
 H2 
A   29
 H3 
A   30
 H4 
A   31
 H5 
A   32
 H6 
A   33
 H7 
A   34
 H8 
A   35
 H9 
A   36
 H10
A   37
 H11
A   38
 H12
A   39
 H13
A   40
 H14
A   41
 H15
A   42
 H16
A   43
 H17
A   44
 H18
A   45
 H19
A   46
 H20
A   47
 H21
M  END
>  <ref_pdb>  (1) 
x0051_0B

>  <ref_mols>  (1) 
x0846_1B,x0559_0B

>  <original SMILES>  (1) 
[H]c1c([H])c([H])c(N([H])C(=O)N([H])c2c([H])c([H])c(N([H])C([H])([H])c3c([H])c([H])c(OC([H])([H])[H])c([H])c3[H])c([H])c2[H])c([H])c1[H]

>  <index>  (1) 
6

>  <∆∆G>  (1) 
-8.934376

>  <∆G_bound>  (1) 
-8.639333

>  <∆G_unbound>  (1) 
0.295043

>  <comRMSD>  (1) 
0.728285

>  <N_constrained_atoms>  (1) 
19.0

>  <N_unconstrained_atoms>  (1) 
9.0

>  <runtime>  (1) 
87.284451

>  <LE>  (1) 
0.319085

>  <percent_hybrid>  (1) 
6.0

>  <dist>  (1) 
10.0

>  <ecfp4>  (1) 
0.156627

>  <daylight>  (1) 
0.236181

>  <topodist>  (1) 
4.0

>  <mces>  (1) 
27.0

>  <tdn>  (1) 
1.0

>  <tup>  (1) 
0.0

>  <rdn>  (1) 
1.0

>  <rup>  (1) 
0.0

>  <ldn>  (1) 
1.0

>  <lup>  (1) 
1.0

>  <mut>  (1) 
5.0

>  <maj>  (1) 
5.0

>  <min>  (1) 
0.0

>  <hyb>  (1) 
1.0

>  <sub>  (1) 
2.0

>  <query_index>  (1) 
233.0

>  <max_hit_Tanimoto>  (1) 
0.253448

>  <largest_ring>  (1) 
6

>  <N_interactions_kept>  (1) 
2.5

>  <N_interactions_lost>  (1) 
1.0

>  <interaction_uniqueness_metric>  (1) 
2.43847

>  <ad_hoc_penalty>  (1) 
-70.544848

>  <N_rotatable_bonds>  (1) 
7

>  <N_HA>  (1) 
26

>  <cluster>  (1) 
6210

>  <N_interactions>  (1) 
6

>  <Enamine>  (1) 
0

>  <Mcule>  (1) 
1

>  <N_PAINS>  (1) 
0

>  <UFF_Gibbs>  (1) 
100.271818

>  <strain_per_HA>  (1) 
3.581136

>  <saltbridge:HIS:51>  (1) 
0

>  <pistack:HIS:51>  (1) 
0

>  <hydroph_interaction:HIS:51>  (1) 
0

>  <hbond:ALA:132>  (1) 
0

>  <hbond:SER:135>  (1) 
0

>  <hydroph_interaction:TYR:150>  (1) 
0

>  <pistack:TYR:161>  (1) 
0

>  <hydroph_interaction:TYR:161>  (1) 
0

>  <hydroph_interaction:ASP:83>  (1) 
0

>  <hbond:TYR:130>  (1) 
0

>  <hydroph_interaction:ALA:132>  (1) 
0

>  <hbond:HIS:51>  (1) 
0

>  <hbond:ASP:129>  (1) 
0

>  <hbond:TYR:150>  (1) 
0

>  <hbond:GLY:151>  (1) 
0

>  <hbond:TYR:161>  (1) 
0

>  <hydroph_interaction:TYR:130>  (1) 
1

>  <hydroph_interaction:PRO:131>  (1) 
1

>  <hydroph_interaction:ASP:129>  (1) 
0

>  <saltbridge:ASP:75>  (1) 
0

>  <saltbridge:ASP:83>  (1) 
0

>  <hydroph_interaction:ASN:152>  (1) 
0

>  <halogenbond:TYR:150>  (1) 
0

>  <hbond:ASP:83>  (1) 
0

>  <hydroph_interaction:VAL:155>  (1) 
0

>  <pication:TYR:161>  (1) 
0

>  <hbond:PRO:131>  (1) 
0

>  <hbond:LEU:128>  (1) 
0

>  <saltbridge:ASP:129>  (1) 
0

>  <hbond:THR:134>  (1) 
0

>  <pication:HIS:51>  (1) 
0

>  <hbond:SER:81>  (1) 
0

>  <hbond:GLY:159>  (1) 
0

>  <hydroph_interaction:PRO:101>  (1) 
1

>  <hydroph_interaction:THR:134>  (1) 
0

>  <hbond:GLY:82>  (1) 
0

>  <hydroph_interaction:GLU:104>  (1) 
2

>  <hydroph_interaction:VAL:36>  (1) 
0

>  <hydroph_interaction:MET:49>  (1) 
0

>  <halogenbond:GLU:104>  (1) 
0

>  <hydroph_interaction:LYS:107>  (1) 
1

$$$$
PV-004130533012
     RDKit          3D

 49 52  0  0  0  0  0  0  0  0999 V2000
   -6.2046    2.1194  -15.1700 C   0  0  0  0  0  0  0  0  0  0  0  0
   -5.0836    3.1499  -15.0964 C   0  0  0  0  0  0  0  0  0  0  0  0
   -4.9517    3.8753  -16.4086 C   0  0  0  0  0  0  0  0  0  0  0  0
   -4.2031    3.3906  -17.3008 O   0  0  0  0  0  0  0  0  0  0  0  0
   -5.7567    5.0306  -16.7075 N   0  0  0  0  0  0  0  0  0  0  0  0
   -6.3584    5.1622  -18.0389 C   0  0  0  0  0  0  0  0  0  0  0  0
   -7.5784    6.0553  -18.0233 C   0  0  0  0  0  0  0  0  0  0  0  0
   -8.3295    6.1942  -19.2021 C   0  0  0  0  0  0  0  0  0  0  0  0
   -9.4618    7.0132  -19.2286 C   0  0  0  0  0  0  0  0  0  0  0  0
   -9.8592    7.6978  -18.0778 C   0  0  0  0  0  0  0  0  0  0  0  0
   -9.1134    7.5800  -16.9009 C   0  0  0  0  0  0  0  0  0  0  0  0
   -7.9622    6.7754  -16.8642 C   0  0  0  0  0  0  0  0  0  0  0  0
   -7.2198    6.6086  -15.5569 C   0  0  0  0  0  0  0  0  0  0  0  0
   -7.8940    5.6001  -14.7328 N   0  0  0  0  0  0  0  0  0  0  0  0
   -7.6379    5.4509  -13.3303 C   0  0  0  0  0  0  0  0  0  0  0  0
   -6.8152    6.2138  -12.7500 O   0  0  0  0  0  0  0  0  0  0  0  0
   -8.2906    4.3305  -12.5715 C   0  0  0  0  0  0  0  0  0  0  0  0
   -8.5217    4.6949  -11.1334 C   0  0  0  0  0  0  0  0  0  0  0  0
   -7.7791    4.3339  -10.0259 C   0  0  0  0  0  0  0  0  0  0  0  0
   -6.6501    3.5149   -9.9185 C   0  0  0  0  0  0  0  0  0  0  0  0
   -6.1004    3.3317   -8.6392 C   0  0  0  0  0  0  0  0  0  0  0  0
   -6.6758    3.9680   -7.5215 C   0  0  0  0  0  0  0  0  0  0  0  0
   -7.8043    4.7828   -7.6939 C   0  0  0  0  0  0  0  0  0  0  0  0
   -8.3099    4.9295   -8.9464 N   0  0  0  0  0  0  0  0  0  0  0  0
   -9.3487    5.6755   -9.2903 N   0  0  0  0  0  0  0  0  0  0  0  0
   -9.4974    5.5504  -10.6302 C   0  0  0  0  0  0  0  0  0  0  0  0
   -5.7692    6.1957  -15.8203 C   0  0  0  0  0  0  0  0  0  0  0  0
   -6.2706    1.5749  -14.2051 H   0  0  0  0  0  0  0  0  0  0  0  0
   -5.9925    1.3813  -15.9724 H   0  0  0  0  0  0  0  0  0  0  0  0
   -7.1749    2.6191  -15.3766 H   0  0  0  0  0  0  0  0  0  0  0  0
   -5.2936    3.8525  -14.2682 H   0  0  0  0  0  0  0  0  0  0  0  0
   -4.1273    2.6309  -14.8629 H   0  0  0  0  0  0  0  0  0  0  0  0
   -6.6624    4.1582  -18.4099 H   0  0  0  0  0  0  0  0  0  0  0  0
   -5.6069    5.5845  -18.7390 H   0  0  0  0  0  0  0  0  0  0  0  0
   -8.0421    5.6596  -20.0998 H   0  0  0  0  0  0  0  0  0  0  0  0
  -10.0417    7.1046  -20.1390 H   0  0  0  0  0  0  0  0  0  0  0  0
  -10.7496    8.3168  -18.0962 H   0  0  0  0  0  0  0  0  0  0  0  0
   -9.4416    8.1084  -16.0126 H   0  0  0  0  0  0  0  0  0  0  0  0
   -7.2170    7.5816  -15.0170 H   0  0  0  0  0  0  0  0  0  0  0  0
   -8.5589    4.9321  -15.1875 H   0  0  0  0  0  0  0  0  0  0  0  0
   -7.6500    3.4284  -12.6429 H   0  0  0  0  0  0  0  0  0  0  0  0
   -9.2692    4.0857  -13.0335 H   0  0  0  0  0  0  0  0  0  0  0  0
   -6.2162    3.0326  -10.7824 H   0  0  0  0  0  0  0  0  0  0  0  0
   -5.2341    2.6951   -8.5119 H   0  0  0  0  0  0  0  0  0  0  0  0
   -6.2508    3.8275   -6.5373 H   0  0  0  0  0  0  0  0  0  0  0  0
   -8.2601    5.2852   -6.8502 H   0  0  0  0  0  0  0  0  0  0  0  0
  -10.2536    6.0650  -11.2093 H   0  0  0  0  0  0  0  0  0  0  0  0
   -5.2383    5.9967  -14.8672 H   0  0  0  0  0  0  0  0  0  0  0  0
   -5.2295    7.0332  -16.3137 H   0  0  0  0  0  0  0  0  0  0  0  0
  1  2  1  0
  2  3  1  0
  3  4  2  0
  3  5  1  0
  5  6  1  0
  6  7  1  0
  7  8  2  0
  8  9  1  0
  9 10  2  0
 10 11  1  0
 11 12  2  0
 12 13  1  0
 13 14  1  0
 14 15  1  0
 15 16  2  0
 15 17  1  0
 17 18  1  0
 18 19  2  0
 19 20  1  0
 20 21  2  0
 21 22  1  0
 22 23  2  0
 23 24  1  0
 24 25  1  0
 25 26  2  0
 13 27  1  0
 27  5  1  0
 12  7  1  0
 26 18  1  0
 24 19  1  0
  1 28  1  0
  1 29  1  0
  1 30  1  0
  2 31  1  0
  2 32  1  0
  6 33  1  0
  6 34  1  0
  8 35  1  0
  9 36  1  0
 10 37  1  0
 11 38  1  0
 13 39  1  0
 14 40  1  0
 17 41  1  0
 17 42  1  0
 20 43  1  0
 21 44  1  0
 22 45  1  0
 23 46  1  0
 26 47  1  0
 27 48  1  0
 27 49  1  0
A    1
 C1 
A    2
 C2 
A    3
 C3 
A    4
 O1 
A    5
 N1 
A    6
 C4 
A    7
 C5 
A    8
 C6 
A    9
 C7 
A   10
 C8 
A   11
 C9 
A   12
 C10
A   13
 C11
A   14
 N2 
A   15
 C12
A   16
 O2 
A   17
 C13
A   18
 C14
A   19
 C15
A   20
 C16
A   21
 C17
A   22
 C18
A   23
 C19
A   24
 N3 
A   25
 N4 
A   26
 C20
A   27
 C21
A   28
 H1 
A   29
 H2 
A   30
 H3 
A   31
 H4 
A   32
 H5 
A   33
 H6 
A   34
 H7 
A   35
 H8 
A   36
 H9 
A   37
 H10
A   38
 H11
A   39
 H12
A   40
 H13
A   41
 H14
A   42
 H15
A   43
 H16
A   44
 H17
A   45
 H18
A   46
 H19
A   47
 H20
A   48
 H21
A   49
 H22
M  END
>  <ref_pdb>  (2) 
x0051_0B

>  <ref_mols>  (2) 
x0472_0B,x0969_1B

>  <original SMILES>  (2) 
[H]c1nn2c([H])c([H])c([H])c([H])c2c1C([H])([H])C(=O)N([H])C1([H])c2c([H])c([H])c([H])c([H])c2C([H])([H])N(C(=O)C([H])([H])C([H])([H])[H])C1([H])[H]

>  <index>  (2) 
0

>  <∆∆G>  (2) 
-7.998571

>  <∆G_bound>  (2) 
-6.371715

>  <∆G_unbound>  (2) 
1.626856

>  <comRMSD>  (2) 
0.460935

>  <N_constrained_atoms>  (2) 
23.0

>  <N_unconstrained_atoms>  (2) 
4.0

>  <runtime>  (2) 
33.967824

>  <LE>  (2) 
0.296243

>  <percent_hybrid>  (2) 
44.0

>  <dist>  (2) 
12.0

>  <ecfp4>  (2) 
0.132075

>  <daylight>  (2) 
0.255255

>  <topodist>  (2) 
2.0

>  <mces>  (2) 
28.0

>  <tdn>  (2) 
0.0

>  <tup>  (2) 
1.0

>  <rdn>  (2) 
0.0

>  <rup>  (2) 
0.0

>  <ldn>  (2) 
0.0

>  <lup>  (2) 
1.0

>  <mut>  (2) 
5.0

>  <maj>  (2) 
5.0

>  <min>  (2) 
0.0

>  <hyb>  (2) 
5.0

>  <sub>  (2) 
0.0

>  <query_index>  (2) 
24.0

>  <max_hit_Tanimoto>  (2) 
0.301237

>  <largest_ring>  (2) 
6

>  <N_interactions_kept>  (2) 
3.5

>  <N_interactions_lost>  (2) 
0.0

>  <interaction_uniqueness_metric>  (2) 
0.157572

>  <ad_hoc_penalty>  (2) 
-48.798672

>  <N_rotatable_bonds>  (2) 
5

>  <N_HA>  (2) 
27

>  <cluster>  (2) 
6216

>  <N_interactions>  (2) 
8

>  <Enamine>  (2) 
1

>  <Mcule>  (2) 
0

>  <N_PAINS>  (2) 
0

>  <UFF_Gibbs>  (2) 
168.742258

>  <strain_per_HA>  (2) 
6.249713

>  <saltbridge:HIS:51>  (2) 
0

>  <pistack:HIS:51>  (2) 
1

>  <hydroph_interaction:HIS:51>  (2) 
0

>  <hbond:ALA:132>  (2) 
0

>  <hbond:SER:135>  (2) 
0

>  <hydroph_interaction:TYR:150>  (2) 
1

>  <pistack:TYR:161>  (2) 
0

>  <hydroph_interaction:TYR:161>  (2) 
3

>  <hydroph_interaction:ASP:83>  (2) 
0

>  <hbond:TYR:130>  (2) 
0

>  <hydroph_interaction:ALA:132>  (2) 
1

>  <hbond:HIS:51>  (2) 
0

>  <hbond:ASP:129>  (2) 
0

>  <hbond:TYR:150>  (2) 
0

>  <hbond:GLY:151>  (2) 
0

>  <hbond:TYR:161>  (2) 
1

>  <hydroph_interaction:TYR:130>  (2) 
0

>  <hydroph_interaction:PRO:131>  (2) 
0

>  <hydroph_interaction:ASP:129>  (2) 
0

>  <saltbridge:ASP:75>  (2) 
0

>  <saltbridge:ASP:83>  (2) 
0

>  <hydroph_interaction:ASN:152>  (2) 
0

>  <halogenbond:TYR:150>  (2) 
0

>  <hbond:ASP:83>  (2) 
0

>  <hydroph_interaction:VAL:155>  (2) 
1

>  <pication:TYR:161>  (2) 
0

>  <hbond:PRO:131>  (2) 
0

>  <hbond:LEU:128>  (2) 
0

>  <saltbridge:ASP:129>  (2) 
0

>  <hbond:THR:134>  (2) 
0

>  <pication:HIS:51>  (2) 
0

>  <hbond:SER:81>  (2) 
0

>  <hbond:GLY:159>  (2) 
0

>  <hydroph_interaction:PRO:101>  (2) 
0

>  <hydroph_interaction:THR:134>  (2) 
0

>  <hbond:GLY:82>  (2) 
0

>  <hydroph_interaction:GLU:104>  (2) 
0

>  <hydroph_interaction:VAL:36>  (2) 
0

>  <hydroph_interaction:MET:49>  (2) 
0

>  <halogenbond:GLU:104>  (2) 
0

>  <hydroph_interaction:LYS:107>  (2) 
0

$$$$
PV-003491507658
     RDKit          3D

 53 56  0  0  0  0  0  0  0  0999 V2000
   -3.7005    6.2448  -14.9066 C   0  0  0  0  0  0  0  0  0  0  0  0
   -4.2299    6.1949  -16.3084 C   0  0  0  0  0  0  0  0  0  0  0  0
   -3.4093    6.0175  -17.2494 O   0  0  0  0  0  0  0  0  0  0  0  0
   -5.6377    6.3596  -16.5994 N   0  0  0  0  0  0  0  0  0  0  0  0
   -6.6367    6.5966  -15.5535 C   0  0  0  0  0  0  0  0  0  0  0  0
   -7.4050    5.2921  -15.2948 C   0  0  1  0  0  0  0  0  0  0  0  0
   -8.4761    5.5102  -14.3165 N   0  0  0  0  0  0  0  0  0  0  0  0
   -9.0989    4.4302  -13.6062 C   0  0  0  0  0  0  0  0  0  0  0  0
   -8.7331    3.2400  -13.8049 O   0  0  0  0  0  0  0  0  0  0  0  0
  -10.1516    4.7169  -12.5813 C   0  0  0  0  0  0  0  0  0  0  0  0
   -9.5102    5.1678  -11.3059 C   0  0  0  0  0  0  0  0  0  0  0  0
   -9.0015    4.3876  -10.2878 C   0  0  0  0  0  0  0  0  0  0  0  0
   -9.0920    2.8988  -10.1279 C   0  0  0  0  0  0  0  0  0  0  0  0
   -8.0999    2.4141   -9.0589 C   0  0  0  0  0  0  0  0  0  0  0  0
   -8.1420    3.3069   -7.8076 C   0  0  0  0  0  0  0  0  0  0  0  0
   -7.7641    4.7563   -8.1551 C   0  0  0  0  0  0  0  0  0  0  0  0
   -8.4664    5.1990   -9.3585 N   0  0  0  0  0  0  0  0  0  0  0  0
   -8.5571    6.4596   -9.7530 N   0  0  0  0  0  0  0  0  0  0  0  0
   -9.1954    6.4672  -10.9427 C   0  0  0  0  0  0  0  0  0  0  0  0
   -7.9680    4.6780  -16.6076 C   0  0  1  0  0  0  0  0  0  0  0  0
   -9.2184    5.3626  -17.1617 C   0  0  0  0  0  0  0  0  0  0  0  0
   -9.2172    5.0784  -18.6651 C   0  0  0  0  0  0  0  0  0  0  0  0
   -7.8647    4.4461  -19.0030 C   0  0  0  0  0  0  0  0  0  0  0  0
   -6.9745    4.6630  -17.7798 C   0  0  1  0  0  0  0  0  0  0  0  0
   -6.1835    5.9844  -17.9062 C   0  0  0  0  0  0  0  0  0  0  0  0
   -4.2477    5.5201  -14.2684 H   0  0  0  0  0  0  0  0  0  0  0  0
   -2.6224    5.9785  -14.8882 H   0  0  0  0  0  0  0  0  0  0  0  0
   -3.8161    7.2700  -14.4978 H   0  0  0  0  0  0  0  0  0  0  0  0
   -6.1765    6.9595  -14.6121 H   0  0  0  0  0  0  0  0  0  0  0  0
   -7.3333    7.3953  -15.8880 H   0  0  0  0  0  0  0  0  0  0  0  0
   -6.6734    4.5718  -14.8641 H   0  0  0  0  0  0  0  0  0  0  0  0
   -8.7762    6.4866  -14.0925 H   0  0  0  0  0  0  0  0  0  0  0  0
  -10.8327    5.5091  -12.9594 H   0  0  0  0  0  0  0  0  0  0  0  0
  -10.7625    3.8074  -12.3943 H   0  0  0  0  0  0  0  0  0  0  0  0
  -10.1267    2.6362   -9.8204 H   0  0  0  0  0  0  0  0  0  0  0  0
   -8.8710    2.3971  -11.0934 H   0  0  0  0  0  0  0  0  0  0  0  0
   -7.0704    2.4189   -9.4799 H   0  0  0  0  0  0  0  0  0  0  0  0
   -8.3479    1.3686   -8.7761 H   0  0  0  0  0  0  0  0  0  0  0  0
   -9.1648    3.2846   -7.3722 H   0  0  0  0  0  0  0  0  0  0  0  0
   -7.4347    2.9142   -7.0462 H   0  0  0  0  0  0  0  0  0  0  0  0
   -8.0219    5.4220   -7.3037 H   0  0  0  0  0  0  0  0  0  0  0  0
   -6.6690    4.8200   -8.3332 H   0  0  0  0  0  0  0  0  0  0  0  0
   -9.4059    7.3609  -11.5151 H   0  0  0  0  0  0  0  0  0  0  0  0
   -8.2409    3.6192  -16.3935 H   0  0  0  0  0  0  0  0  0  0  0  0
   -9.1802    6.4603  -16.9934 H   0  0  0  0  0  0  0  0  0  0  0  0
  -10.1362    4.9604  -16.6795 H   0  0  0  0  0  0  0  0  0  0  0  0
   -9.3503    6.0256  -19.2321 H   0  0  0  0  0  0  0  0  0  0  0  0
  -10.0436    4.3843  -18.9319 H   0  0  0  0  0  0  0  0  0  0  0  0
   -7.4300    4.8833  -19.9291 H   0  0  0  0  0  0  0  0  0  0  0  0
   -8.0009    3.3538  -19.1651 H   0  0  0  0  0  0  0  0  0  0  0  0
   -6.2560    3.8210  -17.6635 H   0  0  0  0  0  0  0  0  0  0  0  0
   -6.8484    6.8020  -18.2632 H   0  0  0  0  0  0  0  0  0  0  0  0
   -5.3835    5.8667  -18.6679 H   0  0  0  0  0  0  0  0  0  0  0  0
  1  2  1  0
  2  3  2  0
  2  4  1  0
  4  5  1  0
  5  6  1  0
  6  7  1  0
  7  8  1  0
  8  9  2  0
  8 10  1  0
 10 11  1  0
 11 12  2  0
 12 13  1  0
 13 14  1  0
 14 15  1  0
 15 16  1  0
 16 17  1  0
 17 18  1  0
 18 19  2  0
  6 20  1  0
 20 21  1  0
 21 22  1  0
 22 23  1  0
 23 24  1  0
 24 25  1  0
 25  4  1  0
 19 11  1  0
 17 12  1  0
 24 20  1  0
  1 26  1  0
  1 27  1  0
  1 28  1  0
  5 29  1  0
  5 30  1  0
  6 31  1  1
  7 32  1  0
 10 33  1  0
 10 34  1  0
 13 35  1  0
 13 36  1  0
 14 37  1  0
 14 38  1  0
 15 39  1  0
 15 40  1  0
 16 41  1  0
 16 42  1  0
 19 43  1  0
 20 44  1  1
 21 45  1  0
 21 46  1  0
 22 47  1  0
 22 48  1  0
 23 49  1  0
 23 50  1  0
 24 51  1  1
 25 52  1  0
 25 53  1  0
A    1
 C1 
A    2
 C2 
A    3
 O1 
A    4
 N1 
A    5
 C3 
A    6
 C4 
A    7
 N2 
A    8
 C5 
A    9
 O2 
A   10
 C6 
A   11
 C7 
A   12
 C8 
A   13
 C9 
A   14
 C10
A   15
 C11
A   16
 C12
A   17
 N3 
A   18
 N4 
A   19
 C13
A   20
 C14
A   21
 C15
A   22
 C16
A   23
 C17
A   24
 C18
A   25
 C19
A   26
 H1 
A   27
 H2 
A   28
 H3 
A   29
 H4 
A   30
 H5 
A   31
 H6 
A   32
 H7 
A   33
 H8 
A   34
 H9 
A   35
 H10
A   36
 H11
A   37
 H12
A   38
 H13
A   39
 H14
A   40
 H15
A   41
 H16
A   42
 H17
A   43
 H18
A   44
 H19
A   45
 H20
A   46
 H21
A   47
 H22
A   48
 H23
A   49
 H24
A   50
 H25
A   51
 H26
A   52
 H27
A   53
 H28
M  END
>  <ref_pdb>  (3) 
x0051_0B

>  <ref_mols>  (3) 
x0472_0B,x0969_1B

>  <original SMILES>  (3) 
[H]c1nn2c(c1C([H])([H])C(=O)N([H])[C@]1([H])C([H])([H])N(C(=O)C([H])([H])[H])C([H])([H])[C@]3([H])C([H])([H])C([H])([H])C([H])([H])[C@@]31[H])C([H])([H])C([H])([H])C([H])([H])C2([H])[H]

>  <index>  (3) 
3

>  <∆∆G>  (3) 
-6.903683

>  <∆G_bound>  (3) 
-5.448303

>  <∆G_unbound>  (3) 
1.45538

>  <comRMSD>  (3) 
0.450411

>  <N_constrained_atoms>  (3) 
23.0

>  <N_unconstrained_atoms>  (3) 
3.0

>  <runtime>  (3) 
53.790997

>  <LE>  (3) 
0.265526

>  <percent_hybrid>  (3) 
44.0

>  <dist>  (3) 
12.0

>  <ecfp4>  (3) 
0.202128

>  <daylight>  (3) 
0.26513

>  <topodist>  (3) 
2.0

>  <mces>  (3) 
27.0

>  <tdn>  (3) 
1.0

>  <tup>  (3) 
1.0

>  <rdn>  (3) 
0.0

>  <rup>  (3) 
0.0

>  <ldn>  (3) 
0.0

>  <lup>  (3) 
0.0

>  <mut>  (3) 
4.0

>  <maj>  (3) 
4.0

>  <min>  (3) 
0.0

>  <hyb>  (3) 
6.0

>  <sub>  (3) 
0.0

>  <query_index>  (3) 
24.0

>  <max_hit_Tanimoto>  (3) 
0.311277

>  <largest_ring>  (3) 
6

>  <N_interactions_kept>  (3) 
3.5

>  <N_interactions_lost>  (3) 
0.0

>  <interaction_uniqueness_metric>  (3) 
0.184044

>  <ad_hoc_penalty>  (3) 
-48.411187

>  <N_rotatable_bonds>  (3) 
4

>  <N_HA>  (3) 
25

>  <cluster>  (3) 
6213

>  <N_interactions>  (3) 
7

>  <Enamine>  (3) 
1

>  <Mcule>  (3) 
0

>  <N_PAINS>  (3) 
0

>  <UFF_Gibbs>  (3) 
62.192418

>  <strain_per_HA>  (3) 
2.392016

>  <saltbridge:HIS:51>  (3) 
0

>  <pistack:HIS:51>  (3) 
1

>  <hydroph_interaction:HIS:51>  (3) 
0

>  <hbond:ALA:132>  (3) 
0

>  <hbond:SER:135>  (3) 
0

>  <hydroph_interaction:TYR:150>  (3) 
0

>  <pistack:TYR:161>  (3) 
0

>  <hydroph_interaction:TYR:161>  (3) 
3

>  <hydroph_interaction:ASP:83>  (3) 
1

>  <hbond:TYR:130>  (3) 
0

>  <hydroph_interaction:ALA:132>  (3) 
1

>  <hbond:HIS:51>  (3) 
0

>  <hbond:ASP:129>  (3) 
0

>  <hbond:TYR:150>  (3) 
0

>  <hbond:GLY:151>  (3) 
0

>  <hbond:TYR:161>  (3) 
0

>  <hydroph_interaction:TYR:130>  (3) 
0

>  <hydroph_interaction:PRO:131>  (3) 
0

>  <hydroph_interaction:ASP:129>  (3) 
0

>  <saltbridge:ASP:75>  (3) 
0

>  <saltbridge:ASP:83>  (3) 
0

>  <hydroph_interaction:ASN:152>  (3) 
0

>  <halogenbond:TYR:150>  (3) 
0

>  <hbond:ASP:83>  (3) 
0

>  <hydroph_interaction:VAL:155>  (3) 
1

>  <pication:TYR:161>  (3) 
0

>  <hbond:PRO:131>  (3) 
0

>  <hbond:LEU:128>  (3) 
0

>  <saltbridge:ASP:129>  (3) 
0

>  <hbond:THR:134>  (3) 
0

>  <pication:HIS:51>  (3) 
0

>  <hbond:SER:81>  (3) 
0

>  <hbond:GLY:159>  (3) 
0

>  <hydroph_interaction:PRO:101>  (3) 
0

>  <hydroph_interaction:THR:134>  (3) 
0

>  <hbond:GLY:82>  (3) 
0

>  <hydroph_interaction:GLU:104>  (3) 
0

>  <hydroph_interaction:VAL:36>  (3) 
0

>  <hydroph_interaction:MET:49>  (3) 
0

>  <halogenbond:GLU:104>  (3) 
0

>  <hydroph_interaction:LYS:107>  (3) 
0

$$$$
Z2480315080
     RDKit          3D

 45 48  0  0  0  0  0  0  0  0999 V2000
   -9.8701    6.6461  -13.4705 O   0  0  0  0  0  0  0  0  0  0  0  0
   -8.9910    5.9454  -14.0455 C   0  0  0  0  0  0  0  0  0  0  0  0
   -8.7910    4.6092  -13.6759 O   0  0  0  0  0  0  0  0  0  0  0  0
   -9.4789    3.9820  -12.5963 C   0  0  0  0  0  0  0  0  0  0  0  0
   -8.8212    4.2861  -11.2795 C   0  0  0  0  0  0  0  0  0  0  0  0
   -8.9825    3.5989  -10.0930 C   0  0  0  0  0  0  0  0  0  0  0  0
   -9.8428    2.4008   -9.8289 C   0  0  0  0  0  0  0  0  0  0  0  0
   -9.4847    1.7668   -8.4771 C   0  0  0  0  0  0  0  0  0  0  0  0
   -9.3376    2.8317   -7.3798 C   0  0  0  0  0  0  0  0  0  0  0  0
   -8.2184    3.8243   -7.7314 C   0  0  0  0  0  0  0  0  0  0  0  0
   -8.3356    4.2636   -9.1210 N   0  0  0  0  0  0  0  0  0  0  0  0
   -7.7409    5.3310   -9.6249 N   0  0  0  0  0  0  0  0  0  0  0  0
   -8.0294    5.3734  -10.9430 C   0  0  0  0  0  0  0  0  0  0  0  0
   -8.1576    6.5458  -15.1436 C   0  0  0  0  0  0  0  0  0  0  0  0
   -6.6795    6.5283  -14.7126 C   0  0  0  0  0  0  0  0  0  0  0  0
   -5.7582    6.8314  -15.8909 C   0  0  0  0  0  0  0  0  0  0  0  0
   -5.8946    5.7432  -16.9522 C   0  0  0  0  0  0  0  0  0  0  0  0
   -7.3355    5.5008  -17.3392 C   0  0  0  0  0  0  0  0  0  0  0  0
   -7.6120    4.8869  -18.5717 C   0  0  0  0  0  0  0  0  0  0  0  0
   -8.9281    4.6663  -18.9746 C   0  0  0  0  0  0  0  0  0  0  0  0
   -9.9833    5.0453  -18.1490 C   0  0  0  0  0  0  0  0  0  0  0  0
   -9.7268    5.6279  -16.9085 C   0  0  0  0  0  0  0  0  0  0  0  0
   -8.4034    5.8377  -16.4703 C   0  0  0  0  0  0  0  0  0  0  0  0
  -10.5472    4.2986  -12.5750 H   0  0  0  0  0  0  0  0  0  0  0  0
   -9.4550    2.8832  -12.7650 H   0  0  0  0  0  0  0  0  0  0  0  0
  -10.9033    2.7195   -9.8196 H   0  0  0  0  0  0  0  0  0  0  0  0
   -9.7084    1.6508  -10.6318 H   0  0  0  0  0  0  0  0  0  0  0  0
   -8.5290    1.2065   -8.5744 H   0  0  0  0  0  0  0  0  0  0  0  0
  -10.2761    1.0403   -8.1909 H   0  0  0  0  0  0  0  0  0  0  0  0
   -9.1052    2.3371   -6.4126 H   0  0  0  0  0  0  0  0  0  0  0  0
  -10.2974    3.3798   -7.2636 H   0  0  0  0  0  0  0  0  0  0  0  0
   -7.2327    3.3331   -7.5930 H   0  0  0  0  0  0  0  0  0  0  0  0
   -8.2718    4.7016   -7.0533 H   0  0  0  0  0  0  0  0  0  0  0  0
   -7.6922    6.1546  -11.6065 H   0  0  0  0  0  0  0  0  0  0  0  0
   -8.4582    7.6077  -15.2806 H   0  0  0  0  0  0  0  0  0  0  0  0
   -6.4008    5.5365  -14.2903 H   0  0  0  0  0  0  0  0  0  0  0  0
   -6.5207    7.2899  -13.9185 H   0  0  0  0  0  0  0  0  0  0  0  0
   -4.7039    6.8665  -15.5332 H   0  0  0  0  0  0  0  0  0  0  0  0
   -6.0071    7.8250  -16.3244 H   0  0  0  0  0  0  0  0  0  0  0  0
   -5.3049    6.0410  -17.8461 H   0  0  0  0  0  0  0  0  0  0  0  0
   -5.4633    4.7947  -16.5628 H   0  0  0  0  0  0  0  0  0  0  0  0
   -6.8038    4.5954  -19.2312 H   0  0  0  0  0  0  0  0  0  0  0  0
   -9.1304    4.2157  -19.9352 H   0  0  0  0  0  0  0  0  0  0  0  0
  -11.0040    4.8960  -18.4756 H   0  0  0  0  0  0  0  0  0  0  0  0
  -10.5638    5.9225  -16.2880 H   0  0  0  0  0  0  0  0  0  0  0  0
  1  2  2  0
  2  3  1  0
  3  4  1  0
  4  5  1  0
  5  6  2  0
  6  7  1  0
  7  8  1  0
  8  9  1  0
  9 10  1  0
 10 11  1  0
 11 12  1  0
 12 13  2  0
  2 14  1  0
 14 15  1  0
 15 16  1  0
 16 17  1  0
 17 18  1  0
 18 19  2  0
 19 20  1  0
 20 21  2  0
 21 22  1  0
 22 23  2  0
 13  5  1  0
 11  6  1  0
 23 14  1  0
 23 18  1  0
  4 24  1  0
  4 25  1  0
  7 26  1  0
  7 27  1  0
  8 28  1  0
  8 29  1  0
  9 30  1  0
  9 31  1  0
 10 32  1  0
 10 33  1  0
 13 34  1  0
 14 35  1  0
 15 36  1  0
 15 37  1  0
 16 38  1  0
 16 39  1  0
 17 40  1  0
 17 41  1  0
 19 42  1  0
 20 43  1  0
 21 44  1  0
 22 45  1  0
A    1
 O1 
A    2
 C1 
A    3
 O2 
A    4
 C2 
A    5
 C3 
A    6
 C4 
A    7
 C5 
A    8
 C6 
A    9
 C7 
A   10
 C8 
A   11
 N1 
A   12
 N2 
A   13
 C9 
A   14
 C10
A   15
 C11
A   16
 C12
A   17
 C13
A   18
 C14
A   19
 C15
A   20
 C16
A   21
 C17
A   22
 C18
A   23
 C19
A   24
 H1 
A   25
 H2 
A   26
 H3 
A   27
 H4 
A   28
 H5 
A   29
 H6 
A   30
 H7 
A   31
 H8 
A   32
 H9 
A   33
 H10
A   34
 H11
A   35
 H12
A   36
 H13
A   37
 H14
A   38
 H15
A   39
 H16
A   40
 H17
A   41
 H18
A   42
 H19
A   43
 H20
A   44
 H21
A   45
 H22
M  END
>  <ref_pdb>  (4) 
x0051_0B

>  <ref_mols>  (4) 
x0969_1B,x0455_0B

>  <original SMILES>  (4) 
[H]c1nn2c(c1C([H])([H])OC(=O)C1([H])c3c([H])c([H])c([H])c([H])c3C([H])([H])C([H])([H])C1([H])[H])C([H])([H])C([H])([H])C([H])([H])C2([H])[H]

>  <index>  (4) 
2

>  <∆∆G>  (4) 
-6.589362

>  <∆G_bound>  (4) 
-5.524366

>  <∆G_unbound>  (4) 
1.064996

>  <comRMSD>  (4) 
0.442891

>  <N_constrained_atoms>  (4) 
20.0

>  <N_unconstrained_atoms>  (4) 
3.0

>  <runtime>  (4) 
56.713678

>  <LE>  (4) 
0.286494

>  <percent_hybrid>  (4) 
50.0

>  <dist>  (4) 
5.0

>  <ecfp4>  (4) 
0.283951

>  <daylight>  (4) 
0.354354

>  <topodist>  (4) 
1.0

>  <mces>  (4) 
25.0

>  <tdn>  (4) 
0.0

>  <tup>  (4) 
1.0

>  <rdn>  (4) 
0.0

>  <rup>  (4) 
0.0

>  <ldn>  (4) 
0.0

>  <lup>  (4) 
0.0

>  <mut>  (4) 
3.0

>  <maj>  (4) 
3.0

>  <min>  (4) 
0.0

>  <hyb>  (4) 
1.0

>  <sub>  (4) 
0.0

>  <query_index>  (4) 
204.0

>  <max_hit_Tanimoto>  (4) 
0.3049

>  <largest_ring>  (4) 
6

>  <N_interactions_kept>  (4) 
1.5

>  <N_interactions_lost>  (4) 
1.0

>  <interaction_uniqueness_metric>  (4) 
0.22098

>  <ad_hoc_penalty>  (4) 
-47.837751

>  <N_rotatable_bonds>  (4) 
3

>  <N_HA>  (4) 
23

>  <cluster>  (4) 
6214

>  <N_interactions>  (4) 
9

>  <Enamine>  (4) 
1

>  <Mcule>  (4) 
0

>  <N_PAINS>  (4) 
0

>  <UFF_Gibbs>  (4) 
118.561112

>  <strain_per_HA>  (4) 
5.154831

>  <saltbridge:HIS:51>  (4) 
1

>  <pistack:HIS:51>  (4) 
1

>  <hydroph_interaction:HIS:51>  (4) 
0

>  <hbond:ALA:132>  (4) 
0

>  <hbond:SER:135>  (4) 
1

>  <hydroph_interaction:TYR:150>  (4) 
1

>  <pistack:TYR:161>  (4) 
0

>  <hydroph_interaction:TYR:161>  (4) 
4

>  <hydroph_interaction:ASP:83>  (4) 
0

>  <hbond:TYR:130>  (4) 
0

>  <hydroph_interaction:ALA:132>  (4) 
1

>  <hbond:HIS:51>  (4) 
0

>  <hbond:ASP:129>  (4) 
0

>  <hbond:TYR:150>  (4) 
0

>  <hbond:GLY:151>  (4) 
0

>  <hbond:TYR:161>  (4) 
0

>  <hydroph_interaction:TYR:130>  (4) 
0

>  <hydroph_interaction:PRO:131>  (4) 
0

>  <hydroph_interaction:ASP:129>  (4) 
0

>  <saltbridge:ASP:75>  (4) 
0

>  <saltbridge:ASP:83>  (4) 
0

>  <hydroph_interaction:ASN:152>  (4) 
0

>  <halogenbond:TYR:150>  (4) 
0

>  <hbond:ASP:83>  (4) 
0

>  <hydroph_interaction:VAL:155>  (4) 
0

>  <pication:TYR:161>  (4) 
0

>  <hbond:PRO:131>  (4) 
0

>  <hbond:LEU:128>  (4) 
0

>  <saltbridge:ASP:129>  (4) 
0

>  <hbond:THR:134>  (4) 
0

>  <pication:HIS:51>  (4) 
0

>  <hbond:SER:81>  (4) 
0

>  <hbond:GLY:159>  (4) 
0

>  <hydroph_interaction:PRO:101>  (4) 
0

>  <hydroph_interaction:THR:134>  (4) 
0

>  <hbond:GLY:82>  (4) 
0

>  <hydroph_interaction:GLU:104>  (4) 
0

>  <hydroph_interaction:VAL:36>  (4) 
0

>  <hydroph_interaction:MET:49>  (4) 
0

>  <halogenbond:GLU:104>  (4) 
0

>  <hydroph_interaction:LYS:107>  (4) 
0

$$$$
CSSB00010212345
     RDKit          3D

 33 34  0  0  0  0  0  0  0  0999 V2000
   -2.8294    2.6338  -15.1749 C   0  0  0  0  0  0  0  0  0  0  0  0
   -2.4650    4.0556  -15.6434 C   0  0  0  0  0  0  0  0  0  0  0  0
   -1.6230    4.7362  -14.5535 C   0  0  0  0  0  0  0  0  0  0  0  0
   -1.6448    4.0054  -16.9466 C   0  0  0  0  0  0  0  0  0  0  0  0
   -3.6482    4.8486  -15.8206 O   0  0  0  0  0  0  0  0  0  0  0  0
   -4.6976    4.5941  -16.7192 C   0  0  0  0  0  0  0  0  0  0  0  0
   -4.6599    3.5850  -17.4751 O   0  0  0  0  0  0  0  0  0  0  0  0
   -5.8246    5.4913  -16.7786 N   0  0  0  0  0  0  0  0  0  0  0  0
   -5.8042    6.7469  -16.0033 C   0  0  0  0  0  0  0  0  0  0  0  0
   -7.1824    7.0405  -15.4022 C   0  0  0  0  0  0  0  0  0  0  0  0
   -8.2290    6.8916  -16.4526 C   0  0  0  0  0  0  0  0  0  0  0  0
   -8.1028    6.0620  -17.5529 C   0  0  0  0  0  0  0  0  0  0  0  0
   -6.8431    5.2879  -17.8291 C   0  0  0  0  0  0  0  0  0  0  0  0
   -9.2554    6.0345  -18.3540 C   0  0  0  0  0  0  0  0  0  0  0  0
   -9.4233    5.0056  -19.9559 Br  0  0  0  0  0  0  0  0  0  0  0  0
  -10.2876    6.8279  -17.8642 C   0  0  0  0  0  0  0  0  0  0  0  0
   -9.7690    7.5612  -16.4384 S   0  0  0  0  0  0  0  0  0  0  0  0
   -3.4856    2.6820  -14.2796 H   0  0  0  0  0  0  0  0  0  0  0  0
   -3.3615    2.0695  -15.9674 H   0  0  0  0  0  0  0  0  0  0  0  0
   -1.9129    2.0622  -14.9125 H   0  0  0  0  0  0  0  0  0  0  0  0
   -1.3573    5.7704  -14.8617 H   0  0  0  0  0  0  0  0  0  0  0  0
   -0.6844    4.1717  -14.3630 H   0  0  0  0  0  0  0  0  0  0  0  0
   -2.1980    4.7971  -13.6044 H   0  0  0  0  0  0  0  0  0  0  0  0
   -0.6681    3.5036  -16.7743 H   0  0  0  0  0  0  0  0  0  0  0  0
   -2.1769    3.4412  -17.7392 H   0  0  0  0  0  0  0  0  0  0  0  0
   -1.4537    5.0348  -17.3188 H   0  0  0  0  0  0  0  0  0  0  0  0
   -5.0716    6.7003  -15.1700 H   0  0  0  0  0  0  0  0  0  0  0  0
   -5.5045    7.5815  -16.6741 H   0  0  0  0  0  0  0  0  0  0  0  0
   -7.2015    8.0726  -14.9917 H   0  0  0  0  0  0  0  0  0  0  0  0
   -7.3923    6.3221  -14.5812 H   0  0  0  0  0  0  0  0  0  0  0  0
   -6.4256    5.6026  -18.8093 H   0  0  0  0  0  0  0  0  0  0  0  0
   -7.1130    4.2112  -17.8845 H   0  0  0  0  0  0  0  0  0  0  0  0
  -11.2625    6.9461  -18.3176 H   0  0  0  0  0  0  0  0  0  0  0  0
  1  2  1  0
  2  3  1  0
  2  4  1  0
  2  5  1  0
  5  6  1  0
  6  7  2  0
  6  8  1  0
  8  9  1  0
  9 10  1  0
 10 11  1  0
 11 12  2  0
 12 13  1  0
 12 14  1  0
 14 15  1  0
 14 16  2  0
 16 17  1  0
 13  8  1  0
 17 11  1  0
  1 18  1  0
  1 19  1  0
  1 20  1  0
  3 21  1  0
  3 22  1  0
  3 23  1  0
  4 24  1  0
  4 25  1  0
  4 26  1  0
  9 27  1  0
  9 28  1  0
 10 29  1  0
 10 30  1  0
 13 31  1  0
 13 32  1  0
 16 33  1  0
A    1
 C1 
A    2
 C2 
A    3
 C3 
A    4
 C4 
A    5
 O1 
A    6
 C5 
A    7
 O2 
A    8
 N1 
A    9
 C6 
A   10
 C7 
A   11
 C8 
A   12
 C9 
A   13
 C10
A   14
 C11
A   15
BR1 
A   16
 C12
A   17
 S1 
A   18
 H1 
A   19
 H2 
A   20
 H3 
A   21
 H4 
A   22
 H5 
A   23
 H6 
A   24
 H7 
A   25
 H8 
A   26
 H9 
A   27
 H10
A   28
 H11
A   29
 H12
A   30
 H13
A   31
 H14
A   32
 H15
A   33
 H16
M  END
>  <ref_pdb>  (5) 
x0051_0B

>  <ref_mols>  (5) 
x0472_0B,x0089_0B

>  <original SMILES>  (5) 
[H]c1sc2c(c1Br)C([H])([H])N(C(=O)OC(C([H])([H])[H])(C([H])([H])[H])C([H])([H])[H])C([H])([H])C2([H])[H]

>  <index>  (5) 
5

>  <∆∆G>  (5) 
-6.164977

>  <∆G_bound>  (5) 
-6.044918

>  <∆G_unbound>  (5) 
0.120059

>  <comRMSD>  (5) 
0.783577

>  <N_constrained_atoms>  (5) 
15.0

>  <N_unconstrained_atoms>  (5) 
3.0

>  <runtime>  (5) 
22.644285

>  <LE>  (5) 
0.342499

>  <percent_hybrid>  (5) 
29.0

>  <dist>  (5) 
7.0

>  <ecfp4>  (5) 
0.19403

>  <daylight>  (5) 
0.448276

>  <topodist>  (5) 
4.0

>  <mces>  (5) 
16.0

>  <tdn>  (5) 
1.0

>  <tup>  (5) 
1.0

>  <rdn>  (5) 
1.0

>  <rup>  (5) 
0.0

>  <ldn>  (5) 
0.0

>  <lup>  (5) 
1.0

>  <mut>  (5) 
2.0

>  <maj>  (5) 
2.0

>  <min>  (5) 
0.0

>  <hyb>  (5) 
1.0

>  <sub>  (5) 
2.0

>  <query_index>  (5) 
152.0

>  <max_hit_Tanimoto>  (5) 
0.496403

>  <largest_ring>  (5) 
6

>  <N_interactions_kept>  (5) 
3.5

>  <N_interactions_lost>  (5) 
0.5

>  <interaction_uniqueness_metric>  (5) 
0.225711

>  <ad_hoc_penalty>  (5) 
-45.494939

>  <N_rotatable_bonds>  (5) 
0

>  <N_HA>  (5) 
17

>  <cluster>  (5) 
6211

>  <N_interactions>  (5) 
6

>  <Enamine>  (5) 
1

>  <Mcule>  (5) 
0

>  <N_PAINS>  (5) 
0

>  <UFF_Gibbs>  (5) 
81.191063

>  <strain_per_HA>  (5) 
4.510615

>  <saltbridge:HIS:51>  (5) 
0

>  <pistack:HIS:51>  (5) 
0

>  <hydroph_interaction:HIS:51>  (5) 
0

>  <hbond:ALA:132>  (5) 
0

>  <hbond:SER:135>  (5) 
0

>  <hydroph_interaction:TYR:150>  (5) 
0

>  <pistack:TYR:161>  (5) 
0

>  <hydroph_interaction:TYR:161>  (5) 
3

>  <hydroph_interaction:ASP:83>  (5) 
0

>  <hbond:TYR:130>  (5) 
0

>  <hydroph_interaction:ALA:132>  (5) 
1

>  <hbond:HIS:51>  (5) 
0

>  <hbond:ASP:129>  (5) 
0

>  <hbond:TYR:150>  (5) 
0

>  <hbond:GLY:151>  (5) 
0

>  <hbond:TYR:161>  (5) 
0

>  <hydroph_interaction:TYR:130>  (5) 
0

>  <hydroph_interaction:PRO:131>  (5) 
0

>  <hydroph_interaction:ASP:129>  (5) 
0

>  <saltbridge:ASP:75>  (5) 
0

>  <saltbridge:ASP:83>  (5) 
0

>  <hydroph_interaction:ASN:152>  (5) 
0

>  <halogenbond:TYR:150>  (5) 
1

>  <hbond:ASP:83>  (5) 
0

>  <hydroph_interaction:VAL:155>  (5) 
1

>  <pication:TYR:161>  (5) 
0

>  <hbond:PRO:131>  (5) 
0

>  <hbond:LEU:128>  (5) 
0

>  <saltbridge:ASP:129>  (5) 
0

>  <hbond:THR:134>  (5) 
0

>  <pication:HIS:51>  (5) 
0

>  <hbond:SER:81>  (5) 
0

>  <hbond:GLY:159>  (5) 
0

>  <hydroph_interaction:PRO:101>  (5) 
0

>  <hydroph_interaction:THR:134>  (5) 
0

>  <hbond:GLY:82>  (5) 
0

>  <hydroph_interaction:GLU:104>  (5) 
0

>  <hydroph_interaction:VAL:36>  (5) 
0

>  <hydroph_interaction:MET:49>  (5) 
0

>  <halogenbond:GLU:104>  (5) 
0

>  <hydroph_interaction:LYS:107>  (5) 
0

$$$$
MQVIAKBTUWGTSH-UHFFFAOYSA-N
     RDKit          3D

 50 53  0  0  0  0  0  0  0  0999 V2000
   -9.2890    5.0665  -14.8429 C   0  0  0  0  0  0  0  0  0  0  0  0
   -9.4400    4.0468  -13.8438 N   0  0  0  0  0  0  0  0  0  0  0  0
  -10.5233    4.0661  -12.8650 C   0  0  0  0  0  0  0  0  0  0  0  0
  -10.1045    4.8524  -11.6603 C   0  0  0  0  0  0  0  0  0  0  0  0
   -9.2809    4.4451  -10.6296 C   0  0  0  0  0  0  0  0  0  0  0  0
   -9.1185    5.4768   -9.7801 N   0  0  0  0  0  0  0  0  0  0  0  0
   -8.2493    5.4732   -8.6023 C   0  0  0  0  0  0  0  0  0  0  0  0
   -7.9491    4.0321   -8.1522 C   0  0  0  0  0  0  0  0  0  0  0  0
   -7.5824    3.1457   -9.3558 C   0  0  0  0  0  0  0  0  0  0  0  0
   -8.7339    3.0716  -10.3677 C   0  0  0  0  0  0  0  0  0  0  0  0
   -9.7390    6.5493  -10.2509 N   0  0  0  0  0  0  0  0  0  0  0  0
  -10.3556    6.1900  -11.3995 C   0  0  0  0  0  0  0  0  0  0  0  0
  -10.2064    5.9132  -15.0283 O   0  0  0  0  0  0  0  0  0  0  0  0
   -8.0451    5.1502  -15.6386 C   0  0  0  0  0  0  0  0  0  0  0  0
   -8.0486    5.2722  -17.0514 C   0  0  0  0  0  0  0  0  0  0  0  0
   -6.8102    5.4449  -17.7177 C   0  0  0  0  0  0  0  0  0  0  0  0
   -6.7719    5.5811  -19.1112 C   0  0  0  0  0  0  0  0  0  0  0  0
   -7.9528    5.5263  -19.8574 C   0  0  0  0  0  0  0  0  0  0  0  0
   -9.1773    5.3275  -19.2167 C   0  0  0  0  0  0  0  0  0  0  0  0
   -9.2300    5.1986  -17.8236 C   0  0  0  0  0  0  0  0  0  0  0  0
  -10.3184    5.2520  -19.9485 F   0  0  0  0  0  0  0  0  0  0  0  0
   -5.6509    5.4699  -17.0092 N   0  0  0  0  0  0  0  0  0  0  0  0
   -5.6191    5.3180  -15.6567 C   0  0  0  0  0  0  0  0  0  0  0  0
   -4.2988    5.3865  -14.9232 C   0  0  0  0  0  0  0  0  0  0  0  0
   -3.7900    6.8298  -14.8867 C   0  0  0  0  0  0  0  0  0  0  0  0
   -3.2626    4.4592  -15.5678 C   0  0  0  0  0  0  0  0  0  0  0  0
   -6.8200    5.1609  -14.9522 C   0  0  0  0  0  0  0  0  0  0  0  0
   -8.6959    3.3197  -13.7431 H   0  0  0  0  0  0  0  0  0  0  0  0
  -11.4476    4.4993  -13.3065 H   0  0  0  0  0  0  0  0  0  0  0  0
  -10.7618    3.0252  -12.5582 H   0  0  0  0  0  0  0  0  0  0  0  0
   -7.2968    5.9890   -8.8573 H   0  0  0  0  0  0  0  0  0  0  0  0
   -8.7373    6.0286   -7.7728 H   0  0  0  0  0  0  0  0  0  0  0  0
   -8.8433    3.6071   -7.6422 H   0  0  0  0  0  0  0  0  0  0  0  0
   -7.1094    4.0403   -7.4227 H   0  0  0  0  0  0  0  0  0  0  0  0
   -7.3448    2.1226   -9.0033 H   0  0  0  0  0  0  0  0  0  0  0  0
   -6.6798    3.5547   -9.8514 H   0  0  0  0  0  0  0  0  0  0  0  0
   -8.3710    2.6150  -11.3116 H   0  0  0  0  0  0  0  0  0  0  0  0
   -9.5468    2.4373   -9.9580 H   0  0  0  0  0  0  0  0  0  0  0  0
  -10.9322    6.8663  -12.0174 H   0  0  0  0  0  0  0  0  0  0  0  0
   -5.8258    5.7216  -19.6194 H   0  0  0  0  0  0  0  0  0  0  0  0
   -7.9172    5.6274  -20.9357 H   0  0  0  0  0  0  0  0  0  0  0  0
  -10.1943    5.0232  -17.3660 H   0  0  0  0  0  0  0  0  0  0  0  0
   -4.4352    5.0453  -13.8754 H   0  0  0  0  0  0  0  0  0  0  0  0
   -2.8322    6.8881  -14.3238 H   0  0  0  0  0  0  0  0  0  0  0  0
   -4.5328    7.4801  -14.3785 H   0  0  0  0  0  0  0  0  0  0  0  0
   -3.6210    7.2137  -15.9144 H   0  0  0  0  0  0  0  0  0  0  0  0
   -2.3036    4.5055  -15.0038 H   0  0  0  0  0  0  0  0  0  0  0  0
   -3.6301    3.4092  -15.5465 H   0  0  0  0  0  0  0  0  0  0  0  0
   -3.0674    4.7495  -16.6235 H   0  0  0  0  0  0  0  0  0  0  0  0
   -6.8033    5.0822  -13.8705 H   0  0  0  0  0  0  0  0  0  0  0  0
  1  2  1  0
  2  3  1  0
  3  4  1  0
  4  5  2  0
  5  6  1  0
  6  7  1  0
  7  8  1  0
  8  9  1  0
  9 10  1  0
  6 11  1  0
 11 12  2  0
  1 13  2  0
  1 14  1  0
 14 15  1  0
 15 16  1  0
 16 17  2  0
 17 18  1  0
 18 19  2  0
 19 20  1  0
 19 21  1  0
 16 22  1  0
 22 23  2  0
 23 24  1  0
 24 25  1  0
 24 26  1  0
 23 27  1  0
 12  4  1  0
 10  5  1  0
 14 27  2  0
 20 15  2  0
  2 28  1  0
  3 29  1  0
  3 30  1  0
  7 31  1  0
  7 32  1  0
  8 33  1  0
  8 34  1  0
  9 35  1  0
  9 36  1  0
 10 37  1  0
 10 38  1  0
 12 39  1  0
 17 40  1  0
 18 41  1  0
 20 42  1  0
 24 43  1  0
 25 44  1  0
 25 45  1  0
 25 46  1  0
 26 47  1  0
 26 48  1  0
 26 49  1  0
 27 50  1  0
A    1
 C1 
A    2
 N1 
A    3
 C2 
A    4
 C3 
A    5
 C4 
A    6
 N2 
A    7
 C5 
A    8
 C6 
A    9
 C7 
A   10
 C8 
A   11
 N3 
A   12
 C9 
A   13
 O1 
A   14
 C10
A   15
 C11
A   16
 C12
A   17
 C13
A   18
 C14
A   19
 C15
A   20
 C16
A   21
 F1 
A   22
 N4 
A   23
 C17
A   24
 C18
A   25
 C19
A   26
 C20
A   27
 C21
A   28
 H1 
A   29
 H2 
A   30
 H3 
A   31
 H4 
A   32
 H5 
A   33
 H6 
A   34
 H7 
A   35
 H8 
A   36
 H9 
A   37
 H10
A   38
 H11
A   39
 H12
A   40
 H13
A   41
 H14
A   42
 H15
A   43
 H16
A   44
 H17
A   45
 H18
A   46
 H19
A   47
 H20
A   48
 H21
A   49
 H22
A   50
 H23
M  END
>  <ref_pdb>  (6) 
x0051_0B

>  <ref_mols>  (6) 
x0472_0B,x0969_1B

>  <original SMILES>  (6) 
[H]c1nn2c(c1C([H])([H])N([H])C(=O)c1c([H])c(C([H])(C([H])([H])[H])C([H])([H])[H])nc3c([H])c([H])c(F)c([H])c13)C([H])([H])C([H])([H])C([H])([H])C2([H])[H]

>  <index>  (6) 
10

>  <∆∆G>  (6) 
-8.737591

>  <∆G_bound>  (6) 
-8.282005

>  <∆G_unbound>  (6) 
0.455586

>  <comRMSD>  (6) 
0.860108

>  <N_constrained_atoms>  (6) 
20.0

>  <N_unconstrained_atoms>  (6) 
8.0

>  <runtime>  (6) 
57.077947

>  <LE>  (6) 
0.312057

>  <percent_hybrid>  (6) 
50.0

>  <dist>  (6) 
12.0

>  <ecfp4>  (6) 
0.196078

>  <daylight>  (6) 
0.277778

>  <topodist>  (6) 
4.0

>  <mces>  (6) 
27.0

>  <tdn>  (6) 
1.0

>  <tup>  (6) 
2.0

>  <rdn>  (6) 
0.0

>  <rup>  (6) 
0.0

>  <ldn>  (6) 
0.0

>  <lup>  (6) 
1.0

>  <mut>  (6) 
6.0

>  <maj>  (6) 
6.0

>  <min>  (6) 
0.0

>  <hyb>  (6) 
2.0

>  <sub>  (6) 
2.0

>  <query_index>  (6) 
24.0

>  <max_hit_Tanimoto>  (6) 
0.305042

>  <largest_ring>  (6) 
6

>  <N_interactions_kept>  (6) 
2.5

>  <N_interactions_lost>  (6) 
1.0

>  <interaction_uniqueness_metric>  (6) 
0.25908

>  <ad_hoc_penalty>  (6) 
-45.082625

>  <N_rotatable_bonds>  (6) 
6

>  <N_HA>  (6) 
27

>  <cluster>  (6) 
219

>  <N_interactions>  (6) 
9

>  <Enamine>  (6) 
0

>  <Mcule>  (6) 
1

>  <N_PAINS>  (6) 
0

>  <UFF_Gibbs>  (6) 
101.270064

>  <strain_per_HA>  (6) 
3.616788

>  <saltbridge:HIS:51>  (6) 
0

>  <pistack:HIS:51>  (6) 
1

>  <hydroph_interaction:HIS:51>  (6) 
0

>  <hbond:ALA:132>  (6) 
0

>  <hbond:SER:135>  (6) 
1

>  <hydroph_interaction:TYR:150>  (6) 
1

>  <pistack:TYR:161>  (6) 
2

>  <hydroph_interaction:TYR:161>  (6) 
1

>  <hydroph_interaction:ASP:83>  (6) 
1

>  <hbond:TYR:130>  (6) 
0

>  <hydroph_interaction:ALA:132>  (6) 
1

>  <hbond:HIS:51>  (6) 
0

>  <hbond:ASP:129>  (6) 
0

>  <hbond:TYR:150>  (6) 
0

>  <hbond:GLY:151>  (6) 
0

>  <hbond:TYR:161>  (6) 
0

>  <hydroph_interaction:TYR:130>  (6) 
0

>  <hydroph_interaction:PRO:131>  (6) 
0

>  <hydroph_interaction:ASP:129>  (6) 
0

>  <saltbridge:ASP:75>  (6) 
0

>  <saltbridge:ASP:83>  (6) 
0

>  <hydroph_interaction:ASN:152>  (6) 
0

>  <halogenbond:TYR:150>  (6) 
0

>  <hbond:ASP:83>  (6) 
0

>  <hydroph_interaction:VAL:155>  (6) 
1

>  <pication:TYR:161>  (6) 
0

>  <hbond:PRO:131>  (6) 
0

>  <hbond:LEU:128>  (6) 
0

>  <saltbridge:ASP:129>  (6) 
0

>  <hbond:THR:134>  (6) 
0

>  <pication:HIS:51>  (6) 
0

>  <hbond:SER:81>  (6) 
0

>  <hbond:GLY:159>  (6) 
0

>  <hydroph_interaction:PRO:101>  (6) 
0

>  <hydroph_interaction:THR:134>  (6) 
0

>  <hbond:GLY:82>  (6) 
0

>  <hydroph_interaction:GLU:104>  (6) 
0

>  <hydroph_interaction:VAL:36>  (6) 
0

>  <hydroph_interaction:MET:49>  (6) 
0

>  <halogenbond:GLU:104>  (6) 
0

>  <hydroph_interaction:LYS:107>  (6) 
0

$$$$
CSSS00121668744
     RDKit          3D

 43 46  0  0  0  0  0  0  0  0999 V2000
   -8.1696    2.9925  -12.7093 O   0  0  0  0  0  0  0  0  0  0  0  0
   -8.5154    4.2044  -12.6725 C   0  0  0  0  0  0  0  0  0  0  0  0
   -8.2778    5.0479  -13.8108 N   0  0  0  0  0  0  0  0  0  0  0  0
   -7.7095    4.5377  -15.0623 C   0  0  0  0  0  0  0  0  0  0  0  0
   -6.1760    4.6196  -14.9846 C   0  0  0  0  0  0  0  0  0  0  0  0
   -5.5485    4.3700  -16.3539 C   0  0  0  0  0  0  0  0  0  0  0  0
   -5.9691    5.4681  -17.3316 C   0  0  0  0  0  0  0  0  0  0  0  0
   -7.4640    5.6771  -17.3473 C   0  0  0  0  0  0  0  0  0  0  0  0
   -8.0421    6.3365  -18.4443 C   0  0  0  0  0  0  0  0  0  0  0  0
   -9.4168    6.5749  -18.4840 C   0  0  0  0  0  0  0  0  0  0  0  0
  -10.2286    6.1611  -17.4284 C   0  0  0  0  0  0  0  0  0  0  0  0
   -9.6673    5.5183  -16.3235 C   0  0  0  0  0  0  0  0  0  0  0  0
   -8.2791    5.2962  -16.2511 C   0  0  0  0  0  0  0  0  0  0  0  0
   -9.1759    4.7447  -11.4621 C   0  0  0  0  0  0  0  0  0  0  0  0
  -10.0244    5.8536  -11.5039 C   0  0  0  0  0  0  0  0  0  0  0  0
  -10.6292    6.1383   -9.9604 S   0  0  0  0  0  0  0  0  0  0  0  0
   -9.8395    4.8570   -9.2221 C   0  0  0  0  0  0  0  0  0  0  0  0
   -9.0538    4.1990  -10.1632 C   0  0  0  0  0  0  0  0  0  0  0  0
   -8.2279    2.9914   -9.7909 C   0  0  0  0  0  0  0  0  0  0  0  0
   -8.0030    2.8964   -8.2710 C   0  0  0  0  0  0  0  0  0  0  0  0
   -9.3077    3.1349   -7.4944 C   0  0  0  0  0  0  0  0  0  0  0  0
   -9.8546    4.5460   -7.7565 C   0  0  0  0  0  0  0  0  0  0  0  0
   -8.3636    6.0835  -13.6977 H   0  0  0  0  0  0  0  0  0  0  0  0
   -7.9969    3.4711  -15.1975 H   0  0  0  0  0  0  0  0  0  0  0  0
   -5.8645    5.6214  -14.6128 H   0  0  0  0  0  0  0  0  0  0  0  0
   -5.8021    3.8581  -14.2662 H   0  0  0  0  0  0  0  0  0  0  0  0
   -5.8658    3.3762  -16.7406 H   0  0  0  0  0  0  0  0  0  0  0  0
   -4.4412    4.3668  -16.2592 H   0  0  0  0  0  0  0  0  0  0  0  0
   -5.4796    6.4242  -17.0451 H   0  0  0  0  0  0  0  0  0  0  0  0
   -5.6133    5.1916  -18.3481 H   0  0  0  0  0  0  0  0  0  0  0  0
   -7.4259    6.6632  -19.2730 H   0  0  0  0  0  0  0  0  0  0  0  0
   -9.8541    7.0773  -19.3371 H   0  0  0  0  0  0  0  0  0  0  0  0
  -11.2961    6.3357  -17.4675 H   0  0  0  0  0  0  0  0  0  0  0  0
  -10.3182    5.1918  -15.5217 H   0  0  0  0  0  0  0  0  0  0  0  0
  -10.2840    6.4268  -12.3836 H   0  0  0  0  0  0  0  0  0  0  0  0
   -7.2369    3.0417  -10.2904 H   0  0  0  0  0  0  0  0  0  0  0  0
   -8.7562    2.0782  -10.1400 H   0  0  0  0  0  0  0  0  0  0  0  0
   -7.2457    3.6495   -7.9598 H   0  0  0  0  0  0  0  0  0  0  0  0
   -7.6041    1.8894   -8.0225 H   0  0  0  0  0  0  0  0  0  0  0  0
   -9.1193    3.0112   -6.4063 H   0  0  0  0  0  0  0  0  0  0  0  0
  -10.0641    2.3786   -7.7999 H   0  0  0  0  0  0  0  0  0  0  0  0
  -10.8925    4.6215   -7.3681 H   0  0  0  0  0  0  0  0  0  0  0  0
   -9.2240    5.2925   -7.2277 H   0  0  0  0  0  0  0  0  0  0  0  0
  1  2  2  0
  2  3  1  0
  3  4  1  0
  4  5  1  0
  5  6  1  0
  6  7  1  0
  7  8  1  0
  8  9  2  0
  9 10  1  0
 10 11  2  0
 11 12  1  0
 12 13  2  0
  2 14  1  0
 14 15  2  0
 15 16  1  0
 16 17  1  0
 17 18  2  0
 18 19  1  0
 19 20  1  0
 20 21  1  0
 21 22  1  0
 13  4  1  0
 13  8  1  0
 18 14  1  0
 22 17  1  0
  3 23  1  0
  4 24  1  0
  5 25  1  0
  5 26  1  0
  6 27  1  0
  6 28  1  0
  7 29  1  0
  7 30  1  0
  9 31  1  0
 10 32  1  0
 11 33  1  0
 12 34  1  0
 15 35  1  0
 19 36  1  0
 19 37  1  0
 20 38  1  0
 20 39  1  0
 21 40  1  0
 21 41  1  0
 22 42  1  0
 22 43  1  0
A    1
 O1 
A    2
 C1 
A    3
 N1 
A    4
 C2 
A    5
 C3 
A    6
 C4 
A    7
 C5 
A    8
 C6 
A    9
 C7 
A   10
 C8 
A   11
 C9 
A   12
 C10
A   13
 C11
A   14
 C12
A   15
 C13
A   16
 S1 
A   17
 C14
A   18
 C15
A   19
 C16
A   20
 C17
A   21
 C18
A   22
 C19
A   23
 H1 
A   24
 H2 
A   25
 H3 
A   26
 H4 
A   27
 H5 
A   28
 H6 
A   29
 H7 
A   30
 H8 
A   31
 H9 
A   32
 H10
A   33
 H11
A   34
 H12
A   35
 H13
A   36
 H14
A   37
 H15
A   38
 H16
A   39
 H17
A   40
 H18
A   41
 H19
A   42
 H20
A   43
 H21
M  END
>  <ref_pdb>  (7) 
x0051_0B

>  <ref_mols>  (7) 
x0969_1B,x0455_0B

>  <original SMILES>  (7) 
[H]c1sc2c(c1C(=O)N([H])C1([H])c3c([H])c([H])c([H])c([H])c3C([H])([H])C([H])([H])C1([H])[H])C([H])([H])C([H])([H])C([H])([H])C2([H])[H]

>  <index>  (7) 
9

>  <∆∆G>  (7) 
-7.367523

>  <∆G_bound>  (7) 
-6.817839

>  <∆G_unbound>  (7) 
0.549684

>  <comRMSD>  (7) 
0.58065

>  <N_constrained_atoms>  (7) 
20.0

>  <N_unconstrained_atoms>  (7) 
2.0

>  <runtime>  (7) 
65.87245

>  <LE>  (7) 
0.334887

>  <percent_hybrid>  (7) 
50.0

>  <dist>  (7) 
9.0

>  <ecfp4>  (7) 
0.111111

>  <daylight>  (7) 
0.186301

>  <topodist>  (7) 
2.0

>  <mces>  (7) 
24.0

>  <tdn>  (7) 
0.0

>  <tup>  (7) 
1.0

>  <rdn>  (7) 
0.0

>  <rup>  (7) 
0.0

>  <ldn>  (7) 
1.0

>  <lup>  (7) 
0.0

>  <mut>  (7) 
6.0

>  <maj>  (7) 
6.0

>  <min>  (7) 
0.0

>  <hyb>  (7) 
1.0

>  <sub>  (7) 
0.0

>  <query_index>  (7) 
204.0

>  <max_hit_Tanimoto>  (7) 
0.192168

>  <largest_ring>  (7) 
6

>  <N_interactions_kept>  (7) 
1.5

>  <N_interactions_lost>  (7) 
1.0

>  <interaction_uniqueness_metric>  (7) 
0.186645

>  <ad_hoc_penalty>  (7) 
-43.745764

>  <N_rotatable_bonds>  (7) 
2

>  <N_HA>  (7) 
22

>  <cluster>  (7) 
6207

>  <N_interactions>  (7) 
7

>  <Enamine>  (7) 
1

>  <Mcule>  (7) 
0

>  <N_PAINS>  (7) 
0

>  <UFF_Gibbs>  (7) 
94.201181

>  <strain_per_HA>  (7) 
4.281872

>  <saltbridge:HIS:51>  (7) 
0

>  <pistack:HIS:51>  (7) 
1

>  <hydroph_interaction:HIS:51>  (7) 
0

>  <hbond:ALA:132>  (7) 
0

>  <hbond:SER:135>  (7) 
0

>  <hydroph_interaction:TYR:150>  (7) 
1

>  <pistack:TYR:161>  (7) 
0

>  <hydroph_interaction:TYR:161>  (7) 
3

>  <hydroph_interaction:ASP:83>  (7) 
1

>  <hbond:TYR:130>  (7) 
0

>  <hydroph_interaction:ALA:132>  (7) 
0

>  <hbond:HIS:51>  (7) 
0

>  <hbond:ASP:129>  (7) 
0

>  <hbond:TYR:150>  (7) 
0

>  <hbond:GLY:151>  (7) 
0

>  <hbond:TYR:161>  (7) 
1

>  <hydroph_interaction:TYR:130>  (7) 
0

>  <hydroph_interaction:PRO:131>  (7) 
0

>  <hydroph_interaction:ASP:129>  (7) 
0

>  <saltbridge:ASP:75>  (7) 
0

>  <saltbridge:ASP:83>  (7) 
0

>  <hydroph_interaction:ASN:152>  (7) 
0

>  <halogenbond:TYR:150>  (7) 
0

>  <hbond:ASP:83>  (7) 
0

>  <hydroph_interaction:VAL:155>  (7) 
0

>  <pication:TYR:161>  (7) 
0

>  <hbond:PRO:131>  (7) 
0

>  <hbond:LEU:128>  (7) 
0

>  <saltbridge:ASP:129>  (7) 
0

>  <hbond:THR:134>  (7) 
0

>  <pication:HIS:51>  (7) 
0

>  <hbond:SER:81>  (7) 
0

>  <hbond:GLY:159>  (7) 
0

>  <hydroph_interaction:PRO:101>  (7) 
0

>  <hydroph_interaction:THR:134>  (7) 
0

>  <hbond:GLY:82>  (7) 
0

>  <hydroph_interaction:GLU:104>  (7) 
0

>  <hydroph_interaction:VAL:36>  (7) 
0

>  <hydroph_interaction:MET:49>  (7) 
0

>  <halogenbond:GLU:104>  (7) 
0

>  <hydroph_interaction:LYS:107>  (7) 
0

$$$$
PV-006278820633
     RDKit          3D

 53 56  0  0  0  0  0  0  0  0999 V2000
   -3.6122    3.8321  -14.4171 C   0  0  0  0  0  0  0  0  0  0  0  0
   -3.3007    5.2739  -14.8076 C   0  0  0  0  0  0  0  0  0  0  0  0
   -3.8619    5.6018  -16.1667 C   0  0  0  0  0  0  0  0  0  0  0  0
   -3.0471    5.7357  -17.1212 O   0  0  0  0  0  0  0  0  0  0  0  0
   -5.2840    5.7173  -16.4214 N   0  0  0  0  0  0  0  0  0  0  0  0
   -5.7399    5.8813  -17.8127 C   0  0  0  0  0  0  0  0  0  0  0  0
   -7.1975    5.5226  -18.0063 C   0  0  0  0  0  0  0  0  0  0  0  0
   -7.7323    5.5753  -19.3053 C   0  0  0  0  0  0  0  0  0  0  0  0
   -9.0649    5.2294  -19.5395 C   0  0  0  0  0  0  0  0  0  0  0  0
   -9.8756    4.8175  -18.4813 C   0  0  0  0  0  0  0  0  0  0  0  0
   -9.3609    4.7645  -17.1835 C   0  0  0  0  0  0  0  0  0  0  0  0
   -8.0286    5.1456  -16.9238 C   0  0  0  0  0  0  0  0  0  0  0  0
   -7.4592    5.0323  -15.5244 C   0  0  0  0  0  0  0  0  0  0  0  0
   -8.4699    5.3649  -14.5147 N   0  0  0  0  0  0  0  0  0  0  0  0
   -9.0302    4.3946  -13.6186 C   0  0  0  0  0  0  0  0  0  0  0  0
   -8.7006    3.1805  -13.7000 O   0  0  0  0  0  0  0  0  0  0  0  0
   -9.9894    4.8289  -12.5537 C   0  0  0  0  0  0  0  0  0  0  0  0
   -9.2362    5.3689  -11.3776 C   0  0  0  0  0  0  0  0  0  0  0  0
   -8.7388    4.6732  -10.2959 C   0  0  0  0  0  0  0  0  0  0  0  0
   -8.9423    3.2263   -9.9516 C   0  0  0  0  0  0  0  0  0  0  0  0
   -7.9659    2.7939   -8.8459 C   0  0  0  0  0  0  0  0  0  0  0  0
   -7.9066    3.8342   -7.7143 C   0  0  0  0  0  0  0  0  0  0  0  0
   -7.4205    5.1955   -8.2443 C   0  0  0  0  0  0  0  0  0  0  0  0
   -8.1124    5.5443   -9.4851 N   0  0  0  0  0  0  0  0  0  0  0  0
   -8.1347    6.7568  -10.0187 N   0  0  0  0  0  0  0  0  0  0  0  0
   -8.8163    6.6753  -11.1806 C   0  0  0  0  0  0  0  0  0  0  0  0
   -6.2568    5.9634  -15.3499 C   0  0  0  0  0  0  0  0  0  0  0  0
   -3.1510    3.1319  -15.1465 H   0  0  0  0  0  0  0  0  0  0  0  0
   -3.1949    3.6209  -13.4090 H   0  0  0  0  0  0  0  0  0  0  0  0
   -4.7082    3.6552  -14.3886 H   0  0  0  0  0  0  0  0  0  0  0  0
   -2.1955    5.3990  -14.8237 H   0  0  0  0  0  0  0  0  0  0  0  0
   -3.6812    5.9798  -14.0407 H   0  0  0  0  0  0  0  0  0  0  0  0
   -5.1412    5.2242  -18.4807 H   0  0  0  0  0  0  0  0  0  0  0  0
   -5.5785    6.9379  -18.1229 H   0  0  0  0  0  0  0  0  0  0  0  0
   -7.1110    5.8783  -20.1406 H   0  0  0  0  0  0  0  0  0  0  0  0
   -9.4662    5.2700  -20.5447 H   0  0  0  0  0  0  0  0  0  0  0  0
  -10.9039    4.5328  -18.6681 H   0  0  0  0  0  0  0  0  0  0  0  0
  -10.0058    4.4230  -16.3834 H   0  0  0  0  0  0  0  0  0  0  0  0
   -7.1034    3.9867  -15.3897 H   0  0  0  0  0  0  0  0  0  0  0  0
   -8.8155    6.3507  -14.4630 H   0  0  0  0  0  0  0  0  0  0  0  0
  -10.6661    5.6118  -12.9576 H   0  0  0  0  0  0  0  0  0  0  0  0
  -10.6213    3.9696  -12.2376 H   0  0  0  0  0  0  0  0  0  0  0  0
   -8.7853    2.5953  -10.8519 H   0  0  0  0  0  0  0  0  0  0  0  0
   -9.9876    3.0878   -9.5993 H   0  0  0  0  0  0  0  0  0  0  0  0
   -6.9490    2.6630   -9.2794 H   0  0  0  0  0  0  0  0  0  0  0  0
   -8.2908    1.8136   -8.4326 H   0  0  0  0  0  0  0  0  0  0  0  0
   -7.2156    3.4792   -6.9190 H   0  0  0  0  0  0  0  0  0  0  0  0
   -8.9202    3.9488   -7.2658 H   0  0  0  0  0  0  0  0  0  0  0  0
   -6.3249    5.1480   -8.4407 H   0  0  0  0  0  0  0  0  0  0  0  0
   -7.6076    5.9795   -7.4787 H   0  0  0  0  0  0  0  0  0  0  0  0
   -8.9972    7.5118  -11.8434 H   0  0  0  0  0  0  0  0  0  0  0  0
   -6.5824    7.0267  -15.3965 H   0  0  0  0  0  0  0  0  0  0  0  0
   -5.8345    5.7907  -14.3415 H   0  0  0  0  0  0  0  0  0  0  0  0
  1  2  1  0
  2  3  1  0
  3  4  2  0
  3  5  1  0
  5  6  1  0
  6  7  1  0
  7  8  2  0
  8  9  1  0
  9 10  2  0
 10 11  1  0
 11 12  2  0
 12 13  1  0
 13 14  1  0
 14 15  1  0
 15 16  2  0
 15 17  1  0
 17 18  1  0
 18 19  2  0
 19 20  1  0
 20 21  1  0
 21 22  1  0
 22 23  1  0
 23 24  1  0
 24 25  1  0
 25 26  2  0
 13 27  1  0
 27  5  1  0
 12  7  1  0
 26 18  1  0
 24 19  1  0
  1 28  1  0
  1 29  1  0
  1 30  1  0
  2 31  1  0
  2 32  1  0
  6 33  1  0
  6 34  1  0
  8 35  1  0
  9 36  1  0
 10 37  1  0
 11 38  1  0
 13 39  1  0
 14 40  1  0
 17 41  1  0
 17 42  1  0
 20 43  1  0
 20 44  1  0
 21 45  1  0
 21 46  1  0
 22 47  1  0
 22 48  1  0
 23 49  1  0
 23 50  1  0
 26 51  1  0
 27 52  1  0
 27 53  1  0
A    1
 C1 
A    2
 C2 
A    3
 C3 
A    4
 O1 
A    5
 N1 
A    6
 C4 
A    7
 C5 
A    8
 C6 
A    9
 C7 
A   10
 C8 
A   11
 C9 
A   12
 C10
A   13
 C11
A   14
 N2 
A   15
 C12
A   16
 O2 
A   17
 C13
A   18
 C14
A   19
 C15
A   20
 C16
A   21
 C17
A   22
 C18
A   23
 C19
A   24
 N3 
A   25
 N4 
A   26
 C20
A   27
 C21
A   28
 H1 
A   29
 H2 
A   30
 H3 
A   31
 H4 
A   32
 H5 
A   33
 H6 
A   34
 H7 
A   35
 H8 
A   36
 H9 
A   37
 H10
A   38
 H11
A   39
 H12
A   40
 H13
A   41
 H14
A   42
 H15
A   43
 H16
A   44
 H17
A   45
 H18
A   46
 H19
A   47
 H20
A   48
 H21
A   49
 H22
A   50
 H23
A   51
 H24
A   52
 H25
A   53
 H26
M  END
>  <ref_pdb>  (8) 
x0051_0B

>  <ref_mols>  (8) 
x0472_0B,x0969_1B

>  <original SMILES>  (8) 
[H]c1nn2c(c1C([H])([H])C(=O)N([H])C1([H])c3c([H])c([H])c([H])c([H])c3C([H])([H])N(C(=O)C([H])([H])C([H])([H])[H])C1([H])[H])C([H])([H])C([H])([H])C([H])([H])C2([H])[H]

>  <index>  (8) 
15

>  <∆∆G>  (8) 
-9.743874

>  <∆G_bound>  (8) 
-8.5687

>  <∆G_unbound>  (8) 
1.175174

>  <comRMSD>  (8) 
0.437445

>  <N_constrained_atoms>  (8) 
23.0

>  <N_unconstrained_atoms>  (8) 
4.0

>  <runtime>  (8) 
58.316122

>  <LE>  (8) 
0.360884

>  <percent_hybrid>  (8) 
44.0

>  <dist>  (8) 
9.0

>  <ecfp4>  (8) 
0.19

>  <daylight>  (8) 
0.326648

>  <topodist>  (8) 
2.0

>  <mces>  (8) 
28.0

>  <tdn>  (8) 
0.0

>  <tup>  (8) 
1.0

>  <rdn>  (8) 
0.0

>  <rup>  (8) 
0.0

>  <ldn>  (8) 
0.0

>  <lup>  (8) 
1.0

>  <mut>  (8) 
5.0

>  <maj>  (8) 
5.0

>  <min>  (8) 
0.0

>  <hyb>  (8) 
2.0

>  <sub>  (8) 
0.0

>  <query_index>  (8) 
24.0

>  <max_hit_Tanimoto>  (8) 
0.307823

>  <largest_ring>  (8) 
6

>  <N_interactions_kept>  (8) 
2.5

>  <N_interactions_lost>  (8) 
1.0

>  <interaction_uniqueness_metric>  (8) 
0.187687

>  <ad_hoc_penalty>  (8) 
-43.709784

>  <N_rotatable_bonds>  (8) 
5

>  <N_HA>  (8) 
27

>  <cluster>  (8) 
6202

>  <N_interactions>  (8) 
7

>  <Enamine>  (8) 
1

>  <Mcule>  (8) 
0

>  <N_PAINS>  (8) 
0

>  <UFF_Gibbs>  (8) 
58.951797

>  <strain_per_HA>  (8) 
2.1834

>  <saltbridge:HIS:51>  (8) 
0

>  <pistack:HIS:51>  (8) 
1

>  <hydroph_interaction:HIS:51>  (8) 
0

>  <hbond:ALA:132>  (8) 
0

>  <hbond:SER:135>  (8) 
0

>  <hydroph_interaction:TYR:150>  (8) 
1

>  <pistack:TYR:161>  (8) 
1

>  <hydroph_interaction:TYR:161>  (8) 
2

>  <hydroph_interaction:ASP:83>  (8) 
1

>  <hbond:TYR:130>  (8) 
0

>  <hydroph_interaction:ALA:132>  (8) 
0

>  <hbond:HIS:51>  (8) 
0

>  <hbond:ASP:129>  (8) 
0

>  <hbond:TYR:150>  (8) 
0

>  <hbond:GLY:151>  (8) 
0

>  <hbond:TYR:161>  (8) 
0

>  <hydroph_interaction:TYR:130>  (8) 
0

>  <hydroph_interaction:PRO:131>  (8) 
0

>  <hydroph_interaction:ASP:129>  (8) 
0

>  <saltbridge:ASP:75>  (8) 
0

>  <saltbridge:ASP:83>  (8) 
0

>  <hydroph_interaction:ASN:152>  (8) 
0

>  <halogenbond:TYR:150>  (8) 
0

>  <hbond:ASP:83>  (8) 
0

>  <hydroph_interaction:VAL:155>  (8) 
1

>  <pication:TYR:161>  (8) 
0

>  <hbond:PRO:131>  (8) 
0

>  <hbond:LEU:128>  (8) 
0

>  <saltbridge:ASP:129>  (8) 
0

>  <hbond:THR:134>  (8) 
0

>  <pication:HIS:51>  (8) 
0

>  <hbond:SER:81>  (8) 
0

>  <hbond:GLY:159>  (8) 
0

>  <hydroph_interaction:PRO:101>  (8) 
0

>  <hydroph_interaction:THR:134>  (8) 
0

>  <hbond:GLY:82>  (8) 
0

>  <hydroph_interaction:GLU:104>  (8) 
0

>  <hydroph_interaction:VAL:36>  (8) 
0

>  <hydroph_interaction:MET:49>  (8) 
0

>  <halogenbond:GLU:104>  (8) 
0

>  <hydroph_interaction:LYS:107>  (8) 
0

$$$$
ZYDBTWJECBIDRL-UHFFFAOYSA-N
     RDKit          3D

 46 49  0  0  0  0  0  0  0  0999 V2000
   -9.0169    6.8819  -12.7868 N   0  0  0  0  0  0  0  0  0  0  0  0
   -9.4930    7.1720  -14.1492 C   0  0  0  0  0  0  0  0  0  0  0  0
   -8.4367    6.8703  -15.2041 C   0  0  0  0  0  0  0  0  0  0  0  0
   -8.3993    5.6718  -15.9787 C   0  0  0  0  0  0  0  0  0  0  0  0
   -9.3774    4.6623  -15.8463 C   0  0  0  0  0  0  0  0  0  0  0  0
   -9.3149    3.5000  -16.6096 C   0  0  0  0  0  0  0  0  0  0  0  0
   -8.2873    3.3121  -17.5259 C   0  0  0  0  0  0  0  0  0  0  0  0
   -7.2954    4.2868  -17.6978 C   0  0  0  0  0  0  0  0  0  0  0  0
   -6.2038    4.0319  -18.7081 C   0  0  0  0  0  0  0  0  0  0  0  0
   -7.3411    5.4759  -16.9196 C   0  0  0  0  0  0  0  0  0  0  0  0
   -6.3531    6.4717  -17.0579 C   0  0  0  0  0  0  0  0  0  0  0  0
   -6.3994    7.6315  -16.2935 C   0  0  0  0  0  0  0  0  0  0  0  0
   -7.4244    7.8281  -15.3767 C   0  0  0  0  0  0  0  0  0  0  0  0
   -8.9069    5.4389  -12.5378 C   0  0  0  0  0  0  0  0  0  0  0  0
   -8.6523    5.1649  -11.0833 C   0  0  0  0  0  0  0  0  0  0  0  0
   -8.9748    4.0204  -10.3819 C   0  0  0  0  0  0  0  0  0  0  0  0
   -8.5204    4.1480   -9.1224 N   0  0  0  0  0  0  0  0  0  0  0  0
   -8.6054    3.1208   -8.0859 C   0  0  0  0  0  0  0  0  0  0  0  0
   -9.7006    2.0968   -8.4251 C   0  0  0  0  0  0  0  0  0  0  0  0
   -9.5987    1.6540   -9.8940 C   0  0  0  0  0  0  0  0  0  0  0  0
   -9.7762    2.8425  -10.8527 C   0  0  0  0  0  0  0  0  0  0  0  0
   -7.8660    5.2909   -8.9927 N   0  0  0  0  0  0  0  0  0  0  0  0
   -7.9306    5.9325  -10.1787 C   0  0  0  0  0  0  0  0  0  0  0  0
   -8.0747    7.3217  -12.6603 H   0  0  0  0  0  0  0  0  0  0  0  0
   -9.7373    8.2556  -14.1987 H   0  0  0  0  0  0  0  0  0  0  0  0
  -10.4657    6.6797  -14.3414 H   0  0  0  0  0  0  0  0  0  0  0  0
  -10.2007    4.7396  -15.1568 H   0  0  0  0  0  0  0  0  0  0  0  0
  -10.0726    2.7361  -16.4893 H   0  0  0  0  0  0  0  0  0  0  0  0
   -8.2689    2.3970  -18.1054 H   0  0  0  0  0  0  0  0  0  0  0  0
   -5.2178    4.0036  -18.1976 H   0  0  0  0  0  0  0  0  0  0  0  0
   -6.3436    3.0628  -19.2333 H   0  0  0  0  0  0  0  0  0  0  0  0
   -6.2049    4.8349  -19.4754 H   0  0  0  0  0  0  0  0  0  0  0  0
   -5.5338    6.3656  -17.7559 H   0  0  0  0  0  0  0  0  0  0  0  0
   -5.6315    8.3848  -16.4114 H   0  0  0  0  0  0  0  0  0  0  0  0
   -7.4280    8.7399  -14.7915 H   0  0  0  0  0  0  0  0  0  0  0  0
   -9.8560    4.9351  -12.8197 H   0  0  0  0  0  0  0  0  0  0  0  0
   -8.0739    5.0033  -13.1311 H   0  0  0  0  0  0  0  0  0  0  0  0
   -7.6255    2.6025   -8.0110 H   0  0  0  0  0  0  0  0  0  0  0  0
   -8.8297    3.5943   -7.1059 H   0  0  0  0  0  0  0  0  0  0  0  0
  -10.7003    2.5493   -8.2448 H   0  0  0  0  0  0  0  0  0  0  0  0
   -9.5972    1.2125   -7.7605 H   0  0  0  0  0  0  0  0  0  0  0  0
   -8.6063    1.1820  -10.0681 H   0  0  0  0  0  0  0  0  0  0  0  0
  -10.3797    0.8927  -10.1060 H   0  0  0  0  0  0  0  0  0  0  0  0
  -10.8483    3.1331  -10.8896 H   0  0  0  0  0  0  0  0  0  0  0  0
   -9.4522    2.5466  -11.8732 H   0  0  0  0  0  0  0  0  0  0  0  0
   -7.4699    6.8921  -10.3703 H   0  0  0  0  0  0  0  0  0  0  0  0
  1  2  1  0
  2  3  1  0
  3  4  1  0
  4  5  2  0
  5  6  1  0
  6  7  2  0
  7  8  1  0
  8  9  1  0
  8 10  2  0
 10 11  1  0
 11 12  2  0
 12 13  1  0
  1 14  1  0
 14 15  1  0
 15 16  2  0
 16 17  1  0
 17 18  1  0
 18 19  1  0
 19 20  1  0
 20 21  1  0
 17 22  1  0
 22 23  2  0
 13  3  2  0
 10  4  1  0
 23 15  1  0
 21 16  1  0
  1 24  1  0
  2 25  1  0
  2 26  1  0
  5 27  1  0
  6 28  1  0
  7 29  1  0
  9 30  1  0
  9 31  1  0
  9 32  1  0
 11 33  1  0
 12 34  1  0
 13 35  1  0
 14 36  1  0
 14 37  1  0
 18 38  1  0
 18 39  1  0
 19 40  1  0
 19 41  1  0
 20 42  1  0
 20 43  1  0
 21 44  1  0
 21 45  1  0
 23 46  1  0
A    1
 N1 
A    2
 C1 
A    3
 C2 
A    4
 C3 
A    5
 C4 
A    6
 C5 
A    7
 C6 
A    8
 C7 
A    9
 C8 
A   10
 C9 
A   11
 C10
A   12
 C11
A   13
 C12
A   14
 C13
A   15
 C14
A   16
 C15
A   17
 N2 
A   18
 C16
A   19
 C17
A   20
 C18
A   21
 C19
A   22
 N3 
A   23
 C20
A   24
 H1 
A   25
 H2 
A   26
 H3 
A   27
 H4 
A   28
 H5 
A   29
 H6 
A   30
 H7 
A   31
 H8 
A   32
 H9 
A   33
 H10
A   34
 H11
A   35
 H12
A   36
 H13
A   37
 H14
A   38
 H15
A   39
 H16
A   40
 H17
A   41
 H18
A   42
 H19
A   43
 H20
A   44
 H21
A   45
 H22
A   46
 H23
M  END
>  <ref_pdb>  (9) 
x0051_0B

>  <ref_mols>  (9) 
x0969_1B,x0455_0B

>  <original SMILES>  (9) 
[H]c1nn2c(c1C([H])([H])N([H])C([H])([H])c1c([H])c([H])c([H])c3c(C([H])([H])[H])c([H])c([H])c([H])c13)C([H])([H])C([H])([H])C([H])([H])C2([H])[H]

>  <index>  (9) 
13

>  <∆∆G>  (9) 
-9.962425

>  <∆G_bound>  (9) 
-9.672322

>  <∆G_unbound>  (9) 
0.290103

>  <comRMSD>  (9) 
0.383143

>  <N_constrained_atoms>  (9) 
20.0

>  <N_unconstrained_atoms>  (9) 
3.0

>  <runtime>  (9) 
60.71496

>  <LE>  (9) 
0.433149

>  <percent_hybrid>  (9) 
50.0

>  <dist>  (9) 
8.0

>  <ecfp4>  (9) 
0.2625

>  <daylight>  (9) 
0.26935

>  <topodist>  (9) 
1.0

>  <mces>  (9) 
25.0

>  <tdn>  (9) 
0.0

>  <tup>  (9) 
1.0

>  <rdn>  (9) 
0.0

>  <rup>  (9) 
0.0

>  <ldn>  (9) 
0.0

>  <lup>  (9) 
0.0

>  <mut>  (9) 
4.0

>  <maj>  (9) 
4.0

>  <min>  (9) 
0.0

>  <hyb>  (9) 
3.0

>  <sub>  (9) 
1.0

>  <query_index>  (9) 
204.0

>  <max_hit_Tanimoto>  (9) 
0.371692

>  <largest_ring>  (9) 
6

>  <N_interactions_kept>  (9) 
1.0

>  <N_interactions_lost>  (9) 
1.5

>  <interaction_uniqueness_metric>  (9) 
0.265586

>  <ad_hoc_penalty>  (9) 
-43.099162

>  <N_rotatable_bonds>  (9) 
5

>  <N_HA>  (9) 
23

>  <cluster>  (9) 
6204

>  <N_interactions>  (9) 
8

>  <Enamine>  (9) 
0

>  <Mcule>  (9) 
1

>  <N_PAINS>  (9) 
0

>  <UFF_Gibbs>  (9) 
114.344926

>  <strain_per_HA>  (9) 
4.971519

>  <saltbridge:HIS:51>  (9) 
0

>  <pistack:HIS:51>  (9) 
1

>  <hydroph_interaction:HIS:51>  (9) 
1

>  <hbond:ALA:132>  (9) 
0

>  <hbond:SER:135>  (9) 
0

>  <hydroph_interaction:TYR:150>  (9) 
1

>  <pistack:TYR:161>  (9) 
1

>  <hydroph_interaction:TYR:161>  (9) 
2

>  <hydroph_interaction:ASP:83>  (9) 
1

>  <hbond:TYR:130>  (9) 
0

>  <hydroph_interaction:ALA:132>  (9) 
0

>  <hbond:HIS:51>  (9) 
1

>  <hbond:ASP:129>  (9) 
0

>  <hbond:TYR:150>  (9) 
0

>  <hbond:GLY:151>  (9) 
0

>  <hbond:TYR:161>  (9) 
0

>  <hydroph_interaction:TYR:130>  (9) 
0

>  <hydroph_interaction:PRO:131>  (9) 
0

>  <hydroph_interaction:ASP:129>  (9) 
0

>  <saltbridge:ASP:75>  (9) 
0

>  <saltbridge:ASP:83>  (9) 
0

>  <hydroph_interaction:ASN:152>  (9) 
0

>  <halogenbond:TYR:150>  (9) 
0

>  <hbond:ASP:83>  (9) 
0

>  <hydroph_interaction:VAL:155>  (9) 
0

>  <pication:TYR:161>  (9) 
0

>  <hbond:PRO:131>  (9) 
0

>  <hbond:LEU:128>  (9) 
0

>  <saltbridge:ASP:129>  (9) 
0

>  <hbond:THR:134>  (9) 
0

>  <pication:HIS:51>  (9) 
0

>  <hbond:SER:81>  (9) 
0

>  <hbond:GLY:159>  (9) 
0

>  <hydroph_interaction:PRO:101>  (9) 
0

>  <hydroph_interaction:THR:134>  (9) 
0

>  <hbond:GLY:82>  (9) 
0

>  <hydroph_interaction:GLU:104>  (9) 
0

>  <hydroph_interaction:VAL:36>  (9) 
0

>  <hydroph_interaction:MET:49>  (9) 
0

>  <halogenbond:GLU:104>  (9) 
0

>  <hydroph_interaction:LYS:107>  (9) 
0

$$$$
PV-006102668715
     RDKit          3D

 53 56  0  0  0  0  0  0  0  0999 V2000
   -4.0138    2.5486  -14.9603 C   0  0  0  0  0  0  0  0  0  0  0  0
   -3.6905    4.0296  -15.1401 C   0  0  0  0  0  0  0  0  0  0  0  0
   -4.4443    4.6008  -16.3124 C   0  0  0  0  0  0  0  0  0  0  0  0
   -4.0005    4.3715  -17.4712 O   0  0  0  0  0  0  0  0  0  0  0  0
   -5.6495    5.3860  -16.1504 N   0  0  0  0  0  0  0  0  0  0  0  0
   -6.0994    6.2404  -17.2545 C   0  0  0  0  0  0  0  0  0  0  0  0
   -7.1360    5.5264  -18.0720 C   0  0  0  0  0  0  0  0  0  0  0  0
   -7.3009    5.6625  -19.4351 C   0  0  0  0  0  0  0  0  0  0  0  0
   -8.4054    4.8886  -19.7293 C   0  0  0  0  0  0  0  0  0  0  0  0
   -8.8824    4.3316  -18.5987 N   0  0  0  0  0  0  0  0  0  0  0  0
   -8.1252    4.7371  -17.5899 N   0  0  0  0  0  0  0  0  0  0  0  0
   -8.3270    4.2612  -16.2154 C   0  0  0  0  0  0  0  0  0  0  0  0
   -7.9573    5.3255  -15.1651 C   0  0  0  0  0  0  0  0  0  0  0  0
   -8.6554    5.0386  -13.9080 N   0  0  0  0  0  0  0  0  0  0  0  0
   -9.8449    5.7299  -13.5002 C   0  0  0  0  0  0  0  0  0  0  0  0
  -10.3588    6.6116  -14.2402 O   0  0  0  0  0  0  0  0  0  0  0  0
  -10.4640    5.4340  -12.1691 C   0  0  0  0  0  0  0  0  0  0  0  0
   -9.6134    6.0016  -11.0723 C   0  0  0  0  0  0  0  0  0  0  0  0
   -8.7848    5.3307  -10.1943 C   0  0  0  0  0  0  0  0  0  0  0  0
   -8.6147    3.8488  -10.0272 C   0  0  0  0  0  0  0  0  0  0  0  0
   -7.3802    3.5408   -9.1641 C   0  0  0  0  0  0  0  0  0  0  0  0
   -7.3106    4.4566   -7.9310 C   0  0  0  0  0  0  0  0  0  0  0  0
   -7.2182    5.9327   -8.3506 C   0  0  0  0  0  0  0  0  0  0  0  0
   -8.2064    6.2351   -9.3836 N   0  0  0  0  0  0  0  0  0  0  0  0
   -8.5809    7.4575   -9.7292 N   0  0  0  0  0  0  0  0  0  0  0  0
   -9.4474    7.3406  -10.7571 C   0  0  0  0  0  0  0  0  0  0  0  0
   -6.4345    5.3575  -14.9033 C   0  0  0  0  0  0  0  0  0  0  0  0
   -3.5351    2.1708  -14.0328 H   0  0  0  0  0  0  0  0  0  0  0  0
   -5.1105    2.3871  -14.8874 H   0  0  0  0  0  0  0  0  0  0  0  0
   -3.6239    1.9680  -15.8226 H   0  0  0  0  0  0  0  0  0  0  0  0
   -2.5992    4.1399  -15.3203 H   0  0  0  0  0  0  0  0  0  0  0  0
   -3.9149    4.5875  -14.2075 H   0  0  0  0  0  0  0  0  0  0  0  0
   -5.2398    6.5320  -17.9007 H   0  0  0  0  0  0  0  0  0  0  0  0
   -6.5300    7.1849  -16.8584 H   0  0  0  0  0  0  0  0  0  0  0  0
   -6.7024    6.2473  -20.1216 H   0  0  0  0  0  0  0  0  0  0  0  0
   -8.8360    4.7398  -20.7091 H   0  0  0  0  0  0  0  0  0  0  0  0
   -7.7349    3.3333  -16.0550 H   0  0  0  0  0  0  0  0  0  0  0  0
   -9.3987    3.9922  -16.0907 H   0  0  0  0  0  0  0  0  0  0  0  0
   -8.2737    6.3245  -15.5370 H   0  0  0  0  0  0  0  0  0  0  0  0
   -8.3416    4.2205  -13.3385 H   0  0  0  0  0  0  0  0  0  0  0  0
  -11.4796    5.8823  -12.1122 H   0  0  0  0  0  0  0  0  0  0  0  0
  -10.5743    4.3354  -12.0482 H   0  0  0  0  0  0  0  0  0  0  0  0
   -8.5013    3.3630  -11.0191 H   0  0  0  0  0  0  0  0  0  0  0  0
   -9.5235    3.4400   -9.5351 H   0  0  0  0  0  0  0  0  0  0  0  0
   -7.4193    2.4794   -8.8357 H   0  0  0  0  0  0  0  0  0  0  0  0
   -6.4591    3.6752   -9.7715 H   0  0  0  0  0  0  0  0  0  0  0  0
   -6.4225    4.1912   -7.3196 H   0  0  0  0  0  0  0  0  0  0  0  0
   -8.2170    4.3049   -7.3064 H   0  0  0  0  0  0  0  0  0  0  0  0
   -6.2028    6.1417   -8.7500 H   0  0  0  0  0  0  0  0  0  0  0  0
   -7.3899    6.5815   -7.4652 H   0  0  0  0  0  0  0  0  0  0  0  0
   -9.9239    8.1777  -11.2512 H   0  0  0  0  0  0  0  0  0  0  0  0
   -6.1849    6.2565  -14.2980 H   0  0  0  0  0  0  0  0  0  0  0  0
   -6.1762    4.4614  -14.3026 H   0  0  0  0  0  0  0  0  0  0  0  0
  1  2  1  0
  2  3  1  0
  3  4  2  0
  3  5  1  0
  5  6  1  0
  6  7  1  0
  7  8  2  0
  8  9  1  0
  9 10  2  0
 10 11  1  0
 11 12  1  0
 12 13  1  0
 13 14  1  0
 14 15  1  0
 15 16  2  0
 15 17  1  0
 17 18  1  0
 18 19  2  0
 19 20  1  0
 20 21  1  0
 21 22  1  0
 22 23  1  0
 23 24  1  0
 24 25  1  0
 25 26  2  0
 13 27  1  0
 27  5  1  0
 11  7  1  0
 26 18  1  0
 24 19  1  0
  1 28  1  0
  1 29  1  0
  1 30  1  0
  2 31  1  0
  2 32  1  0
  6 33  1  0
  6 34  1  0
  8 35  1  0
  9 36  1  0
 12 37  1  0
 12 38  1  0
 13 39  1  0
 14 40  1  0
 17 41  1  0
 17 42  1  0
 20 43  1  0
 20 44  1  0
 21 45  1  0
 21 46  1  0
 22 47  1  0
 22 48  1  0
 23 49  1  0
 23 50  1  0
 26 51  1  0
 27 52  1  0
 27 53  1  0
A    1
 C1 
A    2
 C2 
A    3
 C3 
A    4
 O1 
A    5
 N1 
A    6
 C4 
A    7
 C5 
A    8
 C6 
A    9
 C7 
A   10
 N2 
A   11
 N3 
A   12
 C8 
A   13
 C9 
A   14
 N4 
A   15
 C10
A   16
 O2 
A   17
 C11
A   18
 C12
A   19
 C13
A   20
 C14
A   21
 C15
A   22
 C16
A   23
 C17
A   24
 N5 
A   25
 N6 
A   26
 C18
A   27
 C19
A   28
 H1 
A   29
 H2 
A   30
 H3 
A   31
 H4 
A   32
 H5 
A   33
 H6 
A   34
 H7 
A   35
 H8 
A   36
 H9 
A   37
 H10
A   38
 H11
A   39
 H12
A   40
 H13
A   41
 H14
A   42
 H15
A   43
 H16
A   44
 H17
A   45
 H18
A   46
 H19
A   47
 H20
A   48
 H21
A   49
 H22
A   50
 H23
A   51
 H24
A   52
 H25
A   53
 H26
M  END
>  <ref_pdb>  (10) 
x0051_0B

>  <ref_mols>  (10) 
x0472_0B,x0969_1B

>  <original SMILES>  (10) 
[H]c1nn2c(c1[H])C([H])([H])N(C(=O)C([H])([H])C([H])([H])[H])C([H])([H])C([H])(N([H])C(=O)C([H])([H])c1c([H])nn3c1C([H])([H])C([H])([H])C([H])([H])C3([H])[H])C2([H])[H]

>  <index>  (10) 
8

>  <∆∆G>  (10) 
-8.845118

>  <∆G_bound>  (10) 
-7.368018

>  <∆G_unbound>  (10) 
1.477099

>  <comRMSD>  (10) 
0.435515

>  <N_constrained_atoms>  (10) 
23.0

>  <N_unconstrained_atoms>  (10) 
4.0

>  <runtime>  (10) 
64.657212

>  <LE>  (10) 
0.327597

>  <percent_hybrid>  (10) 
44.0

>  <dist>  (10) 
10.0

>  <ecfp4>  (10) 
0.206186

>  <daylight>  (10) 
0.372973

>  <topodist>  (10) 
2.0

>  <mces>  (10) 
28.0

>  <tdn>  (10) 
0.0

>  <tup>  (10) 
1.0

>  <rdn>  (10) 
0.0

>  <rup>  (10) 
0.0

>  <ldn>  (10) 
0.0

>  <lup>  (10) 
1.0

>  <mut>  (10) 
6.0

>  <maj>  (10) 
6.0

>  <min>  (10) 
0.0

>  <hyb>  (10) 
2.0

>  <sub>  (10) 
0.0

>  <query_index>  (10) 
24.0

>  <max_hit_Tanimoto>  (10) 
0.377953

>  <largest_ring>  (10) 
7

>  <N_interactions_kept>  (10) 
3.5

>  <N_interactions_lost>  (10) 
0.0

>  <interaction_uniqueness_metric>  (10) 
0.16207

>  <ad_hoc_penalty>  (10) 
-42.295612

>  <N_rotatable_bonds>  (10) 
5

>  <N_HA>  (10) 
27

>  <cluster>  (10) 
6208

>  <N_interactions>  (10) 
6

>  <Enamine>  (10) 
1

>  <Mcule>  (10) 
0

>  <N_PAINS>  (10) 
0

>  <UFF_Gibbs>  (10) 
147.395457

>  <strain_per_HA>  (10) 
5.459091

>  <saltbridge:HIS:51>  (10) 
0

>  <pistack:HIS:51>  (10) 
1

>  <hydroph_interaction:HIS:51>  (10) 
0

>  <hbond:ALA:132>  (10) 
0

>  <hbond:SER:135>  (10) 
0

>  <hydroph_interaction:TYR:150>  (10) 
0

>  <pistack:TYR:161>  (10) 
0

>  <hydroph_interaction:TYR:161>  (10) 
3

>  <hydroph_interaction:ASP:83>  (10) 
1

>  <hbond:TYR:130>  (10) 
0

>  <hydroph_interaction:ALA:132>  (10) 
0

>  <hbond:HIS:51>  (10) 
0

>  <hbond:ASP:129>  (10) 
0

>  <hbond:TYR:150>  (10) 
0

>  <hbond:GLY:151>  (10) 
0

>  <hbond:TYR:161>  (10) 
0

>  <hydroph_interaction:TYR:130>  (10) 
0

>  <hydroph_interaction:PRO:131>  (10) 
0

>  <hydroph_interaction:ASP:129>  (10) 
0

>  <saltbridge:ASP:75>  (10) 
0

>  <saltbridge:ASP:83>  (10) 
0

>  <hydroph_interaction:ASN:152>  (10) 
0

>  <halogenbond:TYR:150>  (10) 
0

>  <hbond:ASP:83>  (10) 
0

>  <hydroph_interaction:VAL:155>  (10) 
1

>  <pication:TYR:161>  (10) 
0

>  <hbond:PRO:131>  (10) 
0

>  <hbond:LEU:128>  (10) 
0

>  <saltbridge:ASP:129>  (10) 
0

>  <hbond:THR:134>  (10) 
0

>  <pication:HIS:51>  (10) 
0

>  <hbond:SER:81>  (10) 
0

>  <hbond:GLY:159>  (10) 
0

>  <hydroph_interaction:PRO:101>  (10) 
0

>  <hydroph_interaction:THR:134>  (10) 
0

>  <hbond:GLY:82>  (10) 
0

>  <hydroph_interaction:GLU:104>  (10) 
0

>  <hydroph_interaction:VAL:36>  (10) 
0

>  <hydroph_interaction:MET:49>  (10) 
0

>  <halogenbond:GLU:104>  (10) 
0

>  <hydroph_interaction:LYS:107>  (10) 
0

$$$$
Z4349352112
     RDKit          3D

 45 48  0  0  0  0  0  0  0  0999 V2000
   -9.2257    3.9719  -16.9685 C   0  0  0  0  0  0  0  0  0  0  0  0
   -9.0612    5.3012  -16.3046 C   0  0  0  0  0  0  0  0  0  0  0  0
   -9.9276    5.7738  -15.3873 N   0  0  0  0  0  0  0  0  0  0  0  0
   -9.4717    6.9457  -14.9753 N   0  0  0  0  0  0  0  0  0  0  0  0
  -10.0872    7.7240  -13.9063 C   0  0  0  0  0  0  0  0  0  0  0  0
   -9.5037    7.3238  -12.5896 C   0  0  0  0  0  0  0  0  0  0  0  0
   -8.9996    8.2018  -11.8397 O   0  0  0  0  0  0  0  0  0  0  0  0
   -9.5192    5.9709  -12.2280 O   0  0  0  0  0  0  0  0  0  0  0  0
   -9.0324    5.4292  -11.0311 C   0  0  0  0  0  0  0  0  0  0  0  0
   -8.9450    4.0872  -10.7482 C   0  0  0  0  0  0  0  0  0  0  0  0
   -9.3963    2.9369  -11.5958 C   0  0  0  0  0  0  0  0  0  0  0  0
   -8.7989    1.6224  -11.0696 C   0  0  0  0  0  0  0  0  0  0  0  0
   -8.9250    1.5209   -9.5397 C   0  0  0  0  0  0  0  0  0  0  0  0
   -8.1757    2.6723   -8.8476 C   0  0  0  0  0  0  0  0  0  0  0  0
   -8.4743    3.9469   -9.4976 N   0  0  0  0  0  0  0  0  0  0  0  0
   -8.2182    5.1365   -8.9751 N   0  0  0  0  0  0  0  0  0  0  0  0
   -8.5591    6.0687   -9.8921 C   0  0  0  0  0  0  0  0  0  0  0  0
   -8.3123    7.2361  -15.5946 C   0  0  0  0  0  0  0  0  0  0  0  0
   -8.0217    6.2107  -16.4748 C   0  0  0  0  0  0  0  0  0  0  0  0
   -6.8277    6.1135  -17.3450 C   0  0  0  0  0  0  0  0  0  0  0  0
   -5.5921    6.6163  -16.9001 C   0  0  0  0  0  0  0  0  0  0  0  0
   -4.4599    6.5362  -17.7165 C   0  0  0  0  0  0  0  0  0  0  0  0
   -4.5515    5.9629  -18.9863 C   0  0  0  0  0  0  0  0  0  0  0  0
   -5.7773    5.4751  -19.4448 C   0  0  0  0  0  0  0  0  0  0  0  0
   -6.9122    5.5529  -18.6319 C   0  0  0  0  0  0  0  0  0  0  0  0
   -9.8675    3.3153  -16.3434 H   0  0  0  0  0  0  0  0  0  0  0  0
   -9.7109    4.1050  -17.9571 H   0  0  0  0  0  0  0  0  0  0  0  0
   -8.2391    3.4792  -17.0955 H   0  0  0  0  0  0  0  0  0  0  0  0
  -11.1821    7.5368  -13.8895 H   0  0  0  0  0  0  0  0  0  0  0  0
   -9.9265    8.8089  -14.0898 H   0  0  0  0  0  0  0  0  0  0  0  0
   -9.0820    3.0962  -12.6495 H   0  0  0  0  0  0  0  0  0  0  0  0
  -10.5054    2.8812  -11.5604 H   0  0  0  0  0  0  0  0  0  0  0  0
   -9.3261    0.7660  -11.5418 H   0  0  0  0  0  0  0  0  0  0  0  0
   -7.7261    1.5621  -11.3558 H   0  0  0  0  0  0  0  0  0  0  0  0
   -9.9997    1.5557   -9.2558 H   0  0  0  0  0  0  0  0  0  0  0  0
   -8.5091    0.5501   -9.1943 H   0  0  0  0  0  0  0  0  0  0  0  0
   -8.4717    2.7183   -7.7778 H   0  0  0  0  0  0  0  0  0  0  0  0
   -7.0811    2.4873   -8.9028 H   0  0  0  0  0  0  0  0  0  0  0  0
   -8.4729    7.1310   -9.7193 H   0  0  0  0  0  0  0  0  0  0  0  0
   -7.7206    8.1242  -15.4130 H   0  0  0  0  0  0  0  0  0  0  0  0
   -5.4986    7.0570  -15.9154 H   0  0  0  0  0  0  0  0  0  0  0  0
   -3.5112    6.9203  -17.3644 H   0  0  0  0  0  0  0  0  0  0  0  0
   -3.6749    5.9040  -19.6185 H   0  0  0  0  0  0  0  0  0  0  0  0
   -5.8509    5.0455  -20.4355 H   0  0  0  0  0  0  0  0  0  0  0  0
   -7.8570    5.2012  -19.0227 H   0  0  0  0  0  0  0  0  0  0  0  0
  1  2  1  0
  2  3  2  0
  3  4  1  0
  4  5  1  0
  5  6  1  0
  6  7  2  0
  6  8  1  0
  8  9  1  0
  9 10  2  0
 10 11  1  0
 11 12  1  0
 12 13  1  0
 13 14  1  0
 14 15  1  0
 15 16  1  0
 16 17  2  0
  4 18  1  0
 18 19  2  0
 19 20  1  0
 20 21  2  0
 21 22  1  0
 22 23  2  0
 23 24  1  0
 24 25  2  0
 19  2  1  0
 17  9  1  0
 15 10  1  0
 25 20  1  0
  1 26  1  0
  1 27  1  0
  1 28  1  0
  5 29  1  0
  5 30  1  0
 11 31  1  0
 11 32  1  0
 12 33  1  0
 12 34  1  0
 13 35  1  0
 13 36  1  0
 14 37  1  0
 14 38  1  0
 17 39  1  0
 18 40  1  0
 21 41  1  0
 22 42  1  0
 23 43  1  0
 24 44  1  0
 25 45  1  0
A    1
 C1 
A    2
 C2 
A    3
 N1 
A    4
 N2 
A    5
 C3 
A    6
 C4 
A    7
 O1 
A    8
 O2 
A    9
 C5 
A   10
 C6 
A   11
 C7 
A   12
 C8 
A   13
 C9 
A   14
 C10
A   15
 N3 
A   16
 N4 
A   17
 C11
A   18
 C12
A   19
 C13
A   20
 C14
A   21
 C15
A   22
 C16
A   23
 C17
A   24
 C18
A   25
 C19
A   26
 H1 
A   27
 H2 
A   28
 H3 
A   29
 H4 
A   30
 H5 
A   31
 H6 
A   32
 H7 
A   33
 H8 
A   34
 H9 
A   35
 H10
A   36
 H11
A   37
 H12
A   38
 H13
A   39
 H14
A   40
 H15
A   41
 H16
A   42
 H17
A   43
 H18
A   44
 H19
A   45
 H20
M  END
>  <ref_pdb>  (11) 
x0051_0B

>  <ref_mols>  (11) 
x0969_1B,x0803_0B

>  <original SMILES>  (11) 
[H]c1nn2c(c1OC(=O)C([H])([H])n1nc(C([H])([H])[H])c(-c3c([H])c([H])c([H])c([H])c3[H])c1[H])C([H])([H])C([H])([H])C([H])([H])C2([H])[H]

>  <index>  (11) 
25

>  <∆∆G>  (11) 
-8.608371

>  <∆G_bound>  (11) 
-8.043291

>  <∆G_unbound>  (11) 
0.565081

>  <comRMSD>  (11) 
0.482132

>  <N_constrained_atoms>  (11) 
22.0

>  <N_unconstrained_atoms>  (11) 
3.0

>  <runtime>  (11) 
66.044672

>  <LE>  (11) 
0.344335

>  <percent_hybrid>  (11) 
46.0

>  <dist>  (11) 
10.0

>  <ecfp4>  (11) 
0.26506

>  <daylight>  (11) 
0.245014

>  <topodist>  (11) 
1.0

>  <mces>  (11) 
27.0

>  <tdn>  (11) 
0.0

>  <tup>  (11) 
1.0

>  <rdn>  (11) 
0.0

>  <rup>  (11) 
0.0

>  <ldn>  (11) 
0.0

>  <lup>  (11) 
0.0

>  <mut>  (11) 
4.0

>  <maj>  (11) 
4.0

>  <min>  (11) 
0.0

>  <hyb>  (11) 
5.0

>  <sub>  (11) 
0.0

>  <query_index>  (11) 
360.0

>  <max_hit_Tanimoto>  (11) 
0.265039

>  <largest_ring>  (11) 
6

>  <N_interactions_kept>  (11) 
5.0

>  <N_interactions_lost>  (11) 
1.0

>  <interaction_uniqueness_metric>  (11) 
0.232813

>  <ad_hoc_penalty>  (11) 
-41.39526

>  <N_rotatable_bonds>  (11) 
5

>  <N_HA>  (11) 
25

>  <cluster>  (11) 
6193

>  <N_interactions>  (11) 
7

>  <Enamine>  (11) 
1

>  <Mcule>  (11) 
0

>  <N_PAINS>  (11) 
0

>  <UFF_Gibbs>  (11) 
56.278974

>  <strain_per_HA>  (11) 
2.251159

>  <saltbridge:HIS:51>  (11) 
1

>  <pistack:HIS:51>  (11) 
1

>  <hydroph_interaction:HIS:51>  (11) 
0

>  <hbond:ALA:132>  (11) 
0

>  <hbond:SER:135>  (11) 
0

>  <hydroph_interaction:TYR:150>  (11) 
1

>  <pistack:TYR:161>  (11) 
0

>  <hydroph_interaction:TYR:161>  (11) 
3

>  <hydroph_interaction:ASP:83>  (11) 
1

>  <hbond:TYR:130>  (11) 
0

>  <hydroph_interaction:ALA:132>  (11) 
0

>  <hbond:HIS:51>  (11) 
0

>  <hbond:ASP:129>  (11) 
0

>  <hbond:TYR:150>  (11) 
0

>  <hbond:GLY:151>  (11) 
0

>  <hbond:TYR:161>  (11) 
0

>  <hydroph_interaction:TYR:130>  (11) 
0

>  <hydroph_interaction:PRO:131>  (11) 
0

>  <hydroph_interaction:ASP:129>  (11) 
0

>  <saltbridge:ASP:75>  (11) 
0

>  <saltbridge:ASP:83>  (11) 
0

>  <hydroph_interaction:ASN:152>  (11) 
0

>  <halogenbond:TYR:150>  (11) 
0

>  <hbond:ASP:83>  (11) 
0

>  <hydroph_interaction:VAL:155>  (11) 
0

>  <pication:TYR:161>  (11) 
0

>  <hbond:PRO:131>  (11) 
0

>  <hbond:LEU:128>  (11) 
0

>  <saltbridge:ASP:129>  (11) 
0

>  <hbond:THR:134>  (11) 
0

>  <pication:HIS:51>  (11) 
0

>  <hbond:SER:81>  (11) 
0

>  <hbond:GLY:159>  (11) 
0

>  <hydroph_interaction:PRO:101>  (11) 
0

>  <hydroph_interaction:THR:134>  (11) 
0

>  <hbond:GLY:82>  (11) 
0

>  <hydroph_interaction:GLU:104>  (11) 
0

>  <hydroph_interaction:VAL:36>  (11) 
0

>  <hydroph_interaction:MET:49>  (11) 
0

>  <halogenbond:GLU:104>  (11) 
0

>  <hydroph_interaction:LYS:107>  (11) 
0

$$$$
Z4349353620
     RDKit          3D

 48 51  0  0  0  0  0  0  0  0999 V2000
   -8.8726    3.6231  -18.0151 C   0  0  0  0  0  0  0  0  0  0  0  0
   -8.1072    4.3762  -16.9719 C   0  0  0  0  0  0  0  0  0  0  0  0
   -8.3427    4.3268  -15.6130 C   0  0  0  0  0  0  0  0  0  0  0  0
   -7.4122    5.1979  -15.0782 C   0  0  0  0  0  0  0  0  0  0  0  0
   -7.2528    5.5182  -13.6564 C   0  0  0  0  0  0  0  0  0  0  0  0
   -6.3550    6.3278  -13.3016 O   0  0  0  0  0  0  0  0  0  0  0  0
   -8.0825    4.8936  -12.7165 O   0  0  0  0  0  0  0  0  0  0  0  0
   -8.1459    5.1998  -11.3505 C   0  0  0  0  0  0  0  0  0  0  0  0
   -8.8271    4.4738  -10.4028 C   0  0  0  0  0  0  0  0  0  0  0  0
   -9.6836    3.2620  -10.6110 C   0  0  0  0  0  0  0  0  0  0  0  0
   -9.9711    2.5763   -9.2655 C   0  0  0  0  0  0  0  0  0  0  0  0
  -10.3690    3.5994   -8.1874 C   0  0  0  0  0  0  0  0  0  0  0  0
   -9.2386    4.6152   -7.9494 C   0  0  0  0  0  0  0  0  0  0  0  0
   -8.7075    5.1028   -9.2210 N   0  0  0  0  0  0  0  0  0  0  0  0
   -7.9500    6.1807   -9.3567 N   0  0  0  0  0  0  0  0  0  0  0  0
   -7.5965    6.2712  -10.6576 C   0  0  0  0  0  0  0  0  0  0  0  0
   -6.6635    5.7365  -16.0607 N   0  0  0  0  0  0  0  0  0  0  0  0
   -7.0790    5.2216  -17.2090 N   0  0  0  0  0  0  0  0  0  0  0  0
   -6.5505    5.6218  -18.5190 C   0  0  0  0  0  0  0  0  0  0  0  0
   -7.1386    6.9840  -18.9247 C   0  0  0  0  0  0  0  0  0  0  0  0
   -6.5779    7.4443  -20.2764 C   0  0  0  0  0  0  0  0  0  0  0  0
   -5.0450    7.4948  -20.2498 C   0  0  0  0  0  0  0  0  0  0  0  0
   -4.4551    6.1381  -19.8441 C   0  0  0  0  0  0  0  0  0  0  0  0
   -5.0110    5.6809  -18.4895 C   0  0  0  0  0  0  0  0  0  0  0  0
   -8.1982    2.9045  -18.5252 H   0  0  0  0  0  0  0  0  0  0  0  0
   -9.2883    4.3334  -18.7597 H   0  0  0  0  0  0  0  0  0  0  0  0
   -9.7111    3.0607  -17.5527 H   0  0  0  0  0  0  0  0  0  0  0  0
   -9.0931    3.7490  -15.0888 H   0  0  0  0  0  0  0  0  0  0  0  0
  -10.6407    3.5776  -11.0789 H   0  0  0  0  0  0  0  0  0  0  0  0
   -9.1724    2.5491  -11.2928 H   0  0  0  0  0  0  0  0  0  0  0  0
   -9.0663    2.0226   -8.9307 H   0  0  0  0  0  0  0  0  0  0  0  0
  -10.7923    1.8395   -9.3976 H   0  0  0  0  0  0  0  0  0  0  0  0
  -10.5954    3.0700   -7.2370 H   0  0  0  0  0  0  0  0  0  0  0  0
  -11.2876    4.1366   -8.5105 H   0  0  0  0  0  0  0  0  0  0  0  0
   -8.4182    4.1287   -7.3791 H   0  0  0  0  0  0  0  0  0  0  0  0
   -9.6256    5.4684   -7.3521 H   0  0  0  0  0  0  0  0  0  0  0  0
   -7.0002    7.0776  -11.0581 H   0  0  0  0  0  0  0  0  0  0  0  0
   -6.8434    4.8684  -19.2838 H   0  0  0  0  0  0  0  0  0  0  0  0
   -6.9032    7.7452  -18.1481 H   0  0  0  0  0  0  0  0  0  0  0  0
   -8.2445    6.9015  -18.9998 H   0  0  0  0  0  0  0  0  0  0  0  0
   -6.9148    6.7491  -21.0767 H   0  0  0  0  0  0  0  0  0  0  0  0
   -6.9740    8.4553  -20.5126 H   0  0  0  0  0  0  0  0  0  0  0  0
   -4.6697    7.7708  -21.2587 H   0  0  0  0  0  0  0  0  0  0  0  0
   -4.7097    8.2771  -19.5337 H   0  0  0  0  0  0  0  0  0  0  0  0
   -3.3493    6.2245  -19.7766 H   0  0  0  0  0  0  0  0  0  0  0  0
   -4.6925    5.3792  -20.6218 H   0  0  0  0  0  0  0  0  0  0  0  0
   -4.6072    4.6731  -18.2511 H   0  0  0  0  0  0  0  0  0  0  0  0
   -4.6673    6.3854  -17.7001 H   0  0  0  0  0  0  0  0  0  0  0  0
  1  2  1  0
  2  3  2  0
  3  4  1  0
  4  5  1  0
  5  6  2  0
  5  7  1  0
  7  8  1  0
  8  9  2  0
  9 10  1  0
 10 11  1  0
 11 12  1  0
 12 13  1  0
 13 14  1  0
 14 15  1  0
 15 16  2  0
  4 17  2  0
 17 18  1  0
 18 19  1  0
 19 20  1  0
 20 21  1  0
 21 22  1  0
 22 23  1  0
 23 24  1  0
 18  2  1  0
 16  8  1  0
 14  9  1  0
 24 19  1  0
  1 25  1  0
  1 26  1  0
  1 27  1  0
  3 28  1  0
 10 29  1  0
 10 30  1  0
 11 31  1  0
 11 32  1  0
 12 33  1  0
 12 34  1  0
 13 35  1  0
 13 36  1  0
 16 37  1  0
 19 38  1  0
 20 39  1  0
 20 40  1  0
 21 41  1  0
 21 42  1  0
 22 43  1  0
 22 44  1  0
 23 45  1  0
 23 46  1  0
 24 47  1  0
 24 48  1  0
A    1
 C1 
A    2
 C2 
A    3
 C3 
A    4
 C4 
A    5
 C5 
A    6
 O1 
A    7
 O2 
A    8
 C6 
A    9
 C7 
A   10
 C8 
A   11
 C9 
A   12
 C10
A   13
 C11
A   14
 N1 
A   15
 N2 
A   16
 C12
A   17
 N3 
A   18
 N4 
A   19
 C13
A   20
 C14
A   21
 C15
A   22
 C16
A   23
 C17
A   24
 C18
A   25
 H1 
A   26
 H2 
A   27
 H3 
A   28
 H4 
A   29
 H5 
A   30
 H6 
A   31
 H7 
A   32
 H8 
A   33
 H9 
A   34
 H10
A   35
 H11
A   36
 H12
A   37
 H13
A   38
 H14
A   39
 H15
A   40
 H16
A   41
 H17
A   42
 H18
A   43
 H19
A   44
 H20
A   45
 H21
A   46
 H22
A   47
 H23
A   48
 H24
M  END
>  <ref_pdb>  (12) 
x0051_0B

>  <ref_mols>  (12) 
x0969_1B,x0917_0B

>  <original SMILES>  (12) 
[H]c1nn2c(c1OC(=O)c1nn(C3([H])C([H])([H])C([H])([H])C([H])([H])C([H])([H])C3([H])[H])c(C([H])([H])[H])c1[H])C([H])([H])C([H])([H])C([H])([H])C2([H])[H]

>  <index>  (12) 
11

>  <∆∆G>  (12) 
-6.879139

>  <∆G_bound>  (12) 
-5.73057

>  <∆G_unbound>  (12) 
1.148568

>  <comRMSD>  (12) 
0.613583

>  <N_constrained_atoms>  (12) 
24.0

>  <N_unconstrained_atoms>  (12) 
0.0

>  <runtime>  (12) 
54.409879

>  <LE>  (12) 
0.286631

>  <percent_hybrid>  (12) 
40.0

>  <dist>  (12) 
8.0

>  <ecfp4>  (12) 
0.177778

>  <daylight>  (12) 
0.218085

>  <topodist>  (12) 
1.0

>  <mces>  (12) 
27.0

>  <tdn>  (12) 
1.0

>  <tup>  (12) 
0.0

>  <rdn>  (12) 
0.0

>  <rup>  (12) 
0.0

>  <ldn>  (12) 
0.0

>  <lup>  (12) 
0.0

>  <mut>  (12) 
6.0

>  <maj>  (12) 
6.0

>  <min>  (12) 
0.0

>  <hyb>  (12) 
1.0

>  <sub>  (12) 
0.0

>  <query_index>  (12) 
70.0

>  <max_hit_Tanimoto>  (12) 
0.259707

>  <largest_ring>  (12) 
6

>  <N_interactions_kept>  (12) 
3.0

>  <N_interactions_lost>  (12) 
1.0

>  <interaction_uniqueness_metric>  (12) 
0.207918

>  <ad_hoc_penalty>  (12) 
-41.314873

>  <N_rotatable_bonds>  (12) 
4

>  <N_HA>  (12) 
24

>  <cluster>  (12) 
6206

>  <N_interactions>  (12) 
8

>  <Enamine>  (12) 
1

>  <Mcule>  (12) 
0

>  <N_PAINS>  (12) 
0

>  <UFF_Gibbs>  (12) 
156.974533

>  <strain_per_HA>  (12) 
6.540606

>  <saltbridge:HIS:51>  (12) 
1

>  <pistack:HIS:51>  (12) 
1

>  <hydroph_interaction:HIS:51>  (12) 
1

>  <hbond:ALA:132>  (12) 
0

>  <hbond:SER:135>  (12) 
0

>  <hydroph_interaction:TYR:150>  (12) 
1

>  <pistack:TYR:161>  (12) 
0

>  <hydroph_interaction:TYR:161>  (12) 
3

>  <hydroph_interaction:ASP:83>  (12) 
0

>  <hbond:TYR:130>  (12) 
0

>  <hydroph_interaction:ALA:132>  (12) 
1

>  <hbond:HIS:51>  (12) 
0

>  <hbond:ASP:129>  (12) 
0

>  <hbond:TYR:150>  (12) 
0

>  <hbond:GLY:151>  (12) 
0

>  <hbond:TYR:161>  (12) 
0

>  <hydroph_interaction:TYR:130>  (12) 
0

>  <hydroph_interaction:PRO:131>  (12) 
0

>  <hydroph_interaction:ASP:129>  (12) 
0

>  <saltbridge:ASP:75>  (12) 
0

>  <saltbridge:ASP:83>  (12) 
0

>  <hydroph_interaction:ASN:152>  (12) 
0

>  <halogenbond:TYR:150>  (12) 
0

>  <hbond:ASP:83>  (12) 
0

>  <hydroph_interaction:VAL:155>  (12) 
0

>  <pication:TYR:161>  (12) 
0

>  <hbond:PRO:131>  (12) 
0

>  <hbond:LEU:128>  (12) 
0

>  <saltbridge:ASP:129>  (12) 
0

>  <hbond:THR:134>  (12) 
0

>  <pication:HIS:51>  (12) 
0

>  <hbond:SER:81>  (12) 
0

>  <hbond:GLY:159>  (12) 
0

>  <hydroph_interaction:PRO:101>  (12) 
0

>  <hydroph_interaction:THR:134>  (12) 
0

>  <hbond:GLY:82>  (12) 
0

>  <hydroph_interaction:GLU:104>  (12) 
0

>  <hydroph_interaction:VAL:36>  (12) 
0

>  <hydroph_interaction:MET:49>  (12) 
0

>  <halogenbond:GLU:104>  (12) 
0

>  <hydroph_interaction:LYS:107>  (12) 
0

$$$$
BKWOTTUWGUNTRM-UHFFFAOYSA-N
     RDKit          3D

 30 31  0  0  0  0  0  0  0  0999 V2000
   -5.6114    5.6804  -16.9225 N   0  0  0  0  0  0  0  0  0  0  0  0
   -4.3131    5.5804  -17.6065 C   0  0  0  0  0  0  0  0  0  0  0  0
   -3.8563    4.1239  -17.7317 C   0  0  0  0  0  0  0  0  0  0  0  0
   -4.3306    6.3079  -18.9543 C   0  0  0  0  0  0  0  0  0  0  0  0
   -5.7730    6.3821  -15.6470 C   0  0  0  0  0  0  0  0  0  0  0  0
   -7.2723    6.2542  -15.2632 C   0  0  0  0  0  0  0  0  0  0  0  0
   -7.4651    5.5064  -13.9403 C   0  0  0  0  0  0  0  0  0  0  0  0
   -7.8524    5.4915  -16.4082 C   0  0  0  0  0  0  0  0  0  0  0  0
   -6.8833    5.1789  -17.3281 C   0  0  0  0  0  0  0  0  0  0  0  0
   -7.2040    4.4693  -18.4948 C   0  0  0  0  0  0  0  0  0  0  0  0
   -8.5390    4.0903  -18.7066 C   0  0  0  0  0  0  0  0  0  0  0  0
   -9.5296    4.4238  -17.7665 C   0  0  0  0  0  0  0  0  0  0  0  0
   -9.1889    5.1343  -16.6069 C   0  0  0  0  0  0  0  0  0  0  0  0
   -3.5498    6.0964  -16.9813 H   0  0  0  0  0  0  0  0  0  0  0  0
   -2.8102    4.0884  -18.1040 H   0  0  0  0  0  0  0  0  0  0  0  0
   -4.4912    3.5479  -18.4314 H   0  0  0  0  0  0  0  0  0  0  0  0
   -3.8882    3.6338  -16.7355 H   0  0  0  0  0  0  0  0  0  0  0  0
   -3.3008    6.3578  -19.3679 H   0  0  0  0  0  0  0  0  0  0  0  0
   -4.7006    7.3460  -18.8157 H   0  0  0  0  0  0  0  0  0  0  0  0
   -4.9746    5.7969  -19.6948 H   0  0  0  0  0  0  0  0  0  0  0  0
   -5.1031    5.9280  -14.8839 H   0  0  0  0  0  0  0  0  0  0  0  0
   -5.5016    7.4525  -15.7749 H   0  0  0  0  0  0  0  0  0  0  0  0
   -7.7447    7.2592  -15.2035 H   0  0  0  0  0  0  0  0  0  0  0  0
   -8.5466    5.4228  -13.7022 H   0  0  0  0  0  0  0  0  0  0  0  0
   -7.0286    4.4856  -13.9979 H   0  0  0  0  0  0  0  0  0  0  0  0
   -6.9702    6.0643  -13.1173 H   0  0  0  0  0  0  0  0  0  0  0  0
   -6.4646    4.2079  -19.2327 H   0  0  0  0  0  0  0  0  0  0  0  0
   -8.8081    3.5425  -19.6004 H   0  0  0  0  0  0  0  0  0  0  0  0
  -10.5577    4.1333  -17.9390 H   0  0  0  0  0  0  0  0  0  0  0  0
   -9.9476    5.3992  -15.8820 H   0  0  0  0  0  0  0  0  0  0  0  0
  1  2  1  0
  2  3  1  0
  2  4  1  0
  1  5  1  0
  5  6  1  0
  6  7  1  0
  6  8  1  0
  8  9  2  0
  9 10  1  0
 10 11  2  0
 11 12  1  0
 12 13  2  0
  9  1  1  0
 13  8  1  0
  2 14  1  0
  3 15  1  0
  3 16  1  0
  3 17  1  0
  4 18  1  0
  4 19  1  0
  4 20  1  0
  5 21  1  0
  5 22  1  0
  6 23  1  0
  7 24  1  0
  7 25  1  0
  7 26  1  0
 10 27  1  0
 11 28  1  0
 12 29  1  0
 13 30  1  0
A    1
 N1 
A    2
 C1 
A    3
 C2 
A    4
 C3 
A    5
 C4 
A    6
 C5 
A    7
 C6 
A    8
 C7 
A    9
 C8 
A   10
 C9 
A   11
 C10
A   12
 C11
A   13
 C12
A   14
 H1 
A   15
 H2 
A   16
 H3 
A   17
 H4 
A   18
 H5 
A   19
 H6 
A   20
 H7 
A   21
 H8 
A   22
 H9 
A   23
 H10
A   24
 H11
A   25
 H12
A   26
 H13
A   27
 H14
A   28
 H15
A   29
 H16
A   30
 H17
M  END
>  <ref_pdb>  (13) 
x0051_0B

>  <ref_mols>  (13) 
x0951_0B,x0472_0B

>  <original SMILES>  (13) 
[H]c1c([H])c([H])c2c(c1[H])N(C([H])(C([H])([H])[H])C([H])([H])[H])C([H])([H])C2([H])C([H])([H])[H]

>  <index>  (13) 
12

>  <∆∆G>  (13) 
-7.96965

>  <∆G_bound>  (13) 
-8.379453

>  <∆G_unbound>  (13) 
-0.409803

>  <comRMSD>  (13) 
0.905391

>  <N_constrained_atoms>  (13) 
16.0

>  <N_unconstrained_atoms>  (13) 
1.0

>  <runtime>  (13) 
20.69987

>  <LE>  (13) 
0.468803

>  <percent_hybrid>  (13) 
34.0

>  <dist>  (13) 
5.0

>  <ecfp4>  (13) 
0.226415

>  <daylight>  (13) 
0.157895

>  <topodist>  (13) 
3.0

>  <mces>  (13) 
14.0

>  <tdn>  (13) 
3.0

>  <tup>  (13) 
0.0

>  <rdn>  (13) 
0.0

>  <rup>  (13) 
0.0

>  <ldn>  (13) 
0.0

>  <lup>  (13) 
0.0

>  <mut>  (13) 
1.0

>  <maj>  (13) 
1.0

>  <min>  (13) 
0.0

>  <hyb>  (13) 
1.0

>  <sub>  (13) 
2.0

>  <query_index>  (13) 
55.0

>  <max_hit_Tanimoto>  (13) 
0.21201

>  <largest_ring>  (13) 
6

>  <N_interactions_kept>  (13) 
3.5

>  <N_interactions_lost>  (13) 
0.0

>  <interaction_uniqueness_metric>  (13) 
0.073924

>  <ad_hoc_penalty>  (13) 
-41.273502

>  <N_rotatable_bonds>  (13) 
4

>  <N_HA>  (13) 
13

>  <cluster>  (13) 
6205

>  <N_interactions>  (13) 
6

>  <Enamine>  (13) 
0

>  <Mcule>  (13) 
1

>  <N_PAINS>  (13) 
0

>  <UFF_Gibbs>  (13) 
85.440934

>  <strain_per_HA>  (13) 
5.025937

>  <saltbridge:HIS:51>  (13) 
0

>  <pistack:HIS:51>  (13) 
0

>  <hydroph_interaction:HIS:51>  (13) 
0

>  <hbond:ALA:132>  (13) 
0

>  <hbond:SER:135>  (13) 
0

>  <hydroph_interaction:TYR:150>  (13) 
0

>  <pistack:TYR:161>  (13) 
0

>  <hydroph_interaction:TYR:161>  (13) 
4

>  <hydroph_interaction:ASP:83>  (13) 
0

>  <hbond:TYR:130>  (13) 
0

>  <hydroph_interaction:ALA:132>  (13) 
1

>  <hbond:HIS:51>  (13) 
0

>  <hbond:ASP:129>  (13) 
0

>  <hbond:TYR:150>  (13) 
0

>  <hbond:GLY:151>  (13) 
0

>  <hbond:TYR:161>  (13) 
0

>  <hydroph_interaction:TYR:130>  (13) 
0

>  <hydroph_interaction:PRO:131>  (13) 
0

>  <hydroph_interaction:ASP:129>  (13) 
0

>  <saltbridge:ASP:75>  (13) 
0

>  <saltbridge:ASP:83>  (13) 
0

>  <hydroph_interaction:ASN:152>  (13) 
0

>  <halogenbond:TYR:150>  (13) 
0

>  <hbond:ASP:83>  (13) 
0

>  <hydroph_interaction:VAL:155>  (13) 
1

>  <pication:TYR:161>  (13) 
0

>  <hbond:PRO:131>  (13) 
0

>  <hbond:LEU:128>  (13) 
0

>  <saltbridge:ASP:129>  (13) 
0

>  <hbond:THR:134>  (13) 
0

>  <pication:HIS:51>  (13) 
0

>  <hbond:SER:81>  (13) 
0

>  <hbond:GLY:159>  (13) 
0

>  <hydroph_interaction:PRO:101>  (13) 
0

>  <hydroph_interaction:THR:134>  (13) 
0

>  <hbond:GLY:82>  (13) 
0

>  <hydroph_interaction:GLU:104>  (13) 
0

>  <hydroph_interaction:VAL:36>  (13) 
0

>  <hydroph_interaction:MET:49>  (13) 
0

>  <halogenbond:GLU:104>  (13) 
0

>  <hydroph_interaction:LYS:107>  (13) 
0

$$$$
VATHXGNTTZEGIX-UHFFFAOYSA-N
     RDKit          3D

 42 44  0  0  0  0  0  0  0  0999 V2000
   -8.7678    6.1922  -14.0735 C   0  0  0  0  0  0  0  0  0  0  0  0
   -9.8902    5.5926  -13.4046 N   0  0  0  0  0  0  0  0  0  0  0  0
  -10.4411    6.1350  -12.1650 C   0  0  0  0  0  0  0  0  0  0  0  0
   -9.5129    5.8645  -11.0204 C   0  0  0  0  0  0  0  0  0  0  0  0
   -9.2328    4.6535  -10.4223 C   0  0  0  0  0  0  0  0  0  0  0  0
   -8.3455    4.8645   -9.4339 N   0  0  0  0  0  0  0  0  0  0  0  0
   -7.7472    3.8233   -8.6006 C   0  0  0  0  0  0  0  0  0  0  0  0
   -8.6104    2.5509   -8.6194 C   0  0  0  0  0  0  0  0  0  0  0  0
   -9.0310    2.1954  -10.0554 C   0  0  0  0  0  0  0  0  0  0  0  0
   -9.8647    3.3196  -10.6905 C   0  0  0  0  0  0  0  0  0  0  0  0
   -8.0040    6.1430   -9.3981 N   0  0  0  0  0  0  0  0  0  0  0  0
   -8.7104    6.7783  -10.3575 C   0  0  0  0  0  0  0  0  0  0  0  0
   -8.1824    7.1777  -13.5462 O   0  0  0  0  0  0  0  0  0  0  0  0
   -8.2703    5.6598  -15.3649 C   0  0  0  0  0  0  0  0  0  0  0  0
   -6.9262    5.8513  -15.7300 C   0  0  0  0  0  0  0  0  0  0  0  0
   -6.4371    5.3562  -16.9477 C   0  0  0  0  0  0  0  0  0  0  0  0
   -5.0109    5.6020  -17.3434 C   0  0  0  0  0  0  0  0  0  0  0  0
   -7.3070    4.6931  -17.8240 C   0  0  0  0  0  0  0  0  0  0  0  0
   -8.6486    4.4890  -17.4728 C   0  0  0  0  0  0  0  0  0  0  0  0
   -9.5849    3.8170  -18.4336 C   0  0  0  0  0  0  0  0  0  0  0  0
   -9.1292    4.9870  -16.2525 C   0  0  0  0  0  0  0  0  0  0  0  0
  -10.3083    4.7107  -13.7752 H   0  0  0  0  0  0  0  0  0  0  0  0
  -10.6191    7.2265  -12.2753 H   0  0  0  0  0  0  0  0  0  0  0  0
  -11.4193    5.6526  -11.9530 H   0  0  0  0  0  0  0  0  0  0  0  0
   -7.6478    4.1893   -7.5562 H   0  0  0  0  0  0  0  0  0  0  0  0
   -6.7333    3.5883   -8.9900 H   0  0  0  0  0  0  0  0  0  0  0  0
   -9.5187    2.7100   -7.9977 H   0  0  0  0  0  0  0  0  0  0  0  0
   -8.0349    1.7079   -8.1802 H   0  0  0  0  0  0  0  0  0  0  0  0
   -9.6274    1.2578  -10.0451 H   0  0  0  0  0  0  0  0  0  0  0  0
   -8.1221    2.0151  -10.6709 H   0  0  0  0  0  0  0  0  0  0  0  0
   -9.9443    3.1479  -11.7846 H   0  0  0  0  0  0  0  0  0  0  0  0
  -10.8868    3.3156  -10.2550 H   0  0  0  0  0  0  0  0  0  0  0  0
   -8.6413    7.8382  -10.5633 H   0  0  0  0  0  0  0  0  0  0  0  0
   -6.2542    6.3795  -15.0636 H   0  0  0  0  0  0  0  0  0  0  0  0
   -4.6425    4.7917  -18.0081 H   0  0  0  0  0  0  0  0  0  0  0  0
   -4.9385    6.5712  -17.8796 H   0  0  0  0  0  0  0  0  0  0  0  0
   -4.3554    5.6337  -16.4471 H   0  0  0  0  0  0  0  0  0  0  0  0
   -6.9409    4.3389  -18.7806 H   0  0  0  0  0  0  0  0  0  0  0  0
   -9.0412    3.0780  -19.0600 H   0  0  0  0  0  0  0  0  0  0  0  0
  -10.3868    3.2772  -17.8862 H   0  0  0  0  0  0  0  0  0  0  0  0
  -10.0472    4.5805  -19.0934 H   0  0  0  0  0  0  0  0  0  0  0  0
  -10.1794    4.8722  -16.0175 H   0  0  0  0  0  0  0  0  0  0  0  0
  1  2  1  0
  2  3  1  0
  3  4  1  0
  4  5  2  0
  5  6  1  0
  6  7  1  0
  7  8  1  0
  8  9  1  0
  9 10  1  0
  6 11  1  0
 11 12  2  0
  1 13  2  0
  1 14  1  0
 14 15  2  0
 15 16  1  0
 16 17  1  0
 16 18  2  0
 18 19  1  0
 19 20  1  0
 19 21  2  0
 12  4  1  0
 10  5  1  0
 14 21  1  0
  2 22  1  0
  3 23  1  0
  3 24  1  0
  7 25  1  0
  7 26  1  0
  8 27  1  0
  8 28  1  0
  9 29  1  0
  9 30  1  0
 10 31  1  0
 10 32  1  0
 12 33  1  0
 15 34  1  0
 17 35  1  0
 17 36  1  0
 17 37  1  0
 18 38  1  0
 20 39  1  0
 20 40  1  0
 20 41  1  0
 21 42  1  0
A    1
 C1 
A    2
 N1 
A    3
 C2 
A    4
 C3 
A    5
 C4 
A    6
 N2 
A    7
 C5 
A    8
 C6 
A    9
 C7 
A   10
 C8 
A   11
 N3 
A   12
 C9 
A   13
 O1 
A   14
 C10
A   15
 C11
A   16
 C12
A   17
 C13
A   18
 C14
A   19
 C15
A   20
 C16
A   21
 C17
A   22
 H1 
A   23
 H2 
A   24
 H3 
A   25
 H4 
A   26
 H5 
A   27
 H6 
A   28
 H7 
A   29
 H8 
A   30
 H9 
A   31
 H10
A   32
 H11
A   33
 H12
A   34
 H13
A   35
 H14
A   36
 H15
A   37
 H16
A   38
 H17
A   39
 H18
A   40
 H19
A   41
 H20
A   42
 H21
M  END
>  <ref_pdb>  (14) 
x0051_0B

>  <ref_mols>  (14) 
x0589_0B,x0969_1B

>  <original SMILES>  (14) 
[H]c1nn2c(c1C([H])([H])N([H])C(=O)c1c([H])c(C([H])([H])[H])c([H])c(C([H])([H])[H])c1[H])C([H])([H])C([H])([H])C([H])([H])C2([H])[H]

>  <index>  (14) 
18

>  <∆∆G>  (14) 
-9.224023

>  <∆G_bound>  (14) 
-8.607718

>  <∆G_unbound>  (14) 
0.616305

>  <comRMSD>  (14) 
0.460429

>  <N_constrained_atoms>  (14) 
18.0

>  <N_unconstrained_atoms>  (14) 
3.0

>  <runtime>  (14) 
62.462345

>  <LE>  (14) 
0.439239

>  <percent_hybrid>  (14) 
45.0

>  <dist>  (14) 
5.0

>  <ecfp4>  (14) 
0.367647

>  <daylight>  (14) 
0.313653

>  <topodist>  (14) 
1.0

>  <mces>  (14) 
22.0

>  <tdn>  (14) 
0.0

>  <tup>  (14) 
1.0

>  <rdn>  (14) 
0.0

>  <rup>  (14) 
0.0

>  <ldn>  (14) 
0.0

>  <lup>  (14) 
0.0

>  <mut>  (14) 
4.0

>  <maj>  (14) 
4.0

>  <min>  (14) 
0.0

>  <hyb>  (14) 
0.0

>  <sub>  (14) 
0.0

>  <query_index>  (14) 
379.0

>  <max_hit_Tanimoto>  (14) 
0.358974

>  <largest_ring>  (14) 
6

>  <N_interactions_kept>  (14) 
1.0

>  <N_interactions_lost>  (14) 
1.5

>  <interaction_uniqueness_metric>  (14) 
0.267619

>  <ad_hoc_penalty>  (14) 
-41.262582

>  <N_rotatable_bonds>  (14) 
5

>  <N_HA>  (14) 
21

>  <cluster>  (14) 
505

>  <N_interactions>  (14) 
8

>  <Enamine>  (14) 
0

>  <Mcule>  (14) 
1

>  <N_PAINS>  (14) 
0

>  <UFF_Gibbs>  (14) 
88.63764

>  <strain_per_HA>  (14) 
4.22084

>  <saltbridge:HIS:51>  (14) 
0

>  <pistack:HIS:51>  (14) 
1

>  <hydroph_interaction:HIS:51>  (14) 
1

>  <hbond:ALA:132>  (14) 
0

>  <hbond:SER:135>  (14) 
0

>  <hydroph_interaction:TYR:150>  (14) 
1

>  <pistack:TYR:161>  (14) 
1

>  <hydroph_interaction:TYR:161>  (14) 
1

>  <hydroph_interaction:ASP:83>  (14) 
1

>  <hbond:TYR:130>  (14) 
0

>  <hydroph_interaction:ALA:132>  (14) 
0

>  <hbond:HIS:51>  (14) 
0

>  <hbond:ASP:129>  (14) 
0

>  <hbond:TYR:150>  (14) 
0

>  <hbond:GLY:151>  (14) 
1

>  <hbond:TYR:161>  (14) 
1

>  <hydroph_interaction:TYR:130>  (14) 
0

>  <hydroph_interaction:PRO:131>  (14) 
0

>  <hydroph_interaction:ASP:129>  (14) 
0

>  <saltbridge:ASP:75>  (14) 
0

>  <saltbridge:ASP:83>  (14) 
0

>  <hydroph_interaction:ASN:152>  (14) 
0

>  <halogenbond:TYR:150>  (14) 
0

>  <hbond:ASP:83>  (14) 
0

>  <hydroph_interaction:VAL:155>  (14) 
0

>  <pication:TYR:161>  (14) 
0

>  <hbond:PRO:131>  (14) 
0

>  <hbond:LEU:128>  (14) 
0

>  <saltbridge:ASP:129>  (14) 
0

>  <hbond:THR:134>  (14) 
0

>  <pication:HIS:51>  (14) 
0

>  <hbond:SER:81>  (14) 
0

>  <hbond:GLY:159>  (14) 
0

>  <hydroph_interaction:PRO:101>  (14) 
0

>  <hydroph_interaction:THR:134>  (14) 
0

>  <hbond:GLY:82>  (14) 
0

>  <hydroph_interaction:GLU:104>  (14) 
0

>  <hydroph_interaction:VAL:36>  (14) 
0

>  <hydroph_interaction:MET:49>  (14) 
0

>  <halogenbond:GLU:104>  (14) 
0

>  <hydroph_interaction:LYS:107>  (14) 
0

$$$$
AMHIQTJALDKTAO-UHFFFAOYSA-N
     RDKit          3D

 43 46  0  0  0  0  0  0  0  0999 V2000
   -8.6038    6.5037  -12.2064 C   0  0  0  0  0  0  0  0  0  0  0  0
   -8.5792    5.6834  -13.3835 N   0  0  0  0  0  0  0  0  0  0  0  0
   -7.8675    6.0868  -14.6012 C   0  0  0  0  0  0  0  0  0  0  0  0
   -8.4538    5.3929  -15.8227 C   0  0  0  0  0  0  0  0  0  0  0  0
   -7.6260    4.8622  -16.8446 C   0  0  0  0  0  0  0  0  0  0  0  0
   -8.2130    4.2668  -17.9730 C   0  0  0  0  0  0  0  0  0  0  0  0
   -9.6008    4.2397  -18.1188 C   0  0  0  0  0  0  0  0  0  0  0  0
  -10.4173    4.8047  -17.1398 C   0  0  0  0  0  0  0  0  0  0  0  0
   -9.8498    5.3860  -16.0043 C   0  0  0  0  0  0  0  0  0  0  0  0
   -6.1224    4.8501  -16.7167 C   0  0  0  0  0  0  0  0  0  0  0  0
   -5.6199    5.9157  -15.7425 C   0  0  0  0  0  0  0  0  0  0  0  0
   -6.3666    5.8036  -14.4159 C   0  0  0  0  0  0  0  0  0  0  0  0
   -8.3216    7.7297  -12.2904 O   0  0  0  0  0  0  0  0  0  0  0  0
   -8.9856    5.9477  -10.8947 C   0  0  0  0  0  0  0  0  0  0  0  0
   -8.8580    4.6539  -10.4139 C   0  0  0  0  0  0  0  0  0  0  0  0
   -9.3124    4.6274   -9.1463 N   0  0  0  0  0  0  0  0  0  0  0  0
   -9.2485    3.4777   -8.2447 C   0  0  0  0  0  0  0  0  0  0  0  0
   -9.0278    2.1757   -9.0308 C   0  0  0  0  0  0  0  0  0  0  0  0
   -7.9301    2.3589  -10.0900 C   0  0  0  0  0  0  0  0  0  0  0  0
   -8.3212    3.4362  -11.1122 C   0  0  0  0  0  0  0  0  0  0  0  0
   -9.6830    5.8414   -8.7729 N   0  0  0  0  0  0  0  0  0  0  0  0
   -9.4962    6.6653   -9.8244 C   0  0  0  0  0  0  0  0  0  0  0  0
   -9.0399    4.7473  -13.3583 H   0  0  0  0  0  0  0  0  0  0  0  0
   -8.0017    7.1792  -14.7642 H   0  0  0  0  0  0  0  0  0  0  0  0
   -7.5929    3.8270  -18.7446 H   0  0  0  0  0  0  0  0  0  0  0  0
  -10.0438    3.7855  -18.9957 H   0  0  0  0  0  0  0  0  0  0  0  0
  -11.4927    4.7952  -17.2620 H   0  0  0  0  0  0  0  0  0  0  0  0
  -10.5016    5.8328  -15.2638 H   0  0  0  0  0  0  0  0  0  0  0  0
   -5.8029    3.8456  -16.3636 H   0  0  0  0  0  0  0  0  0  0  0  0
   -5.6545    5.0301  -17.7092 H   0  0  0  0  0  0  0  0  0  0  0  0
   -5.7696    6.9287  -16.1773 H   0  0  0  0  0  0  0  0  0  0  0  0
   -4.5318    5.7706  -15.5687 H   0  0  0  0  0  0  0  0  0  0  0  0
   -5.9399    6.5327  -13.6934 H   0  0  0  0  0  0  0  0  0  0  0  0
   -6.2204    4.7831  -13.9958 H   0  0  0  0  0  0  0  0  0  0  0  0
   -8.4072    3.6248   -7.5335 H   0  0  0  0  0  0  0  0  0  0  0  0
  -10.1921    3.4052   -7.6626 H   0  0  0  0  0  0  0  0  0  0  0  0
   -8.7370    1.3651   -8.3286 H   0  0  0  0  0  0  0  0  0  0  0  0
   -9.9764    1.8772   -9.5288 H   0  0  0  0  0  0  0  0  0  0  0  0
   -7.7607    1.3961  -10.6183 H   0  0  0  0  0  0  0  0  0  0  0  0
   -6.9786    2.6471   -9.5908 H   0  0  0  0  0  0  0  0  0  0  0  0
   -9.1097    3.0287  -11.7801 H   0  0  0  0  0  0  0  0  0  0  0  0
   -7.4313    3.7050  -11.7205 H   0  0  0  0  0  0  0  0  0  0  0  0
   -9.7125    7.7254   -9.8093 H   0  0  0  0  0  0  0  0  0  0  0  0
  1  2  1  0
  2  3  1  0
  3  4  1  0
  4  5  1  0
  5  6  2  0
  6  7  1  0
  7  8  2  0
  8  9  1  0
  5 10  1  0
 10 11  1  0
 11 12  1  0
  1 13  2  0
  1 14  1  0
 14 15  2  0
 15 16  1  0
 16 17  1  0
 17 18  1  0
 18 19  1  0
 19 20  1  0
 16 21  1  0
 21 22  2  0
 12  3  1  0
  9  4  2  0
 22 14  1  0
 20 15  1  0
  2 23  1  0
  3 24  1  0
  6 25  1  0
  7 26  1  0
  8 27  1  0
  9 28  1  0
 10 29  1  0
 10 30  1  0
 11 31  1  0
 11 32  1  0
 12 33  1  0
 12 34  1  0
 17 35  1  0
 17 36  1  0
 18 37  1  0
 18 38  1  0
 19 39  1  0
 19 40  1  0
 20 41  1  0
 20 42  1  0
 22 43  1  0
A    1
 C1 
A    2
 N1 
A    3
 C2 
A    4
 C3 
A    5
 C4 
A    6
 C5 
A    7
 C6 
A    8
 C7 
A    9
 C8 
A   10
 C9 
A   11
 C10
A   12
 C11
A   13
 O1 
A   14
 C12
A   15
 C13
A   16
 N2 
A   17
 C14
A   18
 C15
A   19
 C16
A   20
 C17
A   21
 N3 
A   22
 C18
A   23
 H1 
A   24
 H2 
A   25
 H3 
A   26
 H4 
A   27
 H5 
A   28
 H6 
A   29
 H7 
A   30
 H8 
A   31
 H9 
A   32
 H10
A   33
 H11
A   34
 H12
A   35
 H13
A   36
 H14
A   37
 H15
A   38
 H16
A   39
 H17
A   40
 H18
A   41
 H19
A   42
 H20
A   43
 H21
M  END
>  <ref_pdb>  (15) 
x0051_0B

>  <ref_mols>  (15) 
x0969_1B,x0455_0B

>  <original SMILES>  (15) 
[H]c1nn2c(c1C(=O)N([H])C1([H])c3c([H])c([H])c([H])c([H])c3C([H])([H])C([H])([H])C1([H])[H])C([H])([H])C([H])([H])C([H])([H])C2([H])[H]

>  <index>  (15) 
21

>  <∆∆G>  (15) 
-7.61626

>  <∆G_bound>  (15) 
-6.884062

>  <∆G_unbound>  (15) 
0.732198

>  <comRMSD>  (15) 
0.482566

>  <N_constrained_atoms>  (15) 
20.0

>  <N_unconstrained_atoms>  (15) 
2.0

>  <runtime>  (15) 
47.921671

>  <LE>  (15) 
0.346194

>  <percent_hybrid>  (15) 
50.0

>  <dist>  (15) 
7.0

>  <ecfp4>  (15) 
0.22619

>  <daylight>  (15) 
0.273504

>  <topodist>  (15) 
2.0

>  <mces>  (15) 
24.0

>  <tdn>  (15) 
0.0

>  <tup>  (15) 
1.0

>  <rdn>  (15) 
0.0

>  <rup>  (15) 
0.0

>  <ldn>  (15) 
1.0

>  <lup>  (15) 
0.0

>  <mut>  (15) 
4.0

>  <maj>  (15) 
4.0

>  <min>  (15) 
0.0

>  <hyb>  (15) 
1.0

>  <sub>  (15) 
0.0

>  <query_index>  (15) 
204.0

>  <max_hit_Tanimoto>  (15) 
0.319495

>  <largest_ring>  (15) 
6

>  <N_interactions_kept>  (15) 
1.5

>  <N_interactions_lost>  (15) 
1.0

>  <interaction_uniqueness_metric>  (15) 
0.192849

>  <ad_hoc_penalty>  (15) 
-40.696298

>  <N_rotatable_bonds>  (15) 
2

>  <N_HA>  (15) 
22

>  <cluster>  (15) 
6197

>  <N_interactions>  (15) 
6

>  <Enamine>  (15) 
0

>  <Mcule>  (15) 
1

>  <N_PAINS>  (15) 
0

>  <UFF_Gibbs>  (15) 
73.237115

>  <strain_per_HA>  (15) 
3.32896

>  <saltbridge:HIS:51>  (15) 
0

>  <pistack:HIS:51>  (15) 
1

>  <hydroph_interaction:HIS:51>  (15) 
0

>  <hbond:ALA:132>  (15) 
0

>  <hbond:SER:135>  (15) 
0

>  <hydroph_interaction:TYR:150>  (15) 
1

>  <pistack:TYR:161>  (15) 
1

>  <hydroph_interaction:TYR:161>  (15) 
1

>  <hydroph_interaction:ASP:83>  (15) 
1

>  <hbond:TYR:130>  (15) 
0

>  <hydroph_interaction:ALA:132>  (15) 
0

>  <hbond:HIS:51>  (15) 
0

>  <hbond:ASP:129>  (15) 
0

>  <hbond:TYR:150>  (15) 
0

>  <hbond:GLY:151>  (15) 
0

>  <hbond:TYR:161>  (15) 
1

>  <hydroph_interaction:TYR:130>  (15) 
0

>  <hydroph_interaction:PRO:131>  (15) 
0

>  <hydroph_interaction:ASP:129>  (15) 
0

>  <saltbridge:ASP:75>  (15) 
0

>  <saltbridge:ASP:83>  (15) 
0

>  <hydroph_interaction:ASN:152>  (15) 
0

>  <halogenbond:TYR:150>  (15) 
0

>  <hbond:ASP:83>  (15) 
0

>  <hydroph_interaction:VAL:155>  (15) 
0

>  <pication:TYR:161>  (15) 
0

>  <hbond:PRO:131>  (15) 
0

>  <hbond:LEU:128>  (15) 
0

>  <saltbridge:ASP:129>  (15) 
0

>  <hbond:THR:134>  (15) 
0

>  <pication:HIS:51>  (15) 
0

>  <hbond:SER:81>  (15) 
0

>  <hbond:GLY:159>  (15) 
0

>  <hydroph_interaction:PRO:101>  (15) 
0

>  <hydroph_interaction:THR:134>  (15) 
0

>  <hbond:GLY:82>  (15) 
0

>  <hydroph_interaction:GLU:104>  (15) 
0

>  <hydroph_interaction:VAL:36>  (15) 
0

>  <hydroph_interaction:MET:49>  (15) 
0

>  <halogenbond:GLU:104>  (15) 
0

>  <hydroph_interaction:LYS:107>  (15) 
0

$$$$
ZPEKKWHOKXFCRH-UHFFFAOYSA-N
     RDKit          3D

 46 49  0  0  0  0  0  0  0  0999 V2000
   -6.6384    6.0228  -13.5556 C   0  0  0  0  0  0  0  0  0  0  0  0
   -6.6597    4.6753  -13.0570 N   0  0  0  0  0  0  0  0  0  0  0  0
   -6.1952    4.3396  -11.7135 C   0  0  0  0  0  0  0  0  0  0  0  0
   -7.1858    4.8042  -10.6877 C   0  0  0  0  0  0  0  0  0  0  0  0
   -8.4001    4.2401  -10.3572 C   0  0  0  0  0  0  0  0  0  0  0  0
   -8.9733    5.0002   -9.4106 N   0  0  0  0  0  0  0  0  0  0  0  0
  -10.1889    4.6493   -8.6749 C   0  0  0  0  0  0  0  0  0  0  0  0
  -11.0240    3.6057   -9.4427 C   0  0  0  0  0  0  0  0  0  0  0  0
  -10.1364    2.4900  -10.0194 C   0  0  0  0  0  0  0  0  0  0  0  0
   -9.0762    3.0538  -10.9777 C   0  0  0  0  0  0  0  0  0  0  0  0
   -8.1770    6.0108   -9.0961 N   0  0  0  0  0  0  0  0  0  0  0  0
   -7.0820    5.9215   -9.8753 C   0  0  0  0  0  0  0  0  0  0  0  0
   -6.2895    6.9732  -12.8044 O   0  0  0  0  0  0  0  0  0  0  0  0
   -6.9800    6.3133  -14.9930 C   0  0  0  0  0  0  0  0  0  0  0  0
   -8.3260    5.7224  -15.3960 C   0  0  0  0  0  0  0  0  0  0  0  0
   -8.5240    5.1493  -16.6808 C   0  0  0  0  0  0  0  0  0  0  0  0
   -9.7924    4.6779  -17.0428 C   0  0  0  0  0  0  0  0  0  0  0  0
  -10.8693    4.8124  -16.1681 C   0  0  0  0  0  0  0  0  0  0  0  0
  -10.6921    5.4134  -14.9211 C   0  0  0  0  0  0  0  0  0  0  0  0
   -9.4362    5.8730  -14.5387 C   0  0  0  0  0  0  0  0  0  0  0  0
   -7.3810    4.9508  -17.6440 C   0  0  0  0  0  0  0  0  0  0  0  0
   -6.2131    5.8986  -17.3625 C   0  0  0  0  0  0  0  0  0  0  0  0
   -5.8256    5.8291  -15.8864 C   0  0  0  0  0  0  0  0  0  0  0  0
   -6.9174    3.8920  -13.7041 H   0  0  0  0  0  0  0  0  0  0  0  0
   -5.2040    4.8071  -11.5298 H   0  0  0  0  0  0  0  0  0  0  0  0
   -6.0664    3.2408  -11.6283 H   0  0  0  0  0  0  0  0  0  0  0  0
   -9.8944    4.2323   -7.6896 H   0  0  0  0  0  0  0  0  0  0  0  0
  -10.7993    5.5608   -8.5022 H   0  0  0  0  0  0  0  0  0  0  0  0
  -11.5838    4.1047  -10.2700 H   0  0  0  0  0  0  0  0  0  0  0  0
  -11.7687    3.1542   -8.7446 H   0  0  0  0  0  0  0  0  0  0  0  0
  -10.7735    1.7563  -10.5618 H   0  0  0  0  0  0  0  0  0  0  0  0
   -9.6335    1.9517   -9.1841 H   0  0  0  0  0  0  0  0  0  0  0  0
   -8.3310    2.2638  -11.2097 H   0  0  0  0  0  0  0  0  0  0  0  0
   -9.5611    3.3747  -11.9241 H   0  0  0  0  0  0  0  0  0  0  0  0
   -6.2529    6.6215   -9.8473 H   0  0  0  0  0  0  0  0  0  0  0  0
   -7.0613    7.4137  -15.1169 H   0  0  0  0  0  0  0  0  0  0  0  0
   -9.9524    4.2102  -18.0072 H   0  0  0  0  0  0  0  0  0  0  0  0
  -11.8488    4.4545  -16.4586 H   0  0  0  0  0  0  0  0  0  0  0  0
  -11.5308    5.5253  -14.2462 H   0  0  0  0  0  0  0  0  0  0  0  0
   -9.3310    6.3492  -13.5714 H   0  0  0  0  0  0  0  0  0  0  0  0
   -7.7283    5.1118  -18.6895 H   0  0  0  0  0  0  0  0  0  0  0  0
   -7.0336    3.9006  -17.5634 H   0  0  0  0  0  0  0  0  0  0  0  0
   -6.4941    6.9469  -17.6298 H   0  0  0  0  0  0  0  0  0  0  0  0
   -5.3399    5.6114  -17.9929 H   0  0  0  0  0  0  0  0  0  0  0  0
   -4.9340    6.4750  -15.7135 H   0  0  0  0  0  0  0  0  0  0  0  0
   -5.5420    4.7859  -15.6364 H   0  0  0  0  0  0  0  0  0  0  0  0
  1  2  1  0
  2  3  1  0
  3  4  1  0
  4  5  2  0
  5  6  1  0
  6  7  1  0
  7  8  1  0
  8  9  1  0
  9 10  1  0
  6 11  1  0
 11 12  2  0
  1 13  2  0
  1 14  1  0
 14 15  1  0
 15 16  1  0
 16 17  2  0
 17 18  1  0
 18 19  2  0
 19 20  1  0
 16 21  1  0
 21 22  1  0
 22 23  1  0
 12  4  1  0
 10  5  1  0
 23 14  1  0
 20 15  2  0
  2 24  1  0
  3 25  1  0
  3 26  1  0
  7 27  1  0
  7 28  1  0
  8 29  1  0
  8 30  1  0
  9 31  1  0
  9 32  1  0
 10 33  1  0
 10 34  1  0
 12 35  1  0
 14 36  1  0
 17 37  1  0
 18 38  1  0
 19 39  1  0
 20 40  1  0
 21 41  1  0
 21 42  1  0
 22 43  1  0
 22 44  1  0
 23 45  1  0
 23 46  1  0
A    1
 C1 
A    2
 N1 
A    3
 C2 
A    4
 C3 
A    5
 C4 
A    6
 N2 
A    7
 C5 
A    8
 C6 
A    9
 C7 
A   10
 C8 
A   11
 N3 
A   12
 C9 
A   13
 O1 
A   14
 C10
A   15
 C11
A   16
 C12
A   17
 C13
A   18
 C14
A   19
 C15
A   20
 C16
A   21
 C17
A   22
 C18
A   23
 C19
A   24
 H1 
A   25
 H2 
A   26
 H3 
A   27
 H4 
A   28
 H5 
A   29
 H6 
A   30
 H7 
A   31
 H8 
A   32
 H9 
A   33
 H10
A   34
 H11
A   35
 H12
A   36
 H13
A   37
 H14
A   38
 H15
A   39
 H16
A   40
 H17
A   41
 H18
A   42
 H19
A   43
 H20
A   44
 H21
A   45
 H22
A   46
 H23
M  END
>  <ref_pdb>  (16) 
x0051_0B

>  <ref_mols>  (16) 
x0969_1B,x0455_0B

>  <original SMILES>  (16) 
[H]c1nn2c(c1C([H])([H])N([H])C(=O)C1([H])c3c([H])c([H])c([H])c([H])c3C([H])([H])C([H])([H])C1([H])[H])C([H])([H])C([H])([H])C([H])([H])C2([H])[H]

>  <index>  (16) 
7

>  <∆∆G>  (16) 
-7.004438

>  <∆G_bound>  (16) 
-6.204521

>  <∆G_unbound>  (16) 
0.799917

>  <comRMSD>  (16) 
0.522487

>  <N_constrained_atoms>  (16) 
20.0

>  <N_unconstrained_atoms>  (16) 
3.0

>  <runtime>  (16) 
40.430636

>  <LE>  (16) 
0.304541

>  <percent_hybrid>  (16) 
50.0

>  <dist>  (16) 
6.0

>  <ecfp4>  (16) 
0.26506

>  <daylight>  (16) 
0.261972

>  <topodist>  (16) 
1.0

>  <mces>  (16) 
25.0

>  <tdn>  (16) 
0.0

>  <tup>  (16) 
1.0

>  <rdn>  (16) 
0.0

>  <rup>  (16) 
0.0

>  <ldn>  (16) 
0.0

>  <lup>  (16) 
0.0

>  <mut>  (16) 
4.0

>  <maj>  (16) 
4.0

>  <min>  (16) 
0.0

>  <hyb>  (16) 
1.0

>  <sub>  (16) 
0.0

>  <query_index>  (16) 
204.0

>  <max_hit_Tanimoto>  (16) 
0.328665

>  <largest_ring>  (16) 
6

>  <N_interactions_kept>  (16) 
1.5

>  <N_interactions_lost>  (16) 
1.0

>  <interaction_uniqueness_metric>  (16) 
0.167677

>  <ad_hoc_penalty>  (16) 
-40.459238

>  <N_rotatable_bonds>  (16) 
3

>  <N_HA>  (16) 
23

>  <cluster>  (16) 
6209

>  <N_interactions>  (16) 
8

>  <Enamine>  (16) 
0

>  <Mcule>  (16) 
1

>  <N_PAINS>  (16) 
0

>  <UFF_Gibbs>  (16) 
177.93455

>  <strain_per_HA>  (16) 
7.736285

>  <saltbridge:HIS:51>  (16) 
0

>  <pistack:HIS:51>  (16) 
2

>  <hydroph_interaction:HIS:51>  (16) 
0

>  <hbond:ALA:132>  (16) 
0

>  <hbond:SER:135>  (16) 
0

>  <hydroph_interaction:TYR:150>  (16) 
1

>  <pistack:TYR:161>  (16) 
0

>  <hydroph_interaction:TYR:161>  (16) 
3

>  <hydroph_interaction:ASP:83>  (16) 
0

>  <hbond:TYR:130>  (16) 
0

>  <hydroph_interaction:ALA:132>  (16) 
1

>  <hbond:HIS:51>  (16) 
1

>  <hbond:ASP:129>  (16) 
0

>  <hbond:TYR:150>  (16) 
0

>  <hbond:GLY:151>  (16) 
0

>  <hbond:TYR:161>  (16) 
0

>  <hydroph_interaction:TYR:130>  (16) 
0

>  <hydroph_interaction:PRO:131>  (16) 
0

>  <hydroph_interaction:ASP:129>  (16) 
0

>  <saltbridge:ASP:75>  (16) 
0

>  <saltbridge:ASP:83>  (16) 
0

>  <hydroph_interaction:ASN:152>  (16) 
0

>  <halogenbond:TYR:150>  (16) 
0

>  <hbond:ASP:83>  (16) 
0

>  <hydroph_interaction:VAL:155>  (16) 
0

>  <pication:TYR:161>  (16) 
0

>  <hbond:PRO:131>  (16) 
0

>  <hbond:LEU:128>  (16) 
0

>  <saltbridge:ASP:129>  (16) 
0

>  <hbond:THR:134>  (16) 
0

>  <pication:HIS:51>  (16) 
0

>  <hbond:SER:81>  (16) 
0

>  <hbond:GLY:159>  (16) 
0

>  <hydroph_interaction:PRO:101>  (16) 
0

>  <hydroph_interaction:THR:134>  (16) 
0

>  <hbond:GLY:82>  (16) 
0

>  <hydroph_interaction:GLU:104>  (16) 
0

>  <hydroph_interaction:VAL:36>  (16) 
0

>  <hydroph_interaction:MET:49>  (16) 
0

>  <halogenbond:GLU:104>  (16) 
0

>  <hydroph_interaction:LYS:107>  (16) 
0

$$$$
CSSB00010207089
     RDKit          3D

 41 42  0  0  0  0  0  0  0  0999 V2000
   -1.5131    3.6867  -19.6528 C   0  0  0  0  0  0  0  0  0  0  0  0
   -2.4865    4.7807  -19.1873 C   0  0  0  0  0  0  0  0  0  0  0  0
   -2.5699    5.8683  -20.2757 C   0  0  0  0  0  0  0  0  0  0  0  0
   -1.9691    5.3752  -17.8632 C   0  0  0  0  0  0  0  0  0  0  0  0
   -3.7659    4.1575  -18.9975 O   0  0  0  0  0  0  0  0  0  0  0  0
   -4.9415    4.7885  -18.5636 C   0  0  0  0  0  0  0  0  0  0  0  0
   -4.9570    6.0228  -18.3064 O   0  0  0  0  0  0  0  0  0  0  0  0
   -6.1421    4.0120  -18.4582 N   0  0  0  0  0  0  0  0  0  0  0  0
   -7.3613    4.4848  -17.8603 C   0  0  0  0  0  0  0  0  0  0  0  0
   -8.5906    4.0497  -18.3743 C   0  0  0  0  0  0  0  0  0  0  0  0
   -9.7884    4.4803  -17.8018 C   0  0  0  0  0  0  0  0  0  0  0  0
   -9.7715    5.3371  -16.6999 C   0  0  0  0  0  0  0  0  0  0  0  0
   -8.5491    5.7659  -16.1491 C   0  0  0  0  0  0  0  0  0  0  0  0
   -7.3472    5.3275  -16.7334 C   0  0  0  0  0  0  0  0  0  0  0  0
   -8.5128    6.6794  -14.9338 C   0  0  0  0  0  0  0  0  0  0  0  0
   -9.2349    8.0013  -15.1825 C   0  0  0  0  0  0  0  0  0  0  0  0
  -10.4551    7.9820  -14.2685 C   0  0  0  0  0  0  0  0  0  0  0  0
  -10.5714    6.6428  -13.6953 N   0  0  0  0  0  0  0  0  0  0  0  0
   -9.2321    6.0661  -13.7358 C   0  0  0  0  0  0  0  0  0  0  0  0
   -1.8766    3.2230  -20.5951 H   0  0  0  0  0  0  0  0  0  0  0  0
   -0.4991    4.1046  -19.8329 H   0  0  0  0  0  0  0  0  0  0  0  0
   -1.4347    2.8885  -18.8839 H   0  0  0  0  0  0  0  0  0  0  0  0
   -3.0053    5.4454  -21.2063 H   0  0  0  0  0  0  0  0  0  0  0  0
   -1.5589    6.2681  -20.5071 H   0  0  0  0  0  0  0  0  0  0  0  0
   -3.2020    6.7195  -19.9502 H   0  0  0  0  0  0  0  0  0  0  0  0
   -1.9884    4.6045  -17.0631 H   0  0  0  0  0  0  0  0  0  0  0  0
   -0.9252    5.7381  -17.9802 H   0  0  0  0  0  0  0  0  0  0  0  0
   -2.5878    6.2354  -17.5353 H   0  0  0  0  0  0  0  0  0  0  0  0
   -6.1496    3.0781  -18.9271 H   0  0  0  0  0  0  0  0  0  0  0  0
   -8.6193    3.3852  -19.2291 H   0  0  0  0  0  0  0  0  0  0  0  0
  -10.7331    4.1484  -18.2129 H   0  0  0  0  0  0  0  0  0  0  0  0
  -10.7118    5.6606  -16.2730 H   0  0  0  0  0  0  0  0  0  0  0  0
   -6.4033    5.6224  -16.2939 H   0  0  0  0  0  0  0  0  0  0  0  0
   -7.4567    6.8886  -14.6481 H   0  0  0  0  0  0  0  0  0  0  0  0
   -8.5754    8.8568  -14.9152 H   0  0  0  0  0  0  0  0  0  0  0  0
   -9.5427    8.1244  -16.2449 H   0  0  0  0  0  0  0  0  0  0  0  0
  -11.3760    8.2193  -14.8430 H   0  0  0  0  0  0  0  0  0  0  0  0
  -10.3336    8.7393  -13.4604 H   0  0  0  0  0  0  0  0  0  0  0  0
  -10.8849    6.7174  -12.6989 H   0  0  0  0  0  0  0  0  0  0  0  0
   -9.2969    4.9583  -13.8040 H   0  0  0  0  0  0  0  0  0  0  0  0
   -8.6811    6.3227  -12.8012 H   0  0  0  0  0  0  0  0  0  0  0  0
  1  2  1  0
  2  3  1  0
  2  4  1  0
  2  5  1  0
  5  6  1  0
  6  7  2  0
  6  8  1  0
  8  9  1  0
  9 10  2  0
 10 11  1  0
 11 12  2  0
 12 13  1  0
 13 14  2  0
 13 15  1  0
 15 16  1  0
 16 17  1  0
 17 18  1  0
 18 19  1  0
 14  9  1  0
 19 15  1  0
  1 20  1  0
  1 21  1  0
  1 22  1  0
  3 23  1  0
  3 24  1  0
  3 25  1  0
  4 26  1  0
  4 27  1  0
  4 28  1  0
  8 29  1  0
 10 30  1  0
 11 31  1  0
 12 32  1  0
 14 33  1  0
 15 34  1  0
 16 35  1  0
 16 36  1  0
 17 37  1  0
 17 38  1  0
 18 39  1  0
 19 40  1  0
 19 41  1  0
A    1
 C1 
A    2
 C2 
A    3
 C3 
A    4
 C4 
A    5
 O1 
A    6
 C5 
A    7
 O2 
A    8
 N1 
A    9
 C6 
A   10
 C7 
A   11
 C8 
A   12
 C9 
A   13
 C10
A   14
 C11
A   15
 C12
A   16
 C13
A   17
 C14
A   18
 N2 
A   19
 C15
A   20
 H1 
A   21
 H2 
A   22
 H3 
A   23
 H4 
A   24
 H5 
A   25
 H6 
A   26
 H7 
A   27
 H8 
A   28
 H9 
A   29
 H10
A   30
 H11
A   31
 H12
A   32
 H13
A   33
 H14
A   34
 H15
A   35
 H16
A   36
 H17
A   37
 H18
A   38
 H19
A   39
 H20
A   40
 H21
A   41
 H22
M  END
>  <ref_pdb>  (17) 
x0051_0B

>  <ref_mols>  (17) 
x0089_0B,x0951_0B

>  <original SMILES>  (17) 
[H]c1c([H])c(N([H])C(=O)OC(C([H])([H])[H])(C([H])([H])[H])C([H])([H])[H])c([H])c(C2([H])C([H])([H])N([H])C([H])([H])C2([H])[H])c1[H]

>  <index>  (17) 
1

>  <∆∆G>  (17) 
-7.374585

>  <∆G_bound>  (17) 
-7.025252

>  <∆G_unbound>  (17) 
0.349333

>  <comRMSD>  (17) 
0.694427

>  <N_constrained_atoms>  (17) 
19.0

>  <N_unconstrained_atoms>  (17) 
1.0

>  <runtime>  (17) 
104.235288

>  <LE>  (17) 
0.368729

>  <percent_hybrid>  (17) 
47.0

>  <dist>  (17) 
7.0

>  <ecfp4>  (17) 
0.238806

>  <daylight>  (17) 
0.395522

>  <topodist>  (17) 
3.0

>  <mces>  (17) 
18.0

>  <tdn>  (17) 
0.0

>  <tup>  (17) 
1.0

>  <rdn>  (17) 
0.0

>  <rup>  (17) 
1.0

>  <ldn>  (17) 
1.0

>  <lup>  (17) 
0.0

>  <mut>  (17) 
3.0

>  <maj>  (17) 
3.0

>  <min>  (17) 
0.0

>  <hyb>  (17) 
1.0

>  <sub>  (17) 
3.0

>  <query_index>  (17) 
292.0

>  <max_hit_Tanimoto>  (17) 
0.135572

>  <largest_ring>  (17) 
6

>  <N_interactions_kept>  (17) 
2.0

>  <N_interactions_lost>  (17) 
1.5

>  <interaction_uniqueness_metric>  (17) 
0.187529

>  <ad_hoc_penalty>  (17) 
-39.602629

>  <N_rotatable_bonds>  (17) 
2

>  <N_HA>  (17) 
19

>  <cluster>  (17) 
6215

>  <N_interactions>  (17) 
9

>  <Enamine>  (17) 
1

>  <Mcule>  (17) 
0

>  <N_PAINS>  (17) 
0

>  <UFF_Gibbs>  (17) 
274.145657

>  <strain_per_HA>  (17) 
13.707283

>  <saltbridge:HIS:51>  (17) 
0

>  <pistack:HIS:51>  (17) 
0

>  <hydroph_interaction:HIS:51>  (17) 
0

>  <hbond:ALA:132>  (17) 
0

>  <hbond:SER:135>  (17) 
0

>  <hydroph_interaction:TYR:150>  (17) 
1

>  <pistack:TYR:161>  (17) 
0

>  <hydroph_interaction:TYR:161>  (17) 
4

>  <hydroph_interaction:ASP:83>  (17) 
0

>  <hbond:TYR:130>  (17) 
1

>  <hydroph_interaction:ALA:132>  (17) 
1

>  <hbond:HIS:51>  (17) 
1

>  <hbond:ASP:129>  (17) 
0

>  <hbond:TYR:150>  (17) 
0

>  <hbond:GLY:151>  (17) 
0

>  <hbond:TYR:161>  (17) 
0

>  <hydroph_interaction:TYR:130>  (17) 
0

>  <hydroph_interaction:PRO:131>  (17) 
0

>  <hydroph_interaction:ASP:129>  (17) 
0

>  <saltbridge:ASP:75>  (17) 
0

>  <saltbridge:ASP:83>  (17) 
0

>  <hydroph_interaction:ASN:152>  (17) 
0

>  <halogenbond:TYR:150>  (17) 
0

>  <hbond:ASP:83>  (17) 
0

>  <hydroph_interaction:VAL:155>  (17) 
1

>  <pication:TYR:161>  (17) 
0

>  <hbond:PRO:131>  (17) 
0

>  <hbond:LEU:128>  (17) 
0

>  <saltbridge:ASP:129>  (17) 
0

>  <hbond:THR:134>  (17) 
0

>  <pication:HIS:51>  (17) 
0

>  <hbond:SER:81>  (17) 
0

>  <hbond:GLY:159>  (17) 
0

>  <hydroph_interaction:PRO:101>  (17) 
0

>  <hydroph_interaction:THR:134>  (17) 
0

>  <hbond:GLY:82>  (17) 
0

>  <hydroph_interaction:GLU:104>  (17) 
0

>  <hydroph_interaction:VAL:36>  (17) 
0

>  <hydroph_interaction:MET:49>  (17) 
0

>  <halogenbond:GLU:104>  (17) 
0

>  <hydroph_interaction:LYS:107>  (17) 
0

$$$$
CSSB00009826568
     RDKit          3D

 27 28  0  0  0  0  0  0  0  0999 V2000
   -3.6780    4.0727  -17.5138 C   0  0  0  0  0  0  0  0  0  0  0  0
   -4.0280    5.5620  -17.6065 C   0  0  0  0  0  0  0  0  0  0  0  0
   -3.4623    6.1993  -18.8808 C   0  0  0  0  0  0  0  0  0  0  0  0
   -5.4862    5.7741  -17.5023 N   0  0  0  0  0  0  0  0  0  0  0  0
   -6.0279    6.6421  -16.4337 C   0  0  0  0  0  0  0  0  0  0  0  0
   -7.2853    6.0274  -15.7847 C   0  0  0  0  0  0  0  0  0  0  0  0
   -8.2127    5.5720  -16.8193 N   0  0  0  0  0  0  0  0  0  0  0  0
   -9.5363    5.3580  -16.7129 C   0  0  0  0  0  0  0  0  0  0  0  0
  -10.0057    4.7972  -17.8895 C   0  0  0  0  0  0  0  0  0  0  0  0
   -8.9146    4.6497  -18.7320 C   0  0  0  0  0  0  0  0  0  0  0  0
   -7.8317    5.1329  -18.0261 C   0  0  0  0  0  0  0  0  0  0  0  0
   -6.4257    5.1723  -18.4228 C   0  0  0  0  0  0  0  0  0  0  0  0
   -6.0557    4.6745  -19.5193 O   0  0  0  0  0  0  0  0  0  0  0  0
   -2.5757    3.9448  -17.4627 H   0  0  0  0  0  0  0  0  0  0  0  0
   -4.1240    3.6385  -16.5937 H   0  0  0  0  0  0  0  0  0  0  0  0
   -4.0553    3.5123  -18.3940 H   0  0  0  0  0  0  0  0  0  0  0  0
   -3.5158    6.0606  -16.7542 H   0  0  0  0  0  0  0  0  0  0  0  0
   -3.7952    7.2564  -18.9536 H   0  0  0  0  0  0  0  0  0  0  0  0
   -2.3519    6.1848  -18.8481 H   0  0  0  0  0  0  0  0  0  0  0  0
   -3.7867    5.6555  -19.7911 H   0  0  0  0  0  0  0  0  0  0  0  0
   -5.2740    6.8311  -15.6399 H   0  0  0  0  0  0  0  0  0  0  0  0
   -6.3012    7.6228  -16.8796 H   0  0  0  0  0  0  0  0  0  0  0  0
   -6.9892    5.1605  -15.1556 H   0  0  0  0  0  0  0  0  0  0  0  0
   -7.7790    6.7852  -15.1388 H   0  0  0  0  0  0  0  0  0  0  0  0
  -10.1253    5.5749  -15.8312 H   0  0  0  0  0  0  0  0  0  0  0  0
  -11.0260    4.5079  -18.1019 H   0  0  0  0  0  0  0  0  0  0  0  0
   -8.9127    4.2247  -19.7270 H   0  0  0  0  0  0  0  0  0  0  0  0
  1  2  1  0
  2  3  1  0
  2  4  1  0
  4  5  1  0
  5  6  1  0
  6  7  1  0
  7  8  1  0
  8  9  2  0
  9 10  1  0
 10 11  2  0
 11 12  1  0
 12 13  2  0
 12  4  1  0
 11  7  1  0
  1 14  1  0
  1 15  1  0
  1 16  1  0
  2 17  1  0
  3 18  1  0
  3 19  1  0
  3 20  1  0
  5 21  1  0
  5 22  1  0
  6 23  1  0
  6 24  1  0
  8 25  1  0
  9 26  1  0
 10 27  1  0
A    1
 C1 
A    2
 C2 
A    3
 C3 
A    4
 N1 
A    5
 C4 
A    6
 C5 
A    7
 N2 
A    8
 C6 
A    9
 C7 
A   10
 C8 
A   11
 C9 
A   12
 C10
A   13
 O1 
A   14
 H1 
A   15
 H2 
A   16
 H3 
A   17
 H4 
A   18
 H5 
A   19
 H6 
A   20
 H7 
A   21
 H8 
A   22
 H9 
A   23
 H10
A   24
 H11
A   25
 H12
A   26
 H13
A   27
 H14
M  END
>  <ref_pdb>  (18) 
x0051_0B

>  <ref_mols>  (18) 
x0472_0B,x0386_0B

>  <original SMILES>  (18) 
[H]c1c([H])c2n(c1[H])C([H])([H])C([H])([H])N(C([H])(C([H])([H])[H])C([H])([H])[H])C2=O

>  <index>  (18) 
14

>  <∆∆G>  (18) 
-6.791083

>  <∆G_bound>  (18) 
-6.604851

>  <∆G_unbound>  (18) 
0.186232

>  <comRMSD>  (18) 
0.661882

>  <N_constrained_atoms>  (18) 
14.0

>  <N_unconstrained_atoms>  (18) 
0.0

>  <runtime>  (18) 
22.538491

>  <LE>  (18) 
0.485077

>  <percent_hybrid>  (18) 
13.0

>  <dist>  (18) 
5.0

>  <ecfp4>  (18) 
0.137931

>  <daylight>  (18) 
0.170213

>  <topodist>  (18) 
1.0

>  <mces>  (18) 
14.0

>  <tdn>  (18) 
1.0

>  <tup>  (18) 
0.0

>  <rdn>  (18) 
0.0

>  <rup>  (18) 
0.0

>  <ldn>  (18) 
0.0

>  <lup>  (18) 
0.0

>  <mut>  (18) 
3.0

>  <maj>  (18) 
3.0

>  <min>  (18) 
0.0

>  <hyb>  (18) 
1.0

>  <sub>  (18) 
1.0

>  <query_index>  (18) 
75.0

>  <max_hit_Tanimoto>  (18) 
0.213582

>  <largest_ring>  (18) 
6

>  <N_interactions_kept>  (18) 
3.0

>  <N_interactions_lost>  (18) 
0.0

>  <interaction_uniqueness_metric>  (18) 
0.067473

>  <ad_hoc_penalty>  (18) 
-39.591681

>  <N_rotatable_bonds>  (18) 
3

>  <N_HA>  (18) 
13

>  <cluster>  (18) 
6203

>  <N_interactions>  (18) 
6

>  <Enamine>  (18) 
1

>  <Mcule>  (18) 
0

>  <N_PAINS>  (18) 
0

>  <UFF_Gibbs>  (18) 
86.024518

>  <strain_per_HA>  (18) 
6.144608

>  <saltbridge:HIS:51>  (18) 
0

>  <pistack:HIS:51>  (18) 
0

>  <hydroph_interaction:HIS:51>  (18) 
0

>  <hbond:ALA:132>  (18) 
0

>  <hbond:SER:135>  (18) 
0

>  <hydroph_interaction:TYR:150>  (18) 
1

>  <pistack:TYR:161>  (18) 
0

>  <hydroph_interaction:TYR:161>  (18) 
4

>  <hydroph_interaction:ASP:83>  (18) 
0

>  <hbond:TYR:130>  (18) 
0

>  <hydroph_interaction:ALA:132>  (18) 
0

>  <hbond:HIS:51>  (18) 
0

>  <hbond:ASP:129>  (18) 
0

>  <hbond:TYR:150>  (18) 
0

>  <hbond:GLY:151>  (18) 
0

>  <hbond:TYR:161>  (18) 
0

>  <hydroph_interaction:TYR:130>  (18) 
0

>  <hydroph_interaction:PRO:131>  (18) 
0

>  <hydroph_interaction:ASP:129>  (18) 
0

>  <saltbridge:ASP:75>  (18) 
0

>  <saltbridge:ASP:83>  (18) 
0

>  <hydroph_interaction:ASN:152>  (18) 
0

>  <halogenbond:TYR:150>  (18) 
0

>  <hbond:ASP:83>  (18) 
0

>  <hydroph_interaction:VAL:155>  (18) 
1

>  <pication:TYR:161>  (18) 
0

>  <hbond:PRO:131>  (18) 
0

>  <hbond:LEU:128>  (18) 
0

>  <saltbridge:ASP:129>  (18) 
0

>  <hbond:THR:134>  (18) 
0

>  <pication:HIS:51>  (18) 
0

>  <hbond:SER:81>  (18) 
0

>  <hbond:GLY:159>  (18) 
0

>  <hydroph_interaction:PRO:101>  (18) 
0

>  <hydroph_interaction:THR:134>  (18) 
0

>  <hbond:GLY:82>  (18) 
0

>  <hydroph_interaction:GLU:104>  (18) 
0

>  <hydroph_interaction:VAL:36>  (18) 
0

>  <hydroph_interaction:MET:49>  (18) 
0

>  <halogenbond:GLU:104>  (18) 
0

>  <hydroph_interaction:LYS:107>  (18) 
0

$$$$
CSSB00161000141
     RDKit          3D

 38 39  0  0  0  0  0  0  0  0999 V2000
   -1.1768    5.6764  -16.5890 C   0  0  0  0  0  0  0  0  0  0  0  0
   -1.9182    4.3290  -16.4979 C   0  0  0  0  0  0  0  0  0  0  0  0
   -1.5038    3.4004  -17.6554 C   0  0  0  0  0  0  0  0  0  0  0  0
   -1.5568    3.6532  -15.1664 C   0  0  0  0  0  0  0  0  0  0  0  0
   -3.3389    4.5324  -16.4969 O   0  0  0  0  0  0  0  0  0  0  0  0
   -4.0998    5.1156  -17.5241 C   0  0  0  0  0  0  0  0  0  0  0  0
   -3.5388    5.5383  -18.5717 O   0  0  0  0  0  0  0  0  0  0  0  0
   -5.5296    5.2402  -17.3690 N   0  0  0  0  0  0  0  0  0  0  0  0
   -6.1018    4.8958  -16.0457 C   0  0  0  0  0  0  0  0  0  0  0  0
   -7.6265    4.7154  -16.0562 C   0  0  0  0  0  0  0  0  0  0  0  0
   -8.2566    5.7971  -16.8524 C   0  0  0  0  0  0  0  0  0  0  0  0
   -7.6724    6.3325  -17.9776 C   0  0  0  0  0  0  0  0  0  0  0  0
   -8.4873    7.2660  -18.6334 C   0  0  0  0  0  0  0  0  0  0  0  0
   -9.7193    7.4474  -18.0134 C   0  0  0  0  0  0  0  0  0  0  0  0
   -9.7961    6.4397  -16.6636 S   0  0  0  0  0  0  0  0  0  0  0  0
   -6.3196    5.8774  -18.4550 C   0  0  0  0  0  0  0  0  0  0  0  0
   -6.4498    4.9402  -19.6803 C   0  0  0  0  0  0  0  0  0  0  0  0
   -7.0965    3.6668  -19.3634 N   0  0  0  0  0  0  0  0  0  0  0  0
   -0.0829    5.5299  -16.4571 H   0  0  0  0  0  0  0  0  0  0  0  0
   -1.5399    6.3675  -15.7984 H   0  0  0  0  0  0  0  0  0  0  0  0
   -1.3341    6.1602  -17.5743 H   0  0  0  0  0  0  0  0  0  0  0  0
   -1.6628    3.8846  -18.6404 H   0  0  0  0  0  0  0  0  0  0  0  0
   -0.4264    3.1380  -17.5792 H   0  0  0  0  0  0  0  0  0  0  0  0
   -2.1000    2.4632  -17.6268 H   0  0  0  0  0  0  0  0  0  0  0  0
   -0.4636    3.4634  -15.0985 H   0  0  0  0  0  0  0  0  0  0  0  0
   -1.8576    4.2984  -14.3129 H   0  0  0  0  0  0  0  0  0  0  0  0
   -2.0910    2.6834  -15.0694 H   0  0  0  0  0  0  0  0  0  0  0  0
   -5.6591    3.9444  -15.6782 H   0  0  0  0  0  0  0  0  0  0  0  0
   -5.8341    5.6968  -15.3226 H   0  0  0  0  0  0  0  0  0  0  0  0
   -7.8880    3.7350  -16.5067 H   0  0  0  0  0  0  0  0  0  0  0  0
   -8.0125    4.7378  -15.0147 H   0  0  0  0  0  0  0  0  0  0  0  0
   -8.1976    7.7817  -19.5395 H   0  0  0  0  0  0  0  0  0  0  0  0
  -10.5030    8.1103  -18.3538 H   0  0  0  0  0  0  0  0  0  0  0  0
   -5.7836    6.7946  -18.7865 H   0  0  0  0  0  0  0  0  0  0  0  0
   -5.4448    4.7324  -20.1035 H   0  0  0  0  0  0  0  0  0  0  0  0
   -7.0297    5.4510  -20.4798 H   0  0  0  0  0  0  0  0  0  0  0  0
   -8.0679    3.8459  -19.0221 H   0  0  0  0  0  0  0  0  0  0  0  0
   -6.5616    3.1835  -18.6066 H   0  0  0  0  0  0  0  0  0  0  0  0
  1  2  1  0
  2  3  1  0
  2  4  1  0
  2  5  1  0
  5  6  1  0
  6  7  2  0
  6  8  1  0
  8  9  1  0
  9 10  1  0
 10 11  1  0
 11 12  2  0
 12 13  1  0
 13 14  2  0
 14 15  1  0
 12 16  1  0
 16 17  1  0
 17 18  1  0
 16  8  1  0
 15 11  1  0
  1 19  1  0
  1 20  1  0
  1 21  1  0
  3 22  1  0
  3 23  1  0
  3 24  1  0
  4 25  1  0
  4 26  1  0
  4 27  1  0
  9 28  1  0
  9 29  1  0
 10 30  1  0
 10 31  1  0
 13 32  1  0
 14 33  1  0
 16 34  1  0
 17 35  1  0
 17 36  1  0
 18 37  1  0
 18 38  1  0
A    1
 C1 
A    2
 C2 
A    3
 C3 
A    4
 C4 
A    5
 O1 
A    6
 C5 
A    7
 O2 
A    8
 N1 
A    9
 C6 
A   10
 C7 
A   11
 C8 
A   12
 C9 
A   13
 C10
A   14
 C11
A   15
 S1 
A   16
 C12
A   17
 C13
A   18
 N2 
A   19
 H1 
A   20
 H2 
A   21
 H3 
A   22
 H4 
A   23
 H5 
A   24
 H6 
A   25
 H7 
A   26
 H8 
A   27
 H9 
A   28
 H10
A   29
 H11
A   30
 H12
A   31
 H13
A   32
 H14
A   33
 H15
A   34
 H16
A   35
 H17
A   36
 H18
A   37
 H19
A   38
 H20
M  END
>  <ref_pdb>  (19) 
x0051_0B

>  <ref_mols>  (19) 
x0472_0B,x0227_0B

>  <original SMILES>  (19) 
[H]c1sc2c(c1[H])C([H])(C([H])([H])N([H])[H])N(C(=O)OC(C([H])([H])[H])(C([H])([H])[H])C([H])([H])[H])C([H])([H])C2([H])[H]

>  <index>  (19) 
4

>  <∆∆G>  (19) 
-8.906276

>  <∆G_bound>  (19) 
-8.608784

>  <∆G_unbound>  (19) 
0.297492

>  <comRMSD>  (19) 
0.695929

>  <N_constrained_atoms>  (19) 
18.0

>  <N_unconstrained_atoms>  (19) 
3.0

>  <runtime>  (19) 
24.605477

>  <LE>  (19) 
0.424108

>  <percent_hybrid>  (19) 
50.0

>  <dist>  (19) 
6.0

>  <ecfp4>  (19) 
0.5

>  <daylight>  (19) 
0.672727

>  <topodist>  (19) 
3.0

>  <mces>  (19) 
16.0

>  <tdn>  (19) 
0.0

>  <tup>  (19) 
2.0

>  <rdn>  (19) 
0.0

>  <rup>  (19) 
0.0

>  <ldn>  (19) 
0.0

>  <lup>  (19) 
1.0

>  <mut>  (19) 
2.0

>  <maj>  (19) 
2.0

>  <min>  (19) 
0.0

>  <hyb>  (19) 
1.0

>  <sub>  (19) 
1.0

>  <query_index>  (19) 
78.0

>  <max_hit_Tanimoto>  (19) 
0.480043

>  <largest_ring>  (19) 
6

>  <N_interactions_kept>  (19) 
4.5

>  <N_interactions_lost>  (19) 
0.5

>  <interaction_uniqueness_metric>  (19) 
0.073924

>  <ad_hoc_penalty>  (19) 
-39.277598

>  <N_rotatable_bonds>  (19) 
2

>  <N_HA>  (19) 
18

>  <cluster>  (19) 
6212

>  <N_interactions>  (19) 
6

>  <Enamine>  (19) 
1

>  <Mcule>  (19) 
0

>  <N_PAINS>  (19) 
0

>  <UFF_Gibbs>  (19) 
220.494792

>  <strain_per_HA>  (19) 
10.499752

>  <saltbridge:HIS:51>  (19) 
0

>  <pistack:HIS:51>  (19) 
0

>  <hydroph_interaction:HIS:51>  (19) 
0

>  <hbond:ALA:132>  (19) 
0

>  <hbond:SER:135>  (19) 
0

>  <hydroph_interaction:TYR:150>  (19) 
0

>  <pistack:TYR:161>  (19) 
0

>  <hydroph_interaction:TYR:161>  (19) 
4

>  <hydroph_interaction:ASP:83>  (19) 
0

>  <hbond:TYR:130>  (19) 
0

>  <hydroph_interaction:ALA:132>  (19) 
1

>  <hbond:HIS:51>  (19) 
0

>  <hbond:ASP:129>  (19) 
0

>  <hbond:TYR:150>  (19) 
0

>  <hbond:GLY:151>  (19) 
0

>  <hbond:TYR:161>  (19) 
0

>  <hydroph_interaction:TYR:130>  (19) 
0

>  <hydroph_interaction:PRO:131>  (19) 
0

>  <hydroph_interaction:ASP:129>  (19) 
0

>  <saltbridge:ASP:75>  (19) 
0

>  <saltbridge:ASP:83>  (19) 
0

>  <hydroph_interaction:ASN:152>  (19) 
0

>  <halogenbond:TYR:150>  (19) 
0

>  <hbond:ASP:83>  (19) 
0

>  <hydroph_interaction:VAL:155>  (19) 
1

>  <pication:TYR:161>  (19) 
0

>  <hbond:PRO:131>  (19) 
0

>  <hbond:LEU:128>  (19) 
0

>  <saltbridge:ASP:129>  (19) 
0

>  <hbond:THR:134>  (19) 
0

>  <pication:HIS:51>  (19) 
0

>  <hbond:SER:81>  (19) 
0

>  <hbond:GLY:159>  (19) 
0

>  <hydroph_interaction:PRO:101>  (19) 
0

>  <hydroph_interaction:THR:134>  (19) 
0

>  <hbond:GLY:82>  (19) 
0

>  <hydroph_interaction:GLU:104>  (19) 
0

>  <hydroph_interaction:VAL:36>  (19) 
0

>  <hydroph_interaction:MET:49>  (19) 
0

>  <halogenbond:GLU:104>  (19) 
0

>  <hydroph_interaction:LYS:107>  (19) 
0

$$$$
Z3205056479
     RDKit          3D

 42 45  0  0  0  0  0  0  0  0999 V2000
   -5.0696    4.9738  -19.1237 C   0  0  0  0  0  0  0  0  0  0  0  0
   -5.8348    5.3752  -17.9061 C   0  0  0  0  0  0  0  0  0  0  0  0
   -5.2679    5.8259  -16.7629 N   0  0  0  0  0  0  0  0  0  0  0  0
   -6.2334    6.0289  -15.8730 N   0  0  0  0  0  0  0  0  0  0  0  0
   -7.4147    5.7046  -16.4343 C   0  0  0  0  0  0  0  0  0  0  0  0
   -8.6998    5.7168  -15.8660 C   0  0  0  0  0  0  0  0  0  0  0  0
   -8.9499    6.1968  -14.4891 C   0  0  0  0  0  0  0  0  0  0  0  0
   -8.2653    7.1497  -14.0276 O   0  0  0  0  0  0  0  0  0  0  0  0
   -9.9701    5.5931  -13.6777 N   0  0  0  0  0  0  0  0  0  0  0  0
  -10.2511    6.0386  -12.3151 C   0  0  0  0  0  0  0  0  0  0  0  0
   -9.1267    5.6577  -11.4008 C   0  0  0  0  0  0  0  0  0  0  0  0
   -8.7619    4.3943  -10.9842 C   0  0  0  0  0  0  0  0  0  0  0  0
   -9.4606    3.0935  -11.2496 C   0  0  0  0  0  0  0  0  0  0  0  0
   -8.5421    1.9121  -10.8990 C   0  0  0  0  0  0  0  0  0  0  0  0
   -7.8438    2.1260   -9.5456 C   0  0  0  0  0  0  0  0  0  0  0  0
   -6.9680    3.3895   -9.5747 C   0  0  0  0  0  0  0  0  0  0  0  0
   -7.6953    4.5073  -10.1730 N   0  0  0  0  0  0  0  0  0  0  0  0
   -7.3259    5.7756  -10.0858 N   0  0  0  0  0  0  0  0  0  0  0  0
   -8.1914    6.5017  -10.8253 C   0  0  0  0  0  0  0  0  0  0  0  0
   -9.7638    5.2652  -16.6833 C   0  0  0  0  0  0  0  0  0  0  0  0
   -9.5265    4.8232  -18.0043 C   0  0  0  0  0  0  0  0  0  0  0  0
   -8.2259    4.8233  -18.5353 C   0  0  0  0  0  0  0  0  0  0  0  0
   -7.1967    5.2755  -17.7152 C   0  0  0  0  0  0  0  0  0  0  0  0
   -5.0409    3.8667  -19.1953 H   0  0  0  0  0  0  0  0  0  0  0  0
   -5.5584    5.3884  -20.0301 H   0  0  0  0  0  0  0  0  0  0  0  0
   -4.0311    5.3623  -19.0668 H   0  0  0  0  0  0  0  0  0  0  0  0
   -6.0631    6.3578  -14.8978 H   0  0  0  0  0  0  0  0  0  0  0  0
  -10.5106    4.7793  -14.0474 H   0  0  0  0  0  0  0  0  0  0  0  0
  -10.4100    7.1385  -12.3024 H   0  0  0  0  0  0  0  0  0  0  0  0
  -11.1845    5.5566  -11.9533 H   0  0  0  0  0  0  0  0  0  0  0  0
   -9.7542    3.0289  -12.3185 H   0  0  0  0  0  0  0  0  0  0  0  0
  -10.3786    3.0484  -10.6255 H   0  0  0  0  0  0  0  0  0  0  0  0
   -7.7737    1.7914  -11.6943 H   0  0  0  0  0  0  0  0  0  0  0  0
   -9.1438    0.9786  -10.8618 H   0  0  0  0  0  0  0  0  0  0  0  0
   -8.6109    2.2251   -8.7464 H   0  0  0  0  0  0  0  0  0  0  0  0
   -7.2111    1.2437   -9.3091 H   0  0  0  0  0  0  0  0  0  0  0  0
   -6.0537    3.1920  -10.1749 H   0  0  0  0  0  0  0  0  0  0  0  0
   -6.6605    3.6524   -8.5399 H   0  0  0  0  0  0  0  0  0  0  0  0
   -8.1400    7.5760  -10.9421 H   0  0  0  0  0  0  0  0  0  0  0  0
  -10.7815    5.2729  -16.3151 H   0  0  0  0  0  0  0  0  0  0  0  0
  -10.3540    4.4840  -18.6138 H   0  0  0  0  0  0  0  0  0  0  0  0
   -8.0344    4.4797  -19.5436 H   0  0  0  0  0  0  0  0  0  0  0  0
  1  2  1  0
  2  3  2  0
  3  4  1  0
  4  5  1  0
  5  6  2  0
  6  7  1  0
  7  8  2  0
  7  9  1  0
  9 10  1  0
 10 11  1  0
 11 12  2  0
 12 13  1  0
 13 14  1  0
 14 15  1  0
 15 16  1  0
 16 17  1  0
 17 18  1  0
 18 19  2  0
  6 20  1  0
 20 21  2  0
 21 22  1  0
 22 23  2  0
 23  2  1  0
 23  5  1  0
 19 11  1  0
 17 12  1  0
  1 24  1  0
  1 25  1  0
  1 26  1  0
  4 27  1  0
  9 28  1  0
 10 29  1  0
 10 30  1  0
 13 31  1  0
 13 32  1  0
 14 33  1  0
 14 34  1  0
 15 35  1  0
 15 36  1  0
 16 37  1  0
 16 38  1  0
 19 39  1  0
 20 40  1  0
 21 41  1  0
 22 42  1  0
A    1
 C1 
A    2
 C2 
A    3
 N1 
A    4
 N2 
A    5
 C3 
A    6
 C4 
A    7
 C5 
A    8
 O1 
A    9
 N3 
A   10
 C6 
A   11
 C7 
A   12
 C8 
A   13
 C9 
A   14
 C10
A   15
 C11
A   16
 C12
A   17
 N4 
A   18
 N5 
A   19
 C13
A   20
 C14
A   21
 C15
A   22
 C16
A   23
 C17
A   24
 H1 
A   25
 H2 
A   26
 H3 
A   27
 H4 
A   28
 H5 
A   29
 H6 
A   30
 H7 
A   31
 H8 
A   32
 H9 
A   33
 H10
A   34
 H11
A   35
 H12
A   36
 H13
A   37
 H14
A   38
 H15
A   39
 H16
A   40
 H17
A   41
 H18
A   42
 H19
M  END
>  <ref_pdb>  (20) 
x0051_0B

>  <ref_mols>  (20) 
x0435_0B,x0969_1B

>  <original SMILES>  (20) 
[H]c1nn2c(c1C([H])([H])N([H])C(=O)c1c([H])c([H])c([H])c3c(C([H])([H])[H])nn([H])c13)C([H])([H])C([H])([H])C([H])([H])C2([H])[H]

>  <index>  (20) 
34

>  <∆∆G>  (20) 
-7.095099

>  <∆G_bound>  (20) 
-5.445786

>  <∆G_unbound>  (20) 
1.649313

>  <comRMSD>  (20) 
0.947262

>  <N_constrained_atoms>  (20) 
20.0

>  <N_unconstrained_atoms>  (20) 
3.0

>  <runtime>  (20) 
33.031139

>  <LE>  (20) 
0.308483

>  <percent_hybrid>  (20) 
50.0

>  <dist>  (20) 
7.0

>  <ecfp4>  (20) 
0.197674

>  <daylight>  (20) 
0.304878

>  <topodist>  (20) 
1.0

>  <mces>  (20) 
25.0

>  <tdn>  (20) 
0.0

>  <tup>  (20) 
1.0

>  <rdn>  (20) 
0.0

>  <rup>  (20) 
0.0

>  <ldn>  (20) 
0.0

>  <lup>  (20) 
0.0

>  <mut>  (20) 
5.0

>  <maj>  (20) 
5.0

>  <min>  (20) 
0.0

>  <hyb>  (20) 
1.0

>  <sub>  (20) 
0.0

>  <query_index>  (20) 
311.0

>  <max_hit_Tanimoto>  (20) 
0.31736

>  <largest_ring>  (20) 
6

>  <N_interactions_kept>  (20) 
2.5

>  <N_interactions_lost>  (20) 
1.0

>  <interaction_uniqueness_metric>  (20) 
0.21864

>  <ad_hoc_penalty>  (20) 
-39.257141

>  <N_rotatable_bonds>  (20) 
4

>  <N_HA>  (20) 
23

>  <cluster>  (20) 
6185

>  <N_interactions>  (20) 
7

>  <Enamine>  (20) 
1

>  <Mcule>  (20) 
0

>  <N_PAINS>  (20) 
0

>  <UFF_Gibbs>  (20) 
51.021346

>  <strain_per_HA>  (20) 
2.218319

>  <saltbridge:HIS:51>  (20) 
0

>  <pistack:HIS:51>  (20) 
1

>  <hydroph_interaction:HIS:51>  (20) 
0

>  <hbond:ALA:132>  (20) 
0

>  <hbond:SER:135>  (20) 
0

>  <hydroph_interaction:TYR:150>  (20) 
0

>  <pistack:TYR:161>  (20) 
1

>  <hydroph_interaction:TYR:161>  (20) 
2

>  <hydroph_interaction:ASP:83>  (20) 
1

>  <hbond:TYR:130>  (20) 
0

>  <hydroph_interaction:ALA:132>  (20) 
0

>  <hbond:HIS:51>  (20) 
0

>  <hbond:ASP:129>  (20) 
0

>  <hbond:TYR:150>  (20) 
0

>  <hbond:GLY:151>  (20) 
1

>  <hbond:TYR:161>  (20) 
1

>  <hydroph_interaction:TYR:130>  (20) 
0

>  <hydroph_interaction:PRO:131>  (20) 
0

>  <hydroph_interaction:ASP:129>  (20) 
0

>  <saltbridge:ASP:75>  (20) 
0

>  <saltbridge:ASP:83>  (20) 
0

>  <hydroph_interaction:ASN:152>  (20) 
0

>  <halogenbond:TYR:150>  (20) 
0

>  <hbond:ASP:83>  (20) 
0

>  <hydroph_interaction:VAL:155>  (20) 
0

>  <pication:TYR:161>  (20) 
0

>  <hbond:PRO:131>  (20) 
0

>  <hbond:LEU:128>  (20) 
0

>  <saltbridge:ASP:129>  (20) 
0

>  <hbond:THR:134>  (20) 
0

>  <pication:HIS:51>  (20) 
0

>  <hbond:SER:81>  (20) 
0

>  <hbond:GLY:159>  (20) 
0

>  <hydroph_interaction:PRO:101>  (20) 
0

>  <hydroph_interaction:THR:134>  (20) 
0

>  <hbond:GLY:82>  (20) 
0

>  <hydroph_interaction:GLU:104>  (20) 
0

>  <hydroph_interaction:VAL:36>  (20) 
0

>  <hydroph_interaction:MET:49>  (20) 
0

>  <halogenbond:GLU:104>  (20) 
0

>  <hydroph_interaction:LYS:107>  (20) 
0

$$$$
Z2937864202
     RDKit          3D

 45 48  0  0  0  0  0  0  0  0999 V2000
   -9.1474    6.5979  -14.6493 O   0  0  0  0  0  0  0  0  0  0  0  0
   -8.3163    5.7820  -14.1638 C   0  0  0  0  0  0  0  0  0  0  0  0
   -8.2695    5.6155  -12.7375 N   0  0  0  0  0  0  0  0  0  0  0  0
   -7.3590    4.6890  -12.0639 C   0  0  0  0  0  0  0  0  0  0  0  0
   -7.5092    4.7894  -10.5762 C   0  0  0  0  0  0  0  0  0  0  0  0
   -8.5149    4.2668   -9.7896 C   0  0  0  0  0  0  0  0  0  0  0  0
   -9.7185    3.4850  -10.2266 C   0  0  0  0  0  0  0  0  0  0  0  0
  -10.4093    2.8445   -9.0122 C   0  0  0  0  0  0  0  0  0  0  0  0
  -10.5487    3.8451   -7.8525 C   0  0  0  0  0  0  0  0  0  0  0  0
   -9.1691    4.3384   -7.3854 C   0  0  0  0  0  0  0  0  0  0  0  0
   -8.3391    4.7060   -8.5309 N   0  0  0  0  0  0  0  0  0  0  0  0
   -7.2535    5.4604   -8.4619 N   0  0  0  0  0  0  0  0  0  0  0  0
   -6.7344    5.5381   -9.7061 C   0  0  0  0  0  0  0  0  0  0  0  0
   -7.3592    5.0572  -15.0904 C   0  0  0  0  0  0  0  0  0  0  0  0
   -6.0849    5.8925  -15.3290 C   0  0  0  0  0  0  0  0  0  0  0  0
   -6.3470    7.0736  -16.2693 C   0  0  0  0  0  0  0  0  0  0  0  0
   -6.9515    6.6118  -17.5163 N   0  0  0  0  0  0  0  0  0  0  0  0
   -7.8485    5.4914  -17.5493 C   0  0  0  0  0  0  0  0  0  0  0  0
   -8.5139    5.1609  -18.7390 C   0  0  0  0  0  0  0  0  0  0  0  0
   -9.3770    4.0626  -18.7817 C   0  0  0  0  0  0  0  0  0  0  0  0
   -9.5794    3.2863  -17.6389 C   0  0  0  0  0  0  0  0  0  0  0  0
   -8.9181    3.6037  -16.4497 C   0  0  0  0  0  0  0  0  0  0  0  0
   -8.0414    4.7007  -16.3960 C   0  0  0  0  0  0  0  0  0  0  0  0
   -8.9336    6.1862  -12.1649 H   0  0  0  0  0  0  0  0  0  0  0  0
   -7.5833    3.6487  -12.3803 H   0  0  0  0  0  0  0  0  0  0  0  0
   -6.3100    4.9267  -12.3405 H   0  0  0  0  0  0  0  0  0  0  0  0
   -9.4177    2.6920  -10.9435 H   0  0  0  0  0  0  0  0  0  0  0  0
  -10.4260    4.1745  -10.7356 H   0  0  0  0  0  0  0  0  0  0  0  0
  -11.4164    2.4832   -9.3121 H   0  0  0  0  0  0  0  0  0  0  0  0
   -9.8188    1.9659   -8.6708 H   0  0  0  0  0  0  0  0  0  0  0  0
  -11.0739    3.3596   -7.0024 H   0  0  0  0  0  0  0  0  0  0  0  0
  -11.1591    4.7128   -8.1855 H   0  0  0  0  0  0  0  0  0  0  0  0
   -8.6603    3.5312   -6.8158 H   0  0  0  0  0  0  0  0  0  0  0  0
   -9.2960    5.2164   -6.7161 H   0  0  0  0  0  0  0  0  0  0  0  0
   -5.8566    6.1152   -9.9648 H   0  0  0  0  0  0  0  0  0  0  0  0
   -7.0400    4.1049  -14.6181 H   0  0  0  0  0  0  0  0  0  0  0  0
   -5.3057    5.2420  -15.7845 H   0  0  0  0  0  0  0  0  0  0  0  0
   -5.6815    6.2688  -14.3639 H   0  0  0  0  0  0  0  0  0  0  0  0
   -5.3868    7.5864  -16.4917 H   0  0  0  0  0  0  0  0  0  0  0  0
   -7.0235    7.8076  -15.7830 H   0  0  0  0  0  0  0  0  0  0  0  0
   -6.7856    7.1693  -18.3850 H   0  0  0  0  0  0  0  0  0  0  0  0
   -8.3651    5.7554  -19.6315 H   0  0  0  0  0  0  0  0  0  0  0  0
   -9.8901    3.8139  -19.7017 H   0  0  0  0  0  0  0  0  0  0  0  0
  -10.2514    2.4389  -17.6737 H   0  0  0  0  0  0  0  0  0  0  0  0
   -9.0898    2.9978  -15.5688 H   0  0  0  0  0  0  0  0  0  0  0  0
  1  2  2  0
  2  3  1  0
  3  4  1  0
  4  5  1  0
  5  6  2  0
  6  7  1  0
  7  8  1  0
  8  9  1  0
  9 10  1  0
 10 11  1  0
 11 12  1  0
 12 13  2  0
  2 14  1  0
 14 15  1  0
 15 16  1  0
 16 17  1  0
 17 18  1  0
 18 19  2  0
 19 20  1  0
 20 21  2  0
 21 22  1  0
 22 23  2  0
 13  5  1  0
 11  6  1  0
 23 14  1  0
 23 18  1  0
  3 24  1  0
  4 25  1  0
  4 26  1  0
  7 27  1  0
  7 28  1  0
  8 29  1  0
  8 30  1  0
  9 31  1  0
  9 32  1  0
 10 33  1  0
 10 34  1  0
 13 35  1  0
 14 36  1  0
 15 37  1  0
 15 38  1  0
 16 39  1  0
 16 40  1  0
 17 41  1  0
 19 42  1  0
 20 43  1  0
 21 44  1  0
 22 45  1  0
A    1
 O1 
A    2
 C1 
A    3
 N1 
A    4
 C2 
A    5
 C3 
A    6
 C4 
A    7
 C5 
A    8
 C6 
A    9
 C7 
A   10
 C8 
A   11
 N2 
A   12
 N3 
A   13
 C9 
A   14
 C10
A   15
 C11
A   16
 C12
A   17
 N4 
A   18
 C13
A   19
 C14
A   20
 C15
A   21
 C16
A   22
 C17
A   23
 C18
A   24
 H1 
A   25
 H2 
A   26
 H3 
A   27
 H4 
A   28
 H5 
A   29
 H6 
A   30
 H7 
A   31
 H8 
A   32
 H9 
A   33
 H10
A   34
 H11
A   35
 H12
A   36
 H13
A   37
 H14
A   38
 H15
A   39
 H16
A   40
 H17
A   41
 H18
A   42
 H19
A   43
 H20
A   44
 H21
A   45
 H22
M  END
>  <ref_pdb>  (21) 
x0051_0B

>  <ref_mols>  (21) 
x0969_1B,x0455_0B

>  <original SMILES>  (21) 
[H]c1nn2c(c1C([H])([H])N([H])C(=O)C1([H])c3c([H])c([H])c([H])c([H])c3N([H])C([H])([H])C1([H])[H])C([H])([H])C([H])([H])C([H])([H])C2([H])[H]

>  <index>  (21) 
20

>  <∆∆G>  (21) 
-8.9751

>  <∆G_bound>  (21) 
-7.193784

>  <∆G_unbound>  (21) 
1.781315

>  <comRMSD>  (21) 
0.358035

>  <N_constrained_atoms>  (21) 
20.0

>  <N_unconstrained_atoms>  (21) 
3.0

>  <runtime>  (21) 
43.239729

>  <LE>  (21) 
0.390222

>  <percent_hybrid>  (21) 
50.0

>  <dist>  (21) 
5.0

>  <ecfp4>  (21) 
0.358974

>  <daylight>  (21) 
0.318436

>  <topodist>  (21) 
1.0

>  <mces>  (21) 
25.0

>  <tdn>  (21) 
0.0

>  <tup>  (21) 
1.0

>  <rdn>  (21) 
0.0

>  <rup>  (21) 
0.0

>  <ldn>  (21) 
0.0

>  <lup>  (21) 
0.0

>  <mut>  (21) 
3.0

>  <maj>  (21) 
3.0

>  <min>  (21) 
0.0

>  <hyb>  (21) 
1.0

>  <sub>  (21) 
0.0

>  <query_index>  (21) 
204.0

>  <max_hit_Tanimoto>  (21) 
0.320738

>  <largest_ring>  (21) 
6

>  <N_interactions_kept>  (21) 
1.5

>  <N_interactions_lost>  (21) 
1.0

>  <interaction_uniqueness_metric>  (21) 
0.144425

>  <ad_hoc_penalty>  (21) 
-38.842971

>  <N_rotatable_bonds>  (21) 
3

>  <N_HA>  (21) 
23

>  <cluster>  (21) 
6198

>  <N_interactions>  (21) 
6

>  <Enamine>  (21) 
1

>  <Mcule>  (21) 
0

>  <N_PAINS>  (21) 
0

>  <UFF_Gibbs>  (21) 
110.205988

>  <strain_per_HA>  (21) 
4.791565

>  <saltbridge:HIS:51>  (21) 
0

>  <pistack:HIS:51>  (21) 
1

>  <hydroph_interaction:HIS:51>  (21) 
0

>  <hbond:ALA:132>  (21) 
0

>  <hbond:SER:135>  (21) 
0

>  <hydroph_interaction:TYR:150>  (21) 
1

>  <pistack:TYR:161>  (21) 
0

>  <hydroph_interaction:TYR:161>  (21) 
3

>  <hydroph_interaction:ASP:83>  (21) 
1

>  <hbond:TYR:130>  (21) 
0

>  <hydroph_interaction:ALA:132>  (21) 
0

>  <hbond:HIS:51>  (21) 
0

>  <hbond:ASP:129>  (21) 
0

>  <hbond:TYR:150>  (21) 
0

>  <hbond:GLY:151>  (21) 
0

>  <hbond:TYR:161>  (21) 
0

>  <hydroph_interaction:TYR:130>  (21) 
0

>  <hydroph_interaction:PRO:131>  (21) 
0

>  <hydroph_interaction:ASP:129>  (21) 
0

>  <saltbridge:ASP:75>  (21) 
0

>  <saltbridge:ASP:83>  (21) 
0

>  <hydroph_interaction:ASN:152>  (21) 
0

>  <halogenbond:TYR:150>  (21) 
0

>  <hbond:ASP:83>  (21) 
0

>  <hydroph_interaction:VAL:155>  (21) 
0

>  <pication:TYR:161>  (21) 
0

>  <hbond:PRO:131>  (21) 
0

>  <hbond:LEU:128>  (21) 
0

>  <saltbridge:ASP:129>  (21) 
0

>  <hbond:THR:134>  (21) 
0

>  <pication:HIS:51>  (21) 
0

>  <hbond:SER:81>  (21) 
0

>  <hbond:GLY:159>  (21) 
0

>  <hydroph_interaction:PRO:101>  (21) 
0

>  <hydroph_interaction:THR:134>  (21) 
0

>  <hbond:GLY:82>  (21) 
0

>  <hydroph_interaction:GLU:104>  (21) 
0

>  <hydroph_interaction:VAL:36>  (21) 
0

>  <hydroph_interaction:MET:49>  (21) 
0

>  <halogenbond:GLU:104>  (21) 
0

>  <hydroph_interaction:LYS:107>  (21) 
0

$$$$
YWTCEYPALGBLHT-UHFFFAOYSA-N
     RDKit          3D

 48 51  0  0  0  0  0  0  0  0999 V2000
   -9.0245    5.9898  -14.2476 C   0  0  0  0  0  0  0  0  0  0  0  0
   -8.1478    5.4920  -15.2723 N   0  0  0  0  0  0  0  0  0  0  0  0
   -8.4437    5.5724  -16.6782 C   0  0  0  0  0  0  0  0  0  0  0  0
   -7.4078    5.6981  -17.6199 C   0  0  0  0  0  0  0  0  0  0  0  0
   -7.6733    5.7588  -18.9662 C   0  0  0  0  0  0  0  0  0  0  0  0
   -6.4438    5.9063  -19.7774 C   0  0  0  0  0  0  0  0  0  0  0  0
   -5.3154    5.9945  -18.7342 C   0  0  0  0  0  0  0  0  0  0  0  0
   -5.9524    5.7996  -17.3455 C   0  0  0  0  0  0  0  0  0  0  0  0
   -8.9795    5.6806  -19.4514 C   0  0  0  0  0  0  0  0  0  0  0  0
  -10.0312    5.5352  -18.5375 C   0  0  0  0  0  0  0  0  0  0  0  0
   -9.7677    5.4763  -17.1585 C   0  0  0  0  0  0  0  0  0  0  0  0
   -9.8871    6.8647  -14.5348 O   0  0  0  0  0  0  0  0  0  0  0  0
   -8.8959    5.5255  -12.8448 C   0  0  0  0  0  0  0  0  0  0  0  0
   -9.4389    6.2873  -11.7949 C   0  0  0  0  0  0  0  0  0  0  0  0
   -9.3263    5.8546  -10.4708 C   0  0  0  0  0  0  0  0  0  0  0  0
   -8.6749    4.6497  -10.1693 C   0  0  0  0  0  0  0  0  0  0  0  0
   -8.5668    4.2080   -8.8028 N   0  0  0  0  0  0  0  0  0  0  0  0
   -8.7772    2.7953   -8.4601 C   0  0  0  0  0  0  0  0  0  0  0  0
   -9.5063    2.6788   -7.1177 C   0  0  0  0  0  0  0  0  0  0  0  0
   -8.7980    3.5005   -6.0351 C   0  0  0  0  0  0  0  0  0  0  0  0
   -8.6649    4.9658   -6.4642 C   0  0  0  0  0  0  0  0  0  0  0  0
   -7.9294    5.0744   -7.8024 C   0  0  0  0  0  0  0  0  0  0  0  0
   -8.1439    3.8793  -11.2159 C   0  0  0  0  0  0  0  0  0  0  0  0
   -8.2541    4.3115  -12.5406 C   0  0  0  0  0  0  0  0  0  0  0  0
   -7.2044    5.1487  -14.9850 H   0  0  0  0  0  0  0  0  0  0  0  0
   -6.4937    6.8317  -20.3909 H   0  0  0  0  0  0  0  0  0  0  0  0
   -6.3106    5.0174  -20.4312 H   0  0  0  0  0  0  0  0  0  0  0  0
   -4.8237    6.9904  -18.7900 H   0  0  0  0  0  0  0  0  0  0  0  0
   -4.5505    5.2100  -18.9235 H   0  0  0  0  0  0  0  0  0  0  0  0
   -5.5867    4.8615  -16.8752 H   0  0  0  0  0  0  0  0  0  0  0  0
   -5.7425    6.6692  -16.6859 H   0  0  0  0  0  0  0  0  0  0  0  0
   -9.1780    5.7257  -20.5146 H   0  0  0  0  0  0  0  0  0  0  0  0
  -11.0497    5.4606  -18.8958 H   0  0  0  0  0  0  0  0  0  0  0  0
  -10.5942    5.3338  -16.4750 H   0  0  0  0  0  0  0  0  0  0  0  0
   -9.9464    7.2226  -11.9961 H   0  0  0  0  0  0  0  0  0  0  0  0
   -9.7609    6.4527   -9.6799 H   0  0  0  0  0  0  0  0  0  0  0  0
   -9.3916    2.2917   -9.2384 H   0  0  0  0  0  0  0  0  0  0  0  0
   -7.7941    2.2794   -8.4015 H   0  0  0  0  0  0  0  0  0  0  0  0
  -10.5514    3.0415   -7.2335 H   0  0  0  0  0  0  0  0  0  0  0  0
   -9.5436    1.6122   -6.8084 H   0  0  0  0  0  0  0  0  0  0  0  0
   -7.7895    3.0735   -5.8403 H   0  0  0  0  0  0  0  0  0  0  0  0
   -9.3823    3.4458   -5.0914 H   0  0  0  0  0  0  0  0  0  0  0  0
   -8.1055    5.5301   -5.6874 H   0  0  0  0  0  0  0  0  0  0  0  0
   -9.6760    5.4191   -6.5610 H   0  0  0  0  0  0  0  0  0  0  0  0
   -6.8699    4.7633   -7.6730 H   0  0  0  0  0  0  0  0  0  0  0  0
   -7.9312    6.1364   -8.1289 H   0  0  0  0  0  0  0  0  0  0  0  0
   -7.6367    2.9462  -11.0063 H   0  0  0  0  0  0  0  0  0  0  0  0
   -7.8510    3.6828  -13.3236 H   0  0  0  0  0  0  0  0  0  0  0  0
  1  2  1  0
  2  3  1  0
  3  4  1  0
  4  5  2  0
  5  6  1  0
  6  7  1  0
  7  8  1  0
  5  9  1  0
  9 10  2  0
 10 11  1  0
  1 12  2  0
  1 13  1  0
 13 14  2  0
 14 15  1  0
 15 16  2  0
 16 17  1  0
 17 18  1  0
 18 19  1  0
 19 20  1  0
 20 21  1  0
 21 22  1  0
 16 23  1  0
 23 24  2  0
 11  3  2  0
  8  4  1  0
 24 13  1  0
 22 17  1  0
  2 25  1  0
  6 26  1  0
  6 27  1  0
  7 28  1  0
  7 29  1  0
  8 30  1  0
  8 31  1  0
  9 32  1  0
 10 33  1  0
 11 34  1  0
 14 35  1  0
 15 36  1  0
 18 37  1  0
 18 38  1  0
 19 39  1  0
 19 40  1  0
 20 41  1  0
 20 42  1  0
 21 43  1  0
 21 44  1  0
 22 45  1  0
 22 46  1  0
 23 47  1  0
 24 48  1  0
A    1
 C1 
A    2
 N1 
A    3
 C2 
A    4
 C3 
A    5
 C4 
A    6
 C5 
A    7
 C6 
A    8
 C7 
A    9
 C8 
A   10
 C9 
A   11
 C10
A   12
 O1 
A   13
 C11
A   14
 C12
A   15
 C13
A   16
 C14
A   17
 N2 
A   18
 C15
A   19
 C16
A   20
 C17
A   21
 C18
A   22
 C19
A   23
 C20
A   24
 C21
A   25
 H1 
A   26
 H2 
A   27
 H3 
A   28
 H4 
A   29
 H5 
A   30
 H6 
A   31
 H7 
A   32
 H8 
A   33
 H9 
A   34
 H10
A   35
 H11
A   36
 H12
A   37
 H13
A   38
 H14
A   39
 H15
A   40
 H16
A   41
 H17
A   42
 H18
A   43
 H19
A   44
 H20
A   45
 H21
A   46
 H22
A   47
 H23
A   48
 H24
M  END
>  <ref_pdb>  (22) 
x0051_0B

>  <ref_mols>  (22) 
x0435_0B,x0404_0B

>  <original SMILES>  (22) 
[H]c1c([H])c(N([H])C(=O)c2c([H])c([H])c(N3C([H])([H])C([H])([H])C([H])([H])C([H])([H])C3([H])[H])c([H])c2[H])c2c(c1[H])C([H])([H])C([H])([H])C2([H])[H]

>  <index>  (22) 
16

>  <∆∆G>  (22) 
-8.667331

>  <∆G_bound>  (22) 
-8.374644

>  <∆G_unbound>  (22) 
0.292687

>  <comRMSD>  (22) 
0.584941

>  <N_constrained_atoms>  (22) 
25.0

>  <N_unconstrained_atoms>  (22) 
0.0

>  <runtime>  (22) 
88.470773

>  <LE>  (22) 
0.346693

>  <percent_hybrid>  (22) 
40.0

>  <dist>  (22) 
10.0

>  <ecfp4>  (22) 
0.168675

>  <daylight>  (22) 
0.174721

>  <topodist>  (22) 
3.0

>  <mces>  (22) 
27.0

>  <tdn>  (22) 
2.0

>  <tup>  (22) 
0.0

>  <rdn>  (22) 
0.0

>  <rup>  (22) 
0.0

>  <ldn>  (22) 
1.0

>  <lup>  (22) 
0.0

>  <mut>  (22) 
5.0

>  <maj>  (22) 
5.0

>  <min>  (22) 
0.0

>  <hyb>  (22) 
2.0

>  <sub>  (22) 
0.0

>  <query_index>  (22) 
26.0

>  <max_hit_Tanimoto>  (22) 
0.223203

>  <largest_ring>  (22) 
6

>  <N_interactions_kept>  (22) 
3.5

>  <N_interactions_lost>  (22) 
1.0

>  <interaction_uniqueness_metric>  (22) 
0.150876

>  <ad_hoc_penalty>  (22) 
-38.714755

>  <N_rotatable_bonds>  (22) 
3

>  <N_HA>  (22) 
24

>  <cluster>  (22) 
6201

>  <N_interactions>  (22) 
6

>  <Enamine>  (22) 
0

>  <Mcule>  (22) 
1

>  <N_PAINS>  (22) 
0

>  <UFF_Gibbs>  (22) 
163.199026

>  <strain_per_HA>  (22) 
6.527961

>  <saltbridge:HIS:51>  (22) 
0

>  <pistack:HIS:51>  (22) 
1

>  <hydroph_interaction:HIS:51>  (22) 
0

>  <hbond:ALA:132>  (22) 
0

>  <hbond:SER:135>  (22) 
0

>  <hydroph_interaction:TYR:150>  (22) 
0

>  <pistack:TYR:161>  (22) 
0

>  <hydroph_interaction:TYR:161>  (22) 
3

>  <hydroph_interaction:ASP:83>  (22) 
1

>  <hbond:TYR:130>  (22) 
0

>  <hydroph_interaction:ALA:132>  (22) 
1

>  <hbond:HIS:51>  (22) 
0

>  <hbond:ASP:129>  (22) 
0

>  <hbond:TYR:150>  (22) 
0

>  <hbond:GLY:151>  (22) 
0

>  <hbond:TYR:161>  (22) 
0

>  <hydroph_interaction:TYR:130>  (22) 
0

>  <hydroph_interaction:PRO:131>  (22) 
0

>  <hydroph_interaction:ASP:129>  (22) 
0

>  <saltbridge:ASP:75>  (22) 
0

>  <saltbridge:ASP:83>  (22) 
0

>  <hydroph_interaction:ASN:152>  (22) 
0

>  <halogenbond:TYR:150>  (22) 
0

>  <hbond:ASP:83>  (22) 
0

>  <hydroph_interaction:VAL:155>  (22) 
0

>  <pication:TYR:161>  (22) 
0

>  <hbond:PRO:131>  (22) 
0

>  <hbond:LEU:128>  (22) 
0

>  <saltbridge:ASP:129>  (22) 
0

>  <hbond:THR:134>  (22) 
0

>  <pication:HIS:51>  (22) 
0

>  <hbond:SER:81>  (22) 
0

>  <hbond:GLY:159>  (22) 
0

>  <hydroph_interaction:PRO:101>  (22) 
0

>  <hydroph_interaction:THR:134>  (22) 
0

>  <hbond:GLY:82>  (22) 
0

>  <hydroph_interaction:GLU:104>  (22) 
0

>  <hydroph_interaction:VAL:36>  (22) 
0

>  <hydroph_interaction:MET:49>  (22) 
0

>  <halogenbond:GLU:104>  (22) 
0

>  <hydroph_interaction:LYS:107>  (22) 
0

$$$$
Z1694214906
     RDKit          3D

 43 46  0  0  0  0  0  0  0  0999 V2000
   -9.9969    6.9486  -12.5464 O   0  0  0  0  0  0  0  0  0  0  0  0
   -9.6476    5.8449  -12.0457 C   0  0  0  0  0  0  0  0  0  0  0  0
   -9.5462    4.7029  -12.8473 O   0  0  0  0  0  0  0  0  0  0  0  0
   -9.6806    4.7233  -14.2679 C   0  0  0  0  0  0  0  0  0  0  0  0
   -8.4287    5.3358  -14.9404 C   0  0  0  0  0  0  0  0  0  0  0  0
   -7.1580    4.6478  -14.3829 C   0  0  0  0  0  0  0  0  0  0  0  0
   -5.9244    5.0430  -15.1879 C   0  0  0  0  0  0  0  0  0  0  0  0
   -6.1138    4.6986  -16.5552 O   0  0  0  0  0  0  0  0  0  0  0  0
   -7.3307    4.9222  -17.2048 C   0  0  0  0  0  0  0  0  0  0  0  0
   -7.3839    4.8249  -18.5992 C   0  0  0  0  0  0  0  0  0  0  0  0
   -8.5706    5.1036  -19.2782 C   0  0  0  0  0  0  0  0  0  0  0  0
   -9.7062    5.4922  -18.5668 C   0  0  0  0  0  0  0  0  0  0  0  0
   -9.6676    5.5764  -17.1720 C   0  0  0  0  0  0  0  0  0  0  0  0
   -8.4928    5.2451  -16.4657 C   0  0  0  0  0  0  0  0  0  0  0  0
   -9.3553    5.7592  -10.6071 C   0  0  0  0  0  0  0  0  0  0  0  0
   -8.8710    4.6821   -9.8873 C   0  0  0  0  0  0  0  0  0  0  0  0
   -8.5560    3.2963  -10.3752 C   0  0  0  0  0  0  0  0  0  0  0  0
   -7.7526    2.5188   -9.3200 C   0  0  0  0  0  0  0  0  0  0  0  0
   -8.3343    2.7146   -7.9111 C   0  0  0  0  0  0  0  0  0  0  0  0
   -8.2958    4.1970   -7.5085 C   0  0  0  0  0  0  0  0  0  0  0  0
   -8.8046    5.0371   -8.5909 N   0  0  0  0  0  0  0  0  0  0  0  0
   -9.1771    6.2987   -8.4459 N   0  0  0  0  0  0  0  0  0  0  0  0
   -9.5241    6.7619   -9.6650 C   0  0  0  0  0  0  0  0  0  0  0  0
  -10.5998    5.2865  -14.5306 H   0  0  0  0  0  0  0  0  0  0  0  0
   -9.8120    3.6779  -14.6209 H   0  0  0  0  0  0  0  0  0  0  0  0
   -8.3798    6.4146  -14.6759 H   0  0  0  0  0  0  0  0  0  0  0  0
   -7.2715    3.5417  -14.4278 H   0  0  0  0  0  0  0  0  0  0  0  0
   -7.0002    4.9385  -13.3215 H   0  0  0  0  0  0  0  0  0  0  0  0
   -5.7544    6.1383  -15.1033 H   0  0  0  0  0  0  0  0  0  0  0  0
   -5.0298    4.5143  -14.7971 H   0  0  0  0  0  0  0  0  0  0  0  0
   -6.4970    4.5536  -19.1577 H   0  0  0  0  0  0  0  0  0  0  0  0
   -8.6046    5.0379  -20.3580 H   0  0  0  0  0  0  0  0  0  0  0  0
  -10.6181    5.7341  -19.0974 H   0  0  0  0  0  0  0  0  0  0  0  0
  -10.5575    5.9065  -16.6563 H   0  0  0  0  0  0  0  0  0  0  0  0
   -7.9635    3.3477  -11.3130 H   0  0  0  0  0  0  0  0  0  0  0  0
   -9.5097    2.7651  -10.5821 H   0  0  0  0  0  0  0  0  0  0  0  0
   -7.7603    1.4377   -9.5768 H   0  0  0  0  0  0  0  0  0  0  0  0
   -6.6951    2.8639   -9.3315 H   0  0  0  0  0  0  0  0  0  0  0  0
   -7.7483    2.1179   -7.1794 H   0  0  0  0  0  0  0  0  0  0  0  0
   -9.3853    2.3514   -7.8913 H   0  0  0  0  0  0  0  0  0  0  0  0
   -7.2486    4.4932   -7.2834 H   0  0  0  0  0  0  0  0  0  0  0  0
   -8.9095    4.3493   -6.5948 H   0  0  0  0  0  0  0  0  0  0  0  0
   -9.8839    7.7649   -9.8530 H   0  0  0  0  0  0  0  0  0  0  0  0
  1  2  2  0
  2  3  1  0
  3  4  1  0
  4  5  1  0
  5  6  1  0
  6  7  1  0
  7  8  1  0
  8  9  1  0
  9 10  2  0
 10 11  1  0
 11 12  2  0
 12 13  1  0
 13 14  2  0
  2 15  1  0
 15 16  2  0
 16 17  1  0
 17 18  1  0
 18 19  1  0
 19 20  1  0
 20 21  1  0
 21 22  1  0
 22 23  2  0
 14  5  1  0
 14  9  1  0
 23 15  1  0
 21 16  1  0
  4 24  1  0
  4 25  1  0
  5 26  1  0
  6 27  1  0
  6 28  1  0
  7 29  1  0
  7 30  1  0
 10 31  1  0
 11 32  1  0
 12 33  1  0
 13 34  1  0
 17 35  1  0
 17 36  1  0
 18 37  1  0
 18 38  1  0
 19 39  1  0
 19 40  1  0
 20 41  1  0
 20 42  1  0
 23 43  1  0
A    1
 O1 
A    2
 C1 
A    3
 O2 
A    4
 C2 
A    5
 C3 
A    6
 C4 
A    7
 C5 
A    8
 O3 
A    9
 C6 
A   10
 C7 
A   11
 C8 
A   12
 C9 
A   13
 C10
A   14
 C11
A   15
 C12
A   16
 C13
A   17
 C14
A   18
 C15
A   19
 C16
A   20
 C17
A   21
 N1 
A   22
 N2 
A   23
 C18
A   24
 H1 
A   25
 H2 
A   26
 H3 
A   27
 H4 
A   28
 H5 
A   29
 H6 
A   30
 H7 
A   31
 H8 
A   32
 H9 
A   33
 H10
A   34
 H11
A   35
 H12
A   36
 H13
A   37
 H14
A   38
 H15
A   39
 H16
A   40
 H17
A   41
 H18
A   42
 H19
A   43
 H20
M  END
>  <ref_pdb>  (23) 
x0051_0B

>  <ref_mols>  (23) 
x0969_1B,x0455_0B

>  <original SMILES>  (23) 
[H]c1nn2c(c1C(=O)OC([H])([H])C1([H])c3c([H])c([H])c([H])c([H])c3OC([H])([H])C1([H])[H])C([H])([H])C([H])([H])C([H])([H])C2([H])[H]

>  <index>  (23) 
39

>  <∆∆G>  (23) 
-7.311732

>  <∆G_bound>  (23) 
-6.679815

>  <∆G_unbound>  (23) 
0.631917

>  <comRMSD>  (23) 
0.318446

>  <N_constrained_atoms>  (23) 
20.0

>  <N_unconstrained_atoms>  (23) 
3.0

>  <runtime>  (23) 
58.583165

>  <LE>  (23) 
0.317901

>  <percent_hybrid>  (23) 
50.0

>  <dist>  (23) 
5.0

>  <ecfp4>  (23) 
0.277108

>  <daylight>  (23) 
0.345714

>  <topodist>  (23) 
1.0

>  <mces>  (23) 
25.0

>  <tdn>  (23) 
0.0

>  <tup>  (23) 
1.0

>  <rdn>  (23) 
0.0

>  <rup>  (23) 
0.0

>  <ldn>  (23) 
0.0

>  <lup>  (23) 
0.0

>  <mut>  (23) 
3.0

>  <maj>  (23) 
3.0

>  <min>  (23) 
0.0

>  <hyb>  (23) 
1.0

>  <sub>  (23) 
0.0

>  <query_index>  (23) 
204.0

>  <max_hit_Tanimoto>  (23) 
0.294764

>  <largest_ring>  (23) 
6

>  <N_interactions_kept>  (23) 
1.0

>  <N_interactions_lost>  (23) 
1.5

>  <interaction_uniqueness_metric>  (23) 
0.241738

>  <ad_hoc_penalty>  (23) 
-38.713967

>  <N_rotatable_bonds>  (23) 
3

>  <N_HA>  (23) 
23

>  <cluster>  (23) 
6180

>  <N_interactions>  (23) 
7

>  <Enamine>  (23) 
1

>  <Mcule>  (23) 
0

>  <N_PAINS>  (23) 
0

>  <UFF_Gibbs>  (23) 
42.567303

>  <strain_per_HA>  (23) 
1.850752

>  <saltbridge:HIS:51>  (23) 
1

>  <pistack:HIS:51>  (23) 
0

>  <hydroph_interaction:HIS:51>  (23) 
1

>  <hbond:ALA:132>  (23) 
0

>  <hbond:SER:135>  (23) 
0

>  <hydroph_interaction:TYR:150>  (23) 
1

>  <pistack:TYR:161>  (23) 
0

>  <hydroph_interaction:TYR:161>  (23) 
3

>  <hydroph_interaction:ASP:83>  (23) 
1

>  <hbond:TYR:130>  (23) 
0

>  <hydroph_interaction:ALA:132>  (23) 
0

>  <hbond:HIS:51>  (23) 
0

>  <hbond:ASP:129>  (23) 
0

>  <hbond:TYR:150>  (23) 
0

>  <hbond:GLY:151>  (23) 
0

>  <hbond:TYR:161>  (23) 
0

>  <hydroph_interaction:TYR:130>  (23) 
0

>  <hydroph_interaction:PRO:131>  (23) 
0

>  <hydroph_interaction:ASP:129>  (23) 
0

>  <saltbridge:ASP:75>  (23) 
0

>  <saltbridge:ASP:83>  (23) 
0

>  <hydroph_interaction:ASN:152>  (23) 
0

>  <halogenbond:TYR:150>  (23) 
0

>  <hbond:ASP:83>  (23) 
0

>  <hydroph_interaction:VAL:155>  (23) 
0

>  <pication:TYR:161>  (23) 
0

>  <hbond:PRO:131>  (23) 
0

>  <hbond:LEU:128>  (23) 
0

>  <saltbridge:ASP:129>  (23) 
0

>  <hbond:THR:134>  (23) 
0

>  <pication:HIS:51>  (23) 
0

>  <hbond:SER:81>  (23) 
0

>  <hbond:GLY:159>  (23) 
0

>  <hydroph_interaction:PRO:101>  (23) 
0

>  <hydroph_interaction:THR:134>  (23) 
0

>  <hbond:GLY:82>  (23) 
0

>  <hydroph_interaction:GLU:104>  (23) 
0

>  <hydroph_interaction:VAL:36>  (23) 
0

>  <hydroph_interaction:MET:49>  (23) 
0

>  <halogenbond:GLU:104>  (23) 
0

>  <hydroph_interaction:LYS:107>  (23) 
0

$$$$
Z1494818160
     RDKit          3D

 45 48  0  0  0  0  0  0  0  0999 V2000
  -10.1114    6.9861  -12.5784 O   0  0  0  0  0  0  0  0  0  0  0  0
   -9.7315    5.8881  -12.0874 C   0  0  0  0  0  0  0  0  0  0  0  0
   -9.5816    4.7610  -12.9020 O   0  0  0  0  0  0  0  0  0  0  0  0
   -9.6886    4.7979  -14.3245 C   0  0  0  0  0  0  0  0  0  0  0  0
   -8.4373    5.4491  -14.9599 C   0  0  0  0  0  0  0  0  0  0  0  0
   -7.1656    4.7658  -14.4012 C   0  0  0  0  0  0  0  0  0  0  0  0
   -5.9386    5.0690  -15.2537 C   0  0  0  0  0  0  0  0  0  0  0  0
   -6.1348    4.4941  -16.6534 C   0  0  0  0  0  0  0  0  0  0  0  0
   -7.4108    4.9945  -17.2794 C   0  0  0  0  0  0  0  0  0  0  0  0
   -7.5170    4.9960  -18.6800 C   0  0  0  0  0  0  0  0  0  0  0  0
   -8.6681    5.4775  -19.3026 C   0  0  0  0  0  0  0  0  0  0  0  0
   -9.7216    5.9694  -18.5351 C   0  0  0  0  0  0  0  0  0  0  0  0
   -9.6399    5.9567  -17.1414 C   0  0  0  0  0  0  0  0  0  0  0  0
   -8.5086    5.4252  -16.4882 C   0  0  0  0  0  0  0  0  0  0  0  0
   -9.4548    5.7929  -10.6463 C   0  0  0  0  0  0  0  0  0  0  0  0
   -8.9353    4.7260   -9.9363 C   0  0  0  0  0  0  0  0  0  0  0  0
   -8.5551    3.3626  -10.4409 C   0  0  0  0  0  0  0  0  0  0  0  0
   -7.7320    2.6040   -9.3872 C   0  0  0  0  0  0  0  0  0  0  0  0
   -8.3386    2.7530   -7.9830 C   0  0  0  0  0  0  0  0  0  0  0  0
   -8.3686    4.2293   -7.5579 C   0  0  0  0  0  0  0  0  0  0  0  0
   -8.8994    5.0636   -8.6341 N   0  0  0  0  0  0  0  0  0  0  0  0
   -9.3254    6.3066   -8.4755 N   0  0  0  0  0  0  0  0  0  0  0  0
   -9.6763    6.7735   -9.6921 C   0  0  0  0  0  0  0  0  0  0  0  0
  -10.6178    5.3372  -14.6018 H   0  0  0  0  0  0  0  0  0  0  0  0
   -9.7857    3.7547  -14.6947 H   0  0  0  0  0  0  0  0  0  0  0  0
   -8.4051    6.5181  -14.6550 H   0  0  0  0  0  0  0  0  0  0  0  0
   -6.9776    5.1231  -13.3650 H   0  0  0  0  0  0  0  0  0  0  0  0
   -7.3056    3.6621  -14.3549 H   0  0  0  0  0  0  0  0  0  0  0  0
   -5.0408    4.6072  -14.7889 H   0  0  0  0  0  0  0  0  0  0  0  0
   -5.7761    6.1681  -15.3102 H   0  0  0  0  0  0  0  0  0  0  0  0
   -6.1681    3.3840  -16.6035 H   0  0  0  0  0  0  0  0  0  0  0  0
   -5.2619    4.7847  -17.2780 H   0  0  0  0  0  0  0  0  0  0  0  0
   -6.6988    4.6358  -19.2918 H   0  0  0  0  0  0  0  0  0  0  0  0
   -8.7364    5.4849  -20.3828 H   0  0  0  0  0  0  0  0  0  0  0  0
  -10.6030    6.3677  -19.0211 H   0  0  0  0  0  0  0  0  0  0  0  0
  -10.4616    6.3759  -16.5776 H   0  0  0  0  0  0  0  0  0  0  0  0
   -7.9540    3.4540  -11.3702 H   0  0  0  0  0  0  0  0  0  0  0  0
   -9.4825    2.7944  -10.6679 H   0  0  0  0  0  0  0  0  0  0  0  0
   -7.6901    1.5276   -9.6602 H   0  0  0  0  0  0  0  0  0  0  0  0
   -6.6902    2.9941   -9.3800 H   0  0  0  0  0  0  0  0  0  0  0  0
   -9.3732    2.3450   -7.9821 H   0  0  0  0  0  0  0  0  0  0  0  0
   -7.7365    2.1705   -7.2529 H   0  0  0  0  0  0  0  0  0  0  0  0
   -8.9995    4.3411   -6.6500 H   0  0  0  0  0  0  0  0  0  0  0  0
   -7.3378    4.5662   -7.3147 H   0  0  0  0  0  0  0  0  0  0  0  0
  -10.0746    7.7637   -9.8701 H   0  0  0  0  0  0  0  0  0  0  0  0
  1  2  2  0
  2  3  1  0
  3  4  1  0
  4  5  1  0
  5  6  1  0
  6  7  1  0
  7  8  1  0
  8  9  1  0
  9 10  2  0
 10 11  1  0
 11 12  2  0
 12 13  1  0
 13 14  2  0
  2 15  1  0
 15 16  2  0
 16 17  1  0
 17 18  1  0
 18 19  1  0
 19 20  1  0
 20 21  1  0
 21 22  1  0
 22 23  2  0
 14  5  1  0
 14  9  1  0
 23 15  1  0
 21 16  1  0
  4 24  1  0
  4 25  1  0
  5 26  1  0
  6 27  1  0
  6 28  1  0
  7 29  1  0
  7 30  1  0
  8 31  1  0
  8 32  1  0
 10 33  1  0
 11 34  1  0
 12 35  1  0
 13 36  1  0
 17 37  1  0
 17 38  1  0
 18 39  1  0
 18 40  1  0
 19 41  1  0
 19 42  1  0
 20 43  1  0
 20 44  1  0
 23 45  1  0
A    1
 O1 
A    2
 C1 
A    3
 O2 
A    4
 C2 
A    5
 C3 
A    6
 C4 
A    7
 C5 
A    8
 C6 
A    9
 C7 
A   10
 C8 
A   11
 C9 
A   12
 C10
A   13
 C11
A   14
 C12
A   15
 C13
A   16
 C14
A   17
 C15
A   18
 C16
A   19
 C17
A   20
 C18
A   21
 N1 
A   22
 N2 
A   23
 C19
A   24
 H1 
A   25
 H2 
A   26
 H3 
A   27
 H4 
A   28
 H5 
A   29
 H6 
A   30
 H7 
A   31
 H8 
A   32
 H9 
A   33
 H10
A   34
 H11
A   35
 H12
A   36
 H13
A   37
 H14
A   38
 H15
A   39
 H16
A   40
 H17
A   41
 H18
A   42
 H19
A   43
 H20
A   44
 H21
A   45
 H22
M  END
>  <ref_pdb>  (24) 
x0051_0B

>  <ref_mols>  (24) 
x0969_1B,x0455_0B

>  <original SMILES>  (24) 
[H]c1nn2c(c1C(=O)OC([H])([H])C1([H])c3c([H])c([H])c([H])c([H])c3C([H])([H])C([H])([H])C1([H])[H])C([H])([H])C([H])([H])C([H])([H])C2([H])[H]

>  <index>  (24) 
27

>  <∆∆G>  (24) 
-7.964527

>  <∆G_bound>  (24) 
-6.96366

>  <∆G_unbound>  (24) 
1.000867

>  <comRMSD>  (24) 
0.329246

>  <N_constrained_atoms>  (24) 
20.0

>  <N_unconstrained_atoms>  (24) 
3.0

>  <runtime>  (24) 
65.709287

>  <LE>  (24) 
0.346284

>  <percent_hybrid>  (24) 
50.0

>  <dist>  (24) 
5.0

>  <ecfp4>  (24) 
0.26506

>  <daylight>  (24) 
0.348214

>  <topodist>  (24) 
1.0

>  <mces>  (24) 
25.0

>  <tdn>  (24) 
0.0

>  <tup>  (24) 
1.0

>  <rdn>  (24) 
0.0

>  <rup>  (24) 
0.0

>  <ldn>  (24) 
0.0

>  <lup>  (24) 
0.0

>  <mut>  (24) 
3.0

>  <maj>  (24) 
3.0

>  <min>  (24) 
0.0

>  <hyb>  (24) 
1.0

>  <sub>  (24) 
0.0

>  <query_index>  (24) 
204.0

>  <max_hit_Tanimoto>  (24) 
0.30423

>  <largest_ring>  (24) 
6

>  <N_interactions_kept>  (24) 
1.0

>  <N_interactions_lost>  (24) 
1.5

>  <interaction_uniqueness_metric>  (24) 
0.276363

>  <ad_hoc_penalty>  (24) 
-38.654557

>  <N_rotatable_bonds>  (24) 
3

>  <N_HA>  (24) 
23

>  <cluster>  (24) 
6191

>  <N_interactions>  (24) 
7

>  <Enamine>  (24) 
1

>  <Mcule>  (24) 
0

>  <N_PAINS>  (24) 
0

>  <UFF_Gibbs>  (24) 
105.121892

>  <strain_per_HA>  (24) 
4.570517

>  <saltbridge:HIS:51>  (24) 
1

>  <pistack:HIS:51>  (24) 
1

>  <hydroph_interaction:HIS:51>  (24) 
1

>  <hbond:ALA:132>  (24) 
0

>  <hbond:SER:135>  (24) 
0

>  <hydroph_interaction:TYR:150>  (24) 
1

>  <pistack:TYR:161>  (24) 
1

>  <hydroph_interaction:TYR:161>  (24) 
1

>  <hydroph_interaction:ASP:83>  (24) 
1

>  <hbond:TYR:130>  (24) 
0

>  <hydroph_interaction:ALA:132>  (24) 
0

>  <hbond:HIS:51>  (24) 
0

>  <hbond:ASP:129>  (24) 
0

>  <hbond:TYR:150>  (24) 
0

>  <hbond:GLY:151>  (24) 
0

>  <hbond:TYR:161>  (24) 
0

>  <hydroph_interaction:TYR:130>  (24) 
0

>  <hydroph_interaction:PRO:131>  (24) 
0

>  <hydroph_interaction:ASP:129>  (24) 
0

>  <saltbridge:ASP:75>  (24) 
0

>  <saltbridge:ASP:83>  (24) 
0

>  <hydroph_interaction:ASN:152>  (24) 
0

>  <halogenbond:TYR:150>  (24) 
0

>  <hbond:ASP:83>  (24) 
0

>  <hydroph_interaction:VAL:155>  (24) 
0

>  <pication:TYR:161>  (24) 
0

>  <hbond:PRO:131>  (24) 
0

>  <hbond:LEU:128>  (24) 
0

>  <saltbridge:ASP:129>  (24) 
0

>  <hbond:THR:134>  (24) 
0

>  <pication:HIS:51>  (24) 
0

>  <hbond:SER:81>  (24) 
0

>  <hbond:GLY:159>  (24) 
0

>  <hydroph_interaction:PRO:101>  (24) 
0

>  <hydroph_interaction:THR:134>  (24) 
0

>  <hbond:GLY:82>  (24) 
0

>  <hydroph_interaction:GLU:104>  (24) 
0

>  <hydroph_interaction:VAL:36>  (24) 
0

>  <hydroph_interaction:MET:49>  (24) 
0

>  <halogenbond:GLU:104>  (24) 
0

>  <hydroph_interaction:LYS:107>  (24) 
0

$$$$
HEZJKFBFKCYDLE-UHFFFAOYSA-N
     RDKit          3D

 49 52  0  0  0  0  0  0  0  0999 V2000
   -8.9579    6.0229  -14.1933 C   0  0  0  0  0  0  0  0  0  0  0  0
   -8.0814    5.4996  -15.2055 N   0  0  0  0  0  0  0  0  0  0  0  0
   -8.3245    5.6400  -16.6166 C   0  0  0  0  0  0  0  0  0  0  0  0
   -7.2519    5.7189  -17.5206 C   0  0  0  0  0  0  0  0  0  0  0  0
   -7.4760    5.8390  -18.8707 C   0  0  0  0  0  0  0  0  0  0  0  0
   -6.2101    5.9256  -19.5535 C   0  0  0  0  0  0  0  0  0  0  0  0
   -5.0856    5.8614  -18.5757 C   0  0  0  0  0  0  0  0  0  0  0  0
   -5.7852    5.7155  -17.2037 C   0  0  0  0  0  0  0  0  0  0  0  0
   -6.0705    6.0420  -20.7996 O   0  0  0  0  0  0  0  0  0  0  0  0
   -8.7628    5.8709  -19.4061 C   0  0  0  0  0  0  0  0  0  0  0  0
   -9.8505    5.7713  -18.5280 C   0  0  0  0  0  0  0  0  0  0  0  0
   -9.6363    5.6517  -17.1425 C   0  0  0  0  0  0  0  0  0  0  0  0
   -9.7514    6.9614  -14.4789 O   0  0  0  0  0  0  0  0  0  0  0  0
   -8.9068    5.5087  -12.8030 C   0  0  0  0  0  0  0  0  0  0  0  0
   -9.4367    6.2706  -11.7470 C   0  0  0  0  0  0  0  0  0  0  0  0
   -9.3968    5.7914  -10.4348 C   0  0  0  0  0  0  0  0  0  0  0  0
   -8.8287    4.5397  -10.1500 C   0  0  0  0  0  0  0  0  0  0  0  0
   -8.8012    4.0421   -8.7976 N   0  0  0  0  0  0  0  0  0  0  0  0
   -9.1715    2.6483   -8.5166 C   0  0  0  0  0  0  0  0  0  0  0  0
   -9.4850    2.4589   -7.0286 C   0  0  0  0  0  0  0  0  0  0  0  0
  -10.1963    3.6498   -6.5320 N   0  0  0  0  0  0  0  0  0  0  0  0
  -10.7579    3.3960   -5.1970 C   0  0  0  0  0  0  0  0  0  0  0  0
   -9.3122    4.8395   -6.5043 C   0  0  0  0  0  0  0  0  0  0  0  0
   -8.3290    4.8865   -7.6931 C   0  0  0  0  0  0  0  0  0  0  0  0
   -8.3177    3.7679  -11.2057 C   0  0  0  0  0  0  0  0  0  0  0  0
   -8.3551    4.2469  -12.5183 C   0  0  0  0  0  0  0  0  0  0  0  0
   -7.1716    5.0881  -14.9000 H   0  0  0  0  0  0  0  0  0  0  0  0
   -4.4418    4.9815  -18.7894 H   0  0  0  0  0  0  0  0  0  0  0  0
   -4.4875    6.7968  -18.6188 H   0  0  0  0  0  0  0  0  0  0  0  0
   -5.4996    4.7568  -16.7198 H   0  0  0  0  0  0  0  0  0  0  0  0
   -5.5345    6.5705  -16.5396 H   0  0  0  0  0  0  0  0  0  0  0  0
   -8.9209    5.9649  -20.4728 H   0  0  0  0  0  0  0  0  0  0  0  0
  -10.8599    5.7803  -18.9185 H   0  0  0  0  0  0  0  0  0  0  0  0
  -10.4929    5.5475  -16.4900 H   0  0  0  0  0  0  0  0  0  0  0  0
   -9.8795    7.2411  -11.9341 H   0  0  0  0  0  0  0  0  0  0  0  0
   -9.8280    6.3905   -9.6430 H   0  0  0  0  0  0  0  0  0  0  0  0
   -8.3465    1.9667   -8.8141 H   0  0  0  0  0  0  0  0  0  0  0  0
  -10.0790    2.3875   -9.1046 H   0  0  0  0  0  0  0  0  0  0  0  0
  -10.1140    1.5477   -6.9153 H   0  0  0  0  0  0  0  0  0  0  0  0
   -8.5412    2.2999   -6.4578 H   0  0  0  0  0  0  0  0  0  0  0  0
   -9.9631    3.1040   -4.4747 H   0  0  0  0  0  0  0  0  0  0  0  0
  -11.2753    4.3048   -4.8202 H   0  0  0  0  0  0  0  0  0  0  0  0
  -11.5141    2.5838   -5.2511 H   0  0  0  0  0  0  0  0  0  0  0  0
   -9.9514    5.7483   -6.5394 H   0  0  0  0  0  0  0  0  0  0  0  0
   -8.7210    4.8823   -5.5606 H   0  0  0  0  0  0  0  0  0  0  0  0
   -8.1731    5.9385   -8.0147 H   0  0  0  0  0  0  0  0  0  0  0  0
   -7.3392    4.5039   -7.3614 H   0  0  0  0  0  0  0  0  0  0  0  0
   -7.8805    2.7968  -11.0148 H   0  0  0  0  0  0  0  0  0  0  0  0
   -7.9679    3.6172  -13.3085 H   0  0  0  0  0  0  0  0  0  0  0  0
  1  2  1  0
  2  3  1  0
  3  4  1  0
  4  5  2  0
  5  6  1  0
  6  7  1  0
  7  8  1  0
  6  9  2  0
  5 10  1  0
 10 11  2  0
 11 12  1  0
  1 13  2  0
  1 14  1  0
 14 15  2  0
 15 16  1  0
 16 17  2  0
 17 18  1  0
 18 19  1  0
 19 20  1  0
 20 21  1  0
 21 22  1  0
 21 23  1  0
 23 24  1  0
 17 25  1  0
 25 26  2  0
 12  3  2  0
  8  4  1  0
 26 14  1  0
 24 18  1  0
  2 27  1  0
  7 28  1  0
  7 29  1  0
  8 30  1  0
  8 31  1  0
 10 32  1  0
 11 33  1  0
 12 34  1  0
 15 35  1  0
 16 36  1  0
 19 37  1  0
 19 38  1  0
 20 39  1  0
 20 40  1  0
 22 41  1  0
 22 42  1  0
 22 43  1  0
 23 44  1  0
 23 45  1  0
 24 46  1  0
 24 47  1  0
 25 48  1  0
 26 49  1  0
A    1
 C1 
A    2
 N1 
A    3
 C2 
A    4
 C3 
A    5
 C4 
A    6
 C5 
A    7
 C6 
A    8
 C7 
A    9
 O1 
A   10
 C8 
A   11
 C9 
A   12
 C10
A   13
 O2 
A   14
 C11
A   15
 C12
A   16
 C13
A   17
 C14
A   18
 N2 
A   19
 C15
A   20
 C16
A   21
 N3 
A   22
 C17
A   23
 C18
A   24
 C19
A   25
 C20
A   26
 C21
A   27
 H1 
A   28
 H2 
A   29
 H3 
A   30
 H4 
A   31
 H5 
A   32
 H6 
A   33
 H7 
A   34
 H8 
A   35
 H9 
A   36
 H10
A   37
 H11
A   38
 H12
A   39
 H13
A   40
 H14
A   41
 H15
A   42
 H16
A   43
 H17
A   44
 H18
A   45
 H19
A   46
 H20
A   47
 H21
A   48
 H22
A   49
 H23
M  END
>  <ref_pdb>  (25) 
x0051_0B

>  <ref_mols>  (25) 
x0435_0B,x0404_0B

>  <original SMILES>  (25) 
[H]c1c([H])c2c(c(N([H])C(=O)c3c([H])c([H])c(N4C([H])([H])C([H])([H])N(C([H])([H])[H])C([H])([H])C4([H])[H])c([H])c3[H])c1[H])C([H])([H])C([H])([H])C2=O

>  <index>  (25) 
30

>  <∆∆G>  (25) 
-8.51008

>  <∆G_bound>  (25) 
-8.074904

>  <∆G_unbound>  (25) 
0.435176

>  <comRMSD>  (25) 
0.583971

>  <N_constrained_atoms>  (25) 
25.0

>  <N_unconstrained_atoms>  (25) 
1.0

>  <runtime>  (25) 
82.92692

>  <LE>  (25) 
0.327311

>  <percent_hybrid>  (25) 
40.0

>  <dist>  (25) 
9.0

>  <ecfp4>  (25) 
0.170455

>  <daylight>  (25) 
0.207407

>  <topodist>  (25) 
3.0

>  <mces>  (25) 
28.0

>  <tdn>  (25) 
1.0

>  <tup>  (25) 
1.0

>  <rdn>  (25) 
0.0

>  <rup>  (25) 
0.0

>  <ldn>  (25) 
1.0

>  <lup>  (25) 
0.0

>  <mut>  (25) 
5.0

>  <maj>  (25) 
5.0

>  <min>  (25) 
0.0

>  <hyb>  (25) 
1.0

>  <sub>  (25) 
1.0

>  <query_index>  (25) 
26.0

>  <max_hit_Tanimoto>  (25) 
0.257242

>  <largest_ring>  (25) 
6

>  <N_interactions_kept>  (25) 
3.5

>  <N_interactions_lost>  (25) 
1.0

>  <interaction_uniqueness_metric>  (25) 
0.168723

>  <ad_hoc_penalty>  (25) 
-38.467743

>  <N_rotatable_bonds>  (25) 
4

>  <N_HA>  (25) 
26

>  <cluster>  (25) 
6189

>  <N_interactions>  (25) 
6

>  <Enamine>  (25) 
0

>  <Mcule>  (25) 
1

>  <N_PAINS>  (25) 
0

>  <UFF_Gibbs>  (25) 
83.049074

>  <strain_per_HA>  (25) 
3.194195

>  <saltbridge:HIS:51>  (25) 
0

>  <pistack:HIS:51>  (25) 
1

>  <hydroph_interaction:HIS:51>  (25) 
0

>  <hbond:ALA:132>  (25) 
0

>  <hbond:SER:135>  (25) 
0

>  <hydroph_interaction:TYR:150>  (25) 
0

>  <pistack:TYR:161>  (25) 
0

>  <hydroph_interaction:TYR:161>  (25) 
3

>  <hydroph_interaction:ASP:83>  (25) 
0

>  <hbond:TYR:130>  (25) 
0

>  <hydroph_interaction:ALA:132>  (25) 
1

>  <hbond:HIS:51>  (25) 
0

>  <hbond:ASP:129>  (25) 
0

>  <hbond:TYR:150>  (25) 
0

>  <hbond:GLY:151>  (25) 
0

>  <hbond:TYR:161>  (25) 
0

>  <hydroph_interaction:TYR:130>  (25) 
0

>  <hydroph_interaction:PRO:131>  (25) 
0

>  <hydroph_interaction:ASP:129>  (25) 
0

>  <saltbridge:ASP:75>  (25) 
1

>  <saltbridge:ASP:83>  (25) 
0

>  <hydroph_interaction:ASN:152>  (25) 
0

>  <halogenbond:TYR:150>  (25) 
0

>  <hbond:ASP:83>  (25) 
0

>  <hydroph_interaction:VAL:155>  (25) 
0

>  <pication:TYR:161>  (25) 
0

>  <hbond:PRO:131>  (25) 
0

>  <hbond:LEU:128>  (25) 
0

>  <saltbridge:ASP:129>  (25) 
0

>  <hbond:THR:134>  (25) 
0

>  <pication:HIS:51>  (25) 
0

>  <hbond:SER:81>  (25) 
0

>  <hbond:GLY:159>  (25) 
0

>  <hydroph_interaction:PRO:101>  (25) 
0

>  <hydroph_interaction:THR:134>  (25) 
0

>  <hbond:GLY:82>  (25) 
0

>  <hydroph_interaction:GLU:104>  (25) 
0

>  <hydroph_interaction:VAL:36>  (25) 
0

>  <hydroph_interaction:MET:49>  (25) 
0

>  <halogenbond:GLU:104>  (25) 
0

>  <hydroph_interaction:LYS:107>  (25) 
0

$$$$
Z2853451091
     RDKit          3D

 45 48  0  0  0  0  0  0  0  0999 V2000
   -9.6973    4.5405  -18.6637 C   0  0  0  0  0  0  0  0  0  0  0  0
  -10.3945    4.4625  -17.4599 C   0  0  0  0  0  0  0  0  0  0  0  0
   -9.7145    4.5947  -16.2481 C   0  0  0  0  0  0  0  0  0  0  0  0
   -8.3211    4.8017  -16.2186 C   0  0  0  0  0  0  0  0  0  0  0  0
   -7.6138    4.8303  -17.4488 C   0  0  0  0  0  0  0  0  0  0  0  0
   -8.3144    4.7230  -18.6580 C   0  0  0  0  0  0  0  0  0  0  0  0
   -5.8196    4.9056  -17.5444 S   0  0  0  0  0  0  0  0  0  0  0  0
   -5.6473    6.0118  -16.1248 C   0  0  0  0  0  0  0  0  0  0  0  0
   -6.1432    5.2698  -14.8886 C   0  0  0  0  0  0  0  0  0  0  0  0
   -7.6839    5.0988  -14.8668 C   0  0  0  0  0  0  0  0  0  0  0  0
   -8.3413    6.2931  -14.2922 N   0  0  0  0  0  0  0  0  0  0  0  0
   -8.4075    6.2599  -12.8231 C   0  0  0  0  0  0  0  0  0  0  0  0
   -9.6954    5.5682  -12.3700 C   0  0  0  0  0  0  0  0  0  0  0  0
   -9.7606    5.5049  -10.8747 C   0  0  0  0  0  0  0  0  0  0  0  0
   -9.2094    4.5534  -10.0421 C   0  0  0  0  0  0  0  0  0  0  0  0
   -8.5253    3.2737  -10.4234 C   0  0  0  0  0  0  0  0  0  0  0  0
   -7.7630    2.6963   -9.2203 C   0  0  0  0  0  0  0  0  0  0  0  0
   -8.6171    2.7388   -7.9420 C   0  0  0  0  0  0  0  0  0  0  0  0
   -8.9988    4.1853   -7.5857 C   0  0  0  0  0  0  0  0  0  0  0  0
   -9.4710    4.9008   -8.7696 N   0  0  0  0  0  0  0  0  0  0  0  0
  -10.1151    6.0572   -8.7405 N   0  0  0  0  0  0  0  0  0  0  0  0
  -10.3071    6.4470  -10.0191 C   0  0  0  0  0  0  0  0  0  0  0  0
  -10.2270    4.4462  -19.6029 H   0  0  0  0  0  0  0  0  0  0  0  0
  -11.4667    4.3145  -17.4650 H   0  0  0  0  0  0  0  0  0  0  0  0
  -10.2821    4.5631  -15.3263 H   0  0  0  0  0  0  0  0  0  0  0  0
   -7.7813    4.7511  -19.6002 H   0  0  0  0  0  0  0  0  0  0  0  0
   -6.2070    6.9563  -16.2927 H   0  0  0  0  0  0  0  0  0  0  0  0
   -4.5715    6.2568  -16.0006 H   0  0  0  0  0  0  0  0  0  0  0  0
   -5.6610    4.2679  -14.8452 H   0  0  0  0  0  0  0  0  0  0  0  0
   -5.8047    5.8188  -13.9842 H   0  0  0  0  0  0  0  0  0  0  0  0
   -7.8960    4.2099  -14.2295 H   0  0  0  0  0  0  0  0  0  0  0  0
   -7.8429    7.1627  -14.5945 H   0  0  0  0  0  0  0  0  0  0  0  0
   -8.4143    7.3028  -12.4336 H   0  0  0  0  0  0  0  0  0  0  0  0
   -7.5201    5.7509  -12.3845 H   0  0  0  0  0  0  0  0  0  0  0  0
  -10.5738    6.1298  -12.7553 H   0  0  0  0  0  0  0  0  0  0  0  0
   -9.7444    4.5371  -12.7793 H   0  0  0  0  0  0  0  0  0  0  0  0
   -9.2941    2.5457  -10.7601 H   0  0  0  0  0  0  0  0  0  0  0  0
   -7.8171    3.4539  -11.2601 H   0  0  0  0  0  0  0  0  0  0  0  0
   -7.4752    1.6455   -9.4387 H   0  0  0  0  0  0  0  0  0  0  0  0
   -6.8295    3.2793   -9.0587 H   0  0  0  0  0  0  0  0  0  0  0  0
   -9.5409    2.1389   -8.0955 H   0  0  0  0  0  0  0  0  0  0  0  0
   -8.0494    2.2887   -7.0994 H   0  0  0  0  0  0  0  0  0  0  0  0
   -9.7933    4.1795   -6.8090 H   0  0  0  0  0  0  0  0  0  0  0  0
   -8.1098    4.7122   -7.1768 H   0  0  0  0  0  0  0  0  0  0  0  0
  -10.8038    7.3633  -10.3086 H   0  0  0  0  0  0  0  0  0  0  0  0
  1  2  2  0
  2  3  1  0
  3  4  2  0
  4  5  1  0
  5  6  2  0
  5  7  1  0
  7  8  1  0
  8  9  1  0
  9 10  1  0
 10 11  1  0
 11 12  1  0
 12 13  1  0
 13 14  1  0
 14 15  2  0
 15 16  1  0
 16 17  1  0
 17 18  1  0
 18 19  1  0
 19 20  1  0
 20 21  1  0
 21 22  2  0
  6  1  1  0
 10  4  1  0
 22 14  1  0
 20 15  1  0
  1 23  1  0
  2 24  1  0
  3 25  1  0
  6 26  1  0
  8 27  1  0
  8 28  1  0
  9 29  1  0
  9 30  1  0
 10 31  1  0
 11 32  1  0
 12 33  1  0
 12 34  1  0
 13 35  1  0
 13 36  1  0
 16 37  1  0
 16 38  1  0
 17 39  1  0
 17 40  1  0
 18 41  1  0
 18 42  1  0
 19 43  1  0
 19 44  1  0
 22 45  1  0
A    1
 C1 
A    2
 C2 
A    3
 C3 
A    4
 C4 
A    5
 C5 
A    6
 C6 
A    7
 S1 
A    8
 C7 
A    9
 C8 
A   10
 C9 
A   11
 N1 
A   12
 C10
A   13
 C11
A   14
 C12
A   15
 C13
A   16
 C14
A   17
 C15
A   18
 C16
A   19
 C17
A   20
 N2 
A   21
 N3 
A   22
 C18
A   23
 H1 
A   24
 H2 
A   25
 H3 
A   26
 H4 
A   27
 H5 
A   28
 H6 
A   29
 H7 
A   30
 H8 
A   31
 H9 
A   32
 H10
A   33
 H11
A   34
 H12
A   35
 H13
A   36
 H14
A   37
 H15
A   38
 H16
A   39
 H17
A   40
 H18
A   41
 H19
A   42
 H20
A   43
 H21
A   44
 H22
A   45
 H23
M  END
>  <ref_pdb>  (26) 
x0051_0B

>  <ref_mols>  (26) 
x0969_1B,x0455_0B

>  <original SMILES>  (26) 
[H]c1nn2c(c1C([H])([H])C([H])([H])N([H])C1([H])c3c([H])c([H])c([H])c([H])c3SC([H])([H])C1([H])[H])C([H])([H])C([H])([H])C([H])([H])C2([H])[H]

>  <index>  (26) 
31

>  <∆∆G>  (26) 
-8.935837

>  <∆G_bound>  (26) 
-8.032602

>  <∆G_unbound>  (26) 
0.903235

>  <comRMSD>  (26) 
0.3323

>  <N_constrained_atoms>  (26) 
20.0

>  <N_unconstrained_atoms>  (26) 
2.0

>  <runtime>  (26) 
48.899612

>  <LE>  (26) 
0.406174

>  <percent_hybrid>  (26) 
50.0

>  <dist>  (26) 
5.0

>  <ecfp4>  (26) 
0.271605

>  <daylight>  (26) 
0.260274

>  <topodist>  (26) 
0.0

>  <mces>  (26) 
25.0

>  <tdn>  (26) 
0.0

>  <tup>  (26) 
0.0

>  <rdn>  (26) 
0.0

>  <rup>  (26) 
0.0

>  <ldn>  (26) 
0.0

>  <lup>  (26) 
0.0

>  <mut>  (26) 
5.0

>  <maj>  (26) 
5.0

>  <min>  (26) 
0.0

>  <hyb>  (26) 
0.0

>  <sub>  (26) 
0.0

>  <query_index>  (26) 
204.0

>  <max_hit_Tanimoto>  (26) 
0.323448

>  <largest_ring>  (26) 
6

>  <N_interactions_kept>  (26) 
1.5

>  <N_interactions_lost>  (26) 
1.0

>  <interaction_uniqueness_metric>  (26) 
0.144425

>  <ad_hoc_penalty>  (26) 
-38.461912

>  <N_rotatable_bonds>  (26) 
4

>  <N_HA>  (26) 
22

>  <cluster>  (26) 
6188

>  <N_interactions>  (26) 
6

>  <Enamine>  (26) 
1

>  <Mcule>  (26) 
0

>  <N_PAINS>  (26) 
0

>  <UFF_Gibbs>  (26) 
56.265995

>  <strain_per_HA>  (26) 
2.557545

>  <saltbridge:HIS:51>  (26) 
0

>  <pistack:HIS:51>  (26) 
1

>  <hydroph_interaction:HIS:51>  (26) 
0

>  <hbond:ALA:132>  (26) 
0

>  <hbond:SER:135>  (26) 
0

>  <hydroph_interaction:TYR:150>  (26) 
1

>  <pistack:TYR:161>  (26) 
0

>  <hydroph_interaction:TYR:161>  (26) 
3

>  <hydroph_interaction:ASP:83>  (26) 
1

>  <hbond:TYR:130>  (26) 
0

>  <hydroph_interaction:ALA:132>  (26) 
0

>  <hbond:HIS:51>  (26) 
0

>  <hbond:ASP:129>  (26) 
0

>  <hbond:TYR:150>  (26) 
0

>  <hbond:GLY:151>  (26) 
0

>  <hbond:TYR:161>  (26) 
0

>  <hydroph_interaction:TYR:130>  (26) 
0

>  <hydroph_interaction:PRO:131>  (26) 
0

>  <hydroph_interaction:ASP:129>  (26) 
0

>  <saltbridge:ASP:75>  (26) 
0

>  <saltbridge:ASP:83>  (26) 
0

>  <hydroph_interaction:ASN:152>  (26) 
0

>  <halogenbond:TYR:150>  (26) 
0

>  <hbond:ASP:83>  (26) 
0

>  <hydroph_interaction:VAL:155>  (26) 
0

>  <pication:TYR:161>  (26) 
0

>  <hbond:PRO:131>  (26) 
0

>  <hbond:LEU:128>  (26) 
0

>  <saltbridge:ASP:129>  (26) 
0

>  <hbond:THR:134>  (26) 
0

>  <pication:HIS:51>  (26) 
0

>  <hbond:SER:81>  (26) 
0

>  <hbond:GLY:159>  (26) 
0

>  <hydroph_interaction:PRO:101>  (26) 
0

>  <hydroph_interaction:THR:134>  (26) 
0

>  <hbond:GLY:82>  (26) 
0

>  <hydroph_interaction:GLU:104>  (26) 
0

>  <hydroph_interaction:VAL:36>  (26) 
0

>  <hydroph_interaction:MET:49>  (26) 
0

>  <halogenbond:GLU:104>  (26) 
0

>  <hydroph_interaction:LYS:107>  (26) 
0

$$$$
MCULE-5000599073
     RDKit          3D

 32 33  0  0  0  0  0  0  0  0999 V2000
   -6.2827    6.0943  -16.7131 N   0  0  0  0  0  0  0  0  0  0  0  0
   -4.9760    6.4774  -17.2473 C   0  0  0  0  0  0  0  0  0  0  0  0
   -4.1797    5.2405  -17.7076 C   0  0  0  0  0  0  0  0  0  0  0  0
   -2.8845    5.6735  -18.4042 C   0  0  0  0  0  0  0  0  0  0  0  0
   -3.8614    4.3091  -16.5299 C   0  0  0  0  0  0  0  0  0  0  0  0
   -7.3831    5.7459  -17.4097 C   0  0  0  0  0  0  0  0  0  0  0  0
   -7.5731    5.6971  -18.7924 C   0  0  0  0  0  0  0  0  0  0  0  0
   -8.8414    5.3080  -19.2637 C   0  0  0  0  0  0  0  0  0  0  0  0
   -9.8762    4.9842  -18.3561 C   0  0  0  0  0  0  0  0  0  0  0  0
   -9.6530    5.0444  -16.9678 C   0  0  0  0  0  0  0  0  0  0  0  0
   -8.3851    5.4288  -16.5352 C   0  0  0  0  0  0  0  0  0  0  0  0
   -7.8343    5.5907  -15.2785 C   0  0  0  0  0  0  0  0  0  0  0  0
   -8.5284    5.4259  -13.9630 C   0  0  0  0  0  0  0  0  0  0  0  0
   -9.2446    6.6497  -13.6218 N   0  0  0  0  0  0  0  0  0  0  0  0
   -6.5518    6.0055  -15.4141 N   0  0  0  0  0  0  0  0  0  0  0  0
   -4.4037    7.0296  -16.4694 H   0  0  0  0  0  0  0  0  0  0  0  0
   -5.1235    7.1737  -18.1015 H   0  0  0  0  0  0  0  0  0  0  0  0
   -4.7891    4.6734  -18.4451 H   0  0  0  0  0  0  0  0  0  0  0  0
   -2.3265    4.7834  -18.7656 H   0  0  0  0  0  0  0  0  0  0  0  0
   -3.1171    6.3125  -19.2828 H   0  0  0  0  0  0  0  0  0  0  0  0
   -2.2358    6.2451  -17.7059 H   0  0  0  0  0  0  0  0  0  0  0  0
   -4.7986    3.9181  -16.0810 H   0  0  0  0  0  0  0  0  0  0  0  0
   -3.2837    4.8478  -15.7483 H   0  0  0  0  0  0  0  0  0  0  0  0
   -3.2661    3.4387  -16.8793 H   0  0  0  0  0  0  0  0  0  0  0  0
   -6.7803    5.9502  -19.4836 H   0  0  0  0  0  0  0  0  0  0  0  0
   -9.0262    5.2586  -20.3288 H   0  0  0  0  0  0  0  0  0  0  0  0
  -10.8473    4.6887  -18.7313 H   0  0  0  0  0  0  0  0  0  0  0  0
  -10.4391    4.7999  -16.2655 H   0  0  0  0  0  0  0  0  0  0  0  0
   -7.7717    5.2097  -13.1780 H   0  0  0  0  0  0  0  0  0  0  0  0
   -9.2343    4.5673  -14.0093 H   0  0  0  0  0  0  0  0  0  0  0  0
   -9.6494    6.5245  -12.6658 H   0  0  0  0  0  0  0  0  0  0  0  0
  -10.0553    6.7479  -14.2760 H   0  0  0  0  0  0  0  0  0  0  0  0
  1  2  1  0
  2  3  1  0
  3  4  1  0
  3  5  1  0
  1  6  1  0
  6  7  2  0
  7  8  1  0
  8  9  2  0
  9 10  1  0
 10 11  2  0
 11 12  1  0
 12 13  1  0
 13 14  1  0
 12 15  2  0
 15  1  1  0
  6 11  1  0
  2 16  1  0
  2 17  1  0
  3 18  1  0
  4 19  1  0
  4 20  1  0
  4 21  1  0
  5 22  1  0
  5 23  1  0
  5 24  1  0
  7 25  1  0
  8 26  1  0
  9 27  1  0
 10 28  1  0
 13 29  1  0
 13 30  1  0
 14 31  1  0
 14 32  1  0
A    1
 N1 
A    2
 C1 
A    3
 C2 
A    4
 C3 
A    5
 C4 
A    6
 C5 
A    7
 C6 
A    8
 C7 
A    9
 C8 
A   10
 C9 
A   11
 C10
A   12
 C11
A   13
 C12
A   14
 N2 
A   15
 N3 
A   16
 H1 
A   17
 H2 
A   18
 H3 
A   19
 H4 
A   20
 H5 
A   21
 H6 
A   22
 H7 
A   23
 H8 
A   24
 H9 
A   25
 H10
A   26
 H11
A   27
 H12
A   28
 H13
A   29
 H14
A   30
 H15
A   31
 H16
A   32
 H17
M  END
>  <ref_pdb>  (27) 
x0051_0B

>  <ref_mols>  (27) 
x0951_0B,x0472_0B

>  <original SMILES>  (27) 
[H]c1c([H])c([H])c2c(c(C([H])([H])N([H])[H])nn2C([H])([H])C([H])(C([H])([H])[H])C([H])([H])[H])c1[H]

>  <index>  (27) 
26

>  <∆∆G>  (27) 
-7.903238

>  <∆G_bound>  (27) 
-8.270712

>  <∆G_unbound>  (27) 
-0.367474

>  <comRMSD>  (27) 
0.679086

>  <N_constrained_atoms>  (27) 
17.0

>  <N_unconstrained_atoms>  (27) 
0.0

>  <runtime>  (27) 
18.449406

>  <LE>  (27) 
0.464896

>  <percent_hybrid>  (27) 
40.0

>  <dist>  (27) 
4.0

>  <ecfp4>  (27) 
0.403846

>  <daylight>  (27) 
0.758065

>  <topodist>  (27) 
3.0

>  <mces>  (27) 
15.0

>  <tdn>  (27) 
2.0

>  <tup>  (27) 
1.0

>  <rdn>  (27) 
0.0

>  <rup>  (27) 
0.0

>  <ldn>  (27) 
0.0

>  <lup>  (27) 
0.0

>  <mut>  (27) 
1.0

>  <maj>  (27) 
1.0

>  <min>  (27) 
0.0

>  <hyb>  (27) 
0.0

>  <sub>  (27) 
3.0

>  <query_index>  (27) 
55.0

>  <max_hit_Tanimoto>  (27) 
0.163557

>  <largest_ring>  (27) 
6

>  <N_interactions_kept>  (27) 
3.0

>  <N_interactions_lost>  (27) 
0.5

>  <interaction_uniqueness_metric>  (27) 
0.141194

>  <ad_hoc_penalty>  (27) 
-38.227294

>  <N_rotatable_bonds>  (27) 
6

>  <N_HA>  (27) 
15

>  <cluster>  (27) 
6192

>  <N_interactions>  (27) 
7

>  <Enamine>  (27) 
0

>  <Mcule>  (27) 
1

>  <N_PAINS>  (27) 
0

>  <UFF_Gibbs>  (27) 
65.78754

>  <strain_per_HA>  (27) 
3.869855

>  <saltbridge:HIS:51>  (27) 
0

>  <pistack:HIS:51>  (27) 
0

>  <hydroph_interaction:HIS:51>  (27) 
0

>  <hbond:ALA:132>  (27) 
0

>  <hbond:SER:135>  (27) 
0

>  <hydroph_interaction:TYR:150>  (27) 
1

>  <pistack:TYR:161>  (27) 
0

>  <hydroph_interaction:TYR:161>  (27) 
4

>  <hydroph_interaction:ASP:83>  (27) 
0

>  <hbond:TYR:130>  (27) 
0

>  <hydroph_interaction:ALA:132>  (27) 
0

>  <hbond:HIS:51>  (27) 
1

>  <hbond:ASP:129>  (27) 
0

>  <hbond:TYR:150>  (27) 
0

>  <hbond:GLY:151>  (27) 
0

>  <hbond:TYR:161>  (27) 
0

>  <hydroph_interaction:TYR:130>  (27) 
0

>  <hydroph_interaction:PRO:131>  (27) 
0

>  <hydroph_interaction:ASP:129>  (27) 
0

>  <saltbridge:ASP:75>  (27) 
0

>  <saltbridge:ASP:83>  (27) 
0

>  <hydroph_interaction:ASN:152>  (27) 
0

>  <halogenbond:TYR:150>  (27) 
0

>  <hbond:ASP:83>  (27) 
0

>  <hydroph_interaction:VAL:155>  (27) 
1

>  <pication:TYR:161>  (27) 
0

>  <hbond:PRO:131>  (27) 
0

>  <hbond:LEU:128>  (27) 
0

>  <saltbridge:ASP:129>  (27) 
0

>  <hbond:THR:134>  (27) 
0

>  <pication:HIS:51>  (27) 
0

>  <hbond:SER:81>  (27) 
0

>  <hbond:GLY:159>  (27) 
0

>  <hydroph_interaction:PRO:101>  (27) 
0

>  <hydroph_interaction:THR:134>  (27) 
0

>  <hbond:GLY:82>  (27) 
0

>  <hydroph_interaction:GLU:104>  (27) 
0

>  <hydroph_interaction:VAL:36>  (27) 
0

>  <hydroph_interaction:MET:49>  (27) 
0

>  <halogenbond:GLU:104>  (27) 
0

>  <hydroph_interaction:LYS:107>  (27) 
0

$$$$
PNBIBQYVDSFAJG-UHFFFAOYSA-N
     RDKit          3D

 41 44  0  0  0  0  0  0  0  0999 V2000
   -8.4691    4.0841  -12.7172 C   0  0  0  0  0  0  0  0  0  0  0  0
   -8.2470    4.7798  -13.9545 N   0  0  0  0  0  0  0  0  0  0  0  0
   -7.9007    4.0774  -15.1944 C   0  0  0  0  0  0  0  0  0  0  0  0
   -8.3080    4.9144  -16.3874 C   0  0  0  0  0  0  0  0  0  0  0  0
   -7.3510    5.6964  -17.0666 C   0  0  0  0  0  0  0  0  0  0  0  0
   -7.7383    6.4860  -18.1546 C   0  0  0  0  0  0  0  0  0  0  0  0
   -9.0762    6.5175  -18.5580 C   0  0  0  0  0  0  0  0  0  0  0  0
  -10.0316    5.7589  -17.8762 C   0  0  0  0  0  0  0  0  0  0  0  0
   -9.6516    4.9626  -16.7917 C   0  0  0  0  0  0  0  0  0  0  0  0
   -6.0071    5.6695  -16.6762 O   0  0  0  0  0  0  0  0  0  0  0  0
   -5.5762    5.0302  -15.4754 C   0  0  0  0  0  0  0  0  0  0  0  0
   -6.3930    3.7590  -15.2253 C   0  0  0  0  0  0  0  0  0  0  0  0
   -8.3650    2.8283  -12.6789 O   0  0  0  0  0  0  0  0  0  0  0  0
   -8.8241    4.8226  -11.4866 C   0  0  0  0  0  0  0  0  0  0  0  0
   -8.9424    4.3314  -10.1965 C   0  0  0  0  0  0  0  0  0  0  0  0
   -9.3506    5.3329   -9.3961 N   0  0  0  0  0  0  0  0  0  0  0  0
   -9.5474    5.2362   -7.9511 C   0  0  0  0  0  0  0  0  0  0  0  0
   -9.7493    3.7725   -7.5297 C   0  0  0  0  0  0  0  0  0  0  0  0
   -8.6919    2.8687   -8.1828 C   0  0  0  0  0  0  0  0  0  0  0  0
   -8.7800    2.9163   -9.7169 C   0  0  0  0  0  0  0  0  0  0  0  0
   -9.4625    6.4523  -10.0916 N   0  0  0  0  0  0  0  0  0  0  0  0
   -9.1528    6.1673  -11.3734 C   0  0  0  0  0  0  0  0  0  0  0  0
   -8.2421    5.8243  -13.9581 H   0  0  0  0  0  0  0  0  0  0  0  0
   -8.4579    3.1149  -15.2403 H   0  0  0  0  0  0  0  0  0  0  0  0
   -7.0027    7.0776  -18.6842 H   0  0  0  0  0  0  0  0  0  0  0  0
   -9.3731    7.1317  -19.3984 H   0  0  0  0  0  0  0  0  0  0  0  0
  -11.0679    5.7899  -18.1869 H   0  0  0  0  0  0  0  0  0  0  0  0
  -10.4020    4.3845  -16.2667 H   0  0  0  0  0  0  0  0  0  0  0  0
   -5.7002    5.7315  -14.6225 H   0  0  0  0  0  0  0  0  0  0  0  0
   -4.4993    4.7756  -15.5632 H   0  0  0  0  0  0  0  0  0  0  0  0
   -6.0758    3.2912  -14.2684 H   0  0  0  0  0  0  0  0  0  0  0  0
   -6.1889    3.0334  -16.0430 H   0  0  0  0  0  0  0  0  0  0  0  0
  -10.4351    5.8340   -7.6520 H   0  0  0  0  0  0  0  0  0  0  0  0
   -8.6539    5.6506   -7.4364 H   0  0  0  0  0  0  0  0  0  0  0  0
  -10.7641    3.4345   -7.8346 H   0  0  0  0  0  0  0  0  0  0  0  0
   -9.6761    3.6932   -6.4238 H   0  0  0  0  0  0  0  0  0  0  0  0
   -7.6789    3.1958   -7.8594 H   0  0  0  0  0  0  0  0  0  0  0  0
   -8.8371    1.8218   -7.8396 H   0  0  0  0  0  0  0  0  0  0  0  0
   -9.6555    2.3221  -10.0564 H   0  0  0  0  0  0  0  0  0  0  0  0
   -7.8568    2.4723  -10.1455 H   0  0  0  0  0  0  0  0  0  0  0  0
   -9.1836    6.8967  -12.1707 H   0  0  0  0  0  0  0  0  0  0  0  0
  1  2  1  0
  2  3  1  0
  3  4  1  0
  4  5  1  0
  5  6  2  0
  6  7  1  0
  7  8  2  0
  8  9  1  0
  5 10  1  0
 10 11  1  0
 11 12  1  0
  1 13  2  0
  1 14  1  0
 14 15  2  0
 15 16  1  0
 16 17  1  0
 17 18  1  0
 18 19  1  0
 19 20  1  0
 16 21  1  0
 21 22  2  0
 12  3  1  0
  9  4  2  0
 22 14  1  0
 20 15  1  0
  2 23  1  0
  3 24  1  0
  6 25  1  0
  7 26  1  0
  8 27  1  0
  9 28  1  0
 11 29  1  0
 11 30  1  0
 12 31  1  0
 12 32  1  0
 17 33  1  0
 17 34  1  0
 18 35  1  0
 18 36  1  0
 19 37  1  0
 19 38  1  0
 20 39  1  0
 20 40  1  0
 22 41  1  0
A    1
 C1 
A    2
 N1 
A    3
 C2 
A    4
 C3 
A    5
 C4 
A    6
 C5 
A    7
 C6 
A    8
 C7 
A    9
 C8 
A   10
 O1 
A   11
 C9 
A   12
 C10
A   13
 O2 
A   14
 C11
A   15
 C12
A   16
 N2 
A   17
 C13
A   18
 C14
A   19
 C15
A   20
 C16
A   21
 N3 
A   22
 C17
A   23
 H1 
A   24
 H2 
A   25
 H3 
A   26
 H4 
A   27
 H5 
A   28
 H6 
A   29
 H7 
A   30
 H8 
A   31
 H9 
A   32
 H10
A   33
 H11
A   34
 H12
A   35
 H13
A   36
 H14
A   37
 H15
A   38
 H16
A   39
 H17
A   40
 H18
A   41
 H19
M  END
>  <ref_pdb>  (28) 
x0051_0B

>  <ref_mols>  (28) 
x0969_1B,x0455_0B

>  <original SMILES>  (28) 
[H]c1nn2c(c1C(=O)N([H])C1([H])c3c([H])c([H])c([H])c([H])c3OC([H])([H])C1([H])[H])C([H])([H])C([H])([H])C([H])([H])C2([H])[H]

>  <index>  (28) 
28

>  <∆∆G>  (28) 
-6.932246

>  <∆G_bound>  (28) 
-6.065841

>  <∆G_unbound>  (28) 
0.866405

>  <comRMSD>  (28) 
0.541848

>  <N_constrained_atoms>  (28) 
20.0

>  <N_unconstrained_atoms>  (28) 
2.0

>  <runtime>  (28) 
41.389185

>  <LE>  (28) 
0.315102

>  <percent_hybrid>  (28) 
50.0

>  <dist>  (28) 
7.0

>  <ecfp4>  (28) 
0.25

>  <daylight>  (28) 
0.285333

>  <topodist>  (28) 
2.0

>  <mces>  (28) 
24.0

>  <tdn>  (28) 
0.0

>  <tup>  (28) 
1.0

>  <rdn>  (28) 
0.0

>  <rup>  (28) 
0.0

>  <ldn>  (28) 
1.0

>  <lup>  (28) 
0.0

>  <mut>  (28) 
4.0

>  <maj>  (28) 
4.0

>  <min>  (28) 
0.0

>  <hyb>  (28) 
1.0

>  <sub>  (28) 
0.0

>  <query_index>  (28) 
204.0

>  <max_hit_Tanimoto>  (28) 
0.307498

>  <largest_ring>  (28) 
6

>  <N_interactions_kept>  (28) 
1.5

>  <N_interactions_lost>  (28) 
1.0

>  <interaction_uniqueness_metric>  (28) 
0.18366

>  <ad_hoc_penalty>  (28) 
-38.13794

>  <N_rotatable_bonds>  (28) 
2

>  <N_HA>  (28) 
22

>  <cluster>  (28) 
6190

>  <N_interactions>  (28) 
6

>  <Enamine>  (28) 
0

>  <Mcule>  (28) 
1

>  <N_PAINS>  (28) 
0

>  <UFF_Gibbs>  (28) 
80.068969

>  <strain_per_HA>  (28) 
3.639499

>  <saltbridge:HIS:51>  (28) 
0

>  <pistack:HIS:51>  (28) 
1

>  <hydroph_interaction:HIS:51>  (28) 
0

>  <hbond:ALA:132>  (28) 
0

>  <hbond:SER:135>  (28) 
0

>  <hydroph_interaction:TYR:150>  (28) 
1

>  <pistack:TYR:161>  (28) 
0

>  <hydroph_interaction:TYR:161>  (28) 
2

>  <hydroph_interaction:ASP:83>  (28) 
1

>  <hbond:TYR:130>  (28) 
0

>  <hydroph_interaction:ALA:132>  (28) 
0

>  <hbond:HIS:51>  (28) 
0

>  <hbond:ASP:129>  (28) 
0

>  <hbond:TYR:150>  (28) 
0

>  <hbond:GLY:151>  (28) 
0

>  <hbond:TYR:161>  (28) 
1

>  <hydroph_interaction:TYR:130>  (28) 
0

>  <hydroph_interaction:PRO:131>  (28) 
0

>  <hydroph_interaction:ASP:129>  (28) 
0

>  <saltbridge:ASP:75>  (28) 
0

>  <saltbridge:ASP:83>  (28) 
0

>  <hydroph_interaction:ASN:152>  (28) 
0

>  <halogenbond:TYR:150>  (28) 
0

>  <hbond:ASP:83>  (28) 
0

>  <hydroph_interaction:VAL:155>  (28) 
0

>  <pication:TYR:161>  (28) 
0

>  <hbond:PRO:131>  (28) 
0

>  <hbond:LEU:128>  (28) 
0

>  <saltbridge:ASP:129>  (28) 
0

>  <hbond:THR:134>  (28) 
0

>  <pication:HIS:51>  (28) 
0

>  <hbond:SER:81>  (28) 
0

>  <hbond:GLY:159>  (28) 
0

>  <hydroph_interaction:PRO:101>  (28) 
0

>  <hydroph_interaction:THR:134>  (28) 
0

>  <hbond:GLY:82>  (28) 
0

>  <hydroph_interaction:GLU:104>  (28) 
0

>  <hydroph_interaction:VAL:36>  (28) 
0

>  <hydroph_interaction:MET:49>  (28) 
0

>  <halogenbond:GLU:104>  (28) 
0

>  <hydroph_interaction:LYS:107>  (28) 
0

$$$$
MCULE-5116231444
     RDKit          3D

 51 53  0  0  0  0  0  0  0  0999 V2000
   -5.5337    6.3916  -19.6324 C   0  0  0  0  0  0  0  0  0  0  0  0
   -6.5019    6.8107  -20.3227 O   0  0  0  0  0  0  0  0  0  0  0  0
   -5.7702    5.9278  -18.2955 N   0  0  0  0  0  0  0  0  0  0  0  0
   -6.9912    5.2874  -17.8859 C   0  0  0  0  0  0  0  0  0  0  0  0
   -7.7709    4.5510  -18.7955 C   0  0  0  0  0  0  0  0  0  0  0  0
   -8.9343    3.9082  -18.3667 C   0  0  0  0  0  0  0  0  0  0  0  0
   -9.3302    3.9912  -17.0301 C   0  0  0  0  0  0  0  0  0  0  0  0
   -8.5692    4.7193  -16.1093 C   0  0  0  0  0  0  0  0  0  0  0  0
   -7.3848    5.3478  -16.5392 C   0  0  0  0  0  0  0  0  0  0  0  0
   -8.9975    4.7591  -14.7739 O   0  0  0  0  0  0  0  0  0  0  0  0
   -8.7411    5.7994  -13.8687 C   0  0  0  0  0  0  0  0  0  0  0  0
   -8.3739    6.9323  -14.2857 O   0  0  0  0  0  0  0  0  0  0  0  0
   -8.9593    5.5810  -12.4216 C   0  0  0  0  0  0  0  0  0  0  0  0
   -8.7154    6.6094  -11.4954 C   0  0  0  0  0  0  0  0  0  0  0  0
   -8.9181    6.3971  -10.1289 C   0  0  0  0  0  0  0  0  0  0  0  0
   -9.3702    5.1522   -9.6570 C   0  0  0  0  0  0  0  0  0  0  0  0
   -9.6152    4.1251  -10.5855 C   0  0  0  0  0  0  0  0  0  0  0  0
   -9.4109    4.3370  -11.9521 C   0  0  0  0  0  0  0  0  0  0  0  0
   -9.5780    4.9323   -8.2463 N   0  0  0  0  0  0  0  0  0  0  0  0
  -10.4435    4.0605   -7.6861 C   0  0  0  0  0  0  0  0  0  0  0  0
  -10.3610    4.1318   -6.3109 C   0  0  0  0  0  0  0  0  0  0  0  0
   -9.4058    5.0845   -6.0221 C   0  0  0  0  0  0  0  0  0  0  0  0
   -8.9442    5.5596   -7.2323 C   0  0  0  0  0  0  0  0  0  0  0  0
   -4.2081    6.4502  -20.1902 N   0  0  0  0  0  0  0  0  0  0  0  0
   -3.0768    5.5561  -19.8600 C   0  0  0  0  0  0  0  0  0  0  0  0
   -2.3129    6.0959  -18.6367 C   0  0  0  0  0  0  0  0  0  0  0  0
   -2.1060    5.5285  -21.0600 C   0  0  0  0  0  0  0  0  0  0  0  0
   -3.5595    4.1128  -19.6011 C   0  0  0  0  0  0  0  0  0  0  0  0
   -5.0751    6.1727  -17.5597 H   0  0  0  0  0  0  0  0  0  0  0  0
   -7.4695    4.4508  -19.8296 H   0  0  0  0  0  0  0  0  0  0  0  0
   -9.5269    3.3380  -19.0705 H   0  0  0  0  0  0  0  0  0  0  0  0
  -10.2329    3.4881  -16.7076 H   0  0  0  0  0  0  0  0  0  0  0  0
   -6.7535    5.8667  -15.8306 H   0  0  0  0  0  0  0  0  0  0  0  0
   -8.3691    7.5806  -11.8257 H   0  0  0  0  0  0  0  0  0  0  0  0
   -8.7367    7.2144   -9.4437 H   0  0  0  0  0  0  0  0  0  0  0  0
   -9.9466    3.1498  -10.2552 H   0  0  0  0  0  0  0  0  0  0  0  0
   -9.6034    3.5227  -12.6393 H   0  0  0  0  0  0  0  0  0  0  0  0
  -11.1169    3.4157   -8.2357 H   0  0  0  0  0  0  0  0  0  0  0  0
  -10.9363    3.5566   -5.5981 H   0  0  0  0  0  0  0  0  0  0  0  0
   -9.0807    5.3966   -5.0388 H   0  0  0  0  0  0  0  0  0  0  0  0
   -8.1727    6.3089   -7.3523 H   0  0  0  0  0  0  0  0  0  0  0  0
   -4.1077    7.0722  -21.0252 H   0  0  0  0  0  0  0  0  0  0  0  0
   -2.9121    6.0279  -17.7097 H   0  0  0  0  0  0  0  0  0  0  0  0
   -2.0345    7.1600  -18.7964 H   0  0  0  0  0  0  0  0  0  0  0  0
   -1.3825    5.5108  -18.4692 H   0  0  0  0  0  0  0  0  0  0  0  0
   -1.2375    4.8643  -20.8577 H   0  0  0  0  0  0  0  0  0  0  0  0
   -2.6268    5.1572  -21.9690 H   0  0  0  0  0  0  0  0  0  0  0  0
   -1.7188    6.5484  -21.2736 H   0  0  0  0  0  0  0  0  0  0  0  0
   -4.1271    4.0351  -18.6525 H   0  0  0  0  0  0  0  0  0  0  0  0
   -2.6948    3.4191  -19.5193 H   0  0  0  0  0  0  0  0  0  0  0  0
   -4.2098    3.7687  -20.4337 H   0  0  0  0  0  0  0  0  0  0  0  0
  1  2  2  0
  1  3  1  0
  3  4  1  0
  4  5  2  0
  5  6  1  0
  6  7  2  0
  7  8  1  0
  8  9  2  0
  8 10  1  0
 10 11  1  0
 11 12  2  0
 11 13  1  0
 13 14  2  0
 14 15  1  0
 15 16  2  0
 16 17  1  0
 17 18  2  0
 16 19  1  0
 19 20  1  0
 20 21  2  0
 21 22  1  0
 22 23  2  0
  1 24  1  0
 24 25  1  0
 25 26  1  0
 25 27  1  0
 25 28  1  0
  4  9  1  0
 18 13  1  0
 23 19  1  0
  3 29  1  0
  5 30  1  0
  6 31  1  0
  7 32  1  0
  9 33  1  0
 14 34  1  0
 15 35  1  0
 17 36  1  0
 18 37  1  0
 20 38  1  0
 21 39  1  0
 22 40  1  0
 23 41  1  0
 24 42  1  0
 26 43  1  0
 26 44  1  0
 26 45  1  0
 27 46  1  0
 27 47  1  0
 27 48  1  0
 28 49  1  0
 28 50  1  0
 28 51  1  0
A    1
 C1 
A    2
 O1 
A    3
 N1 
A    4
 C2 
A    5
 C3 
A    6
 C4 
A    7
 C5 
A    8
 C6 
A    9
 C7 
A   10
 O2 
A   11
 C8 
A   12
 O3 
A   13
 C9 
A   14
 C10
A   15
 C11
A   16
 C12
A   17
 C13
A   18
 C14
A   19
 N2 
A   20
 C15
A   21
 C16
A   22
 C17
A   23
 C18
A   24
 N3 
A   25
 C19
A   26
 C20
A   27
 C21
A   28
 C22
A   29
 H1 
A   30
 H2 
A   31
 H3 
A   32
 H4 
A   33
 H5 
A   34
 H6 
A   35
 H7 
A   36
 H8 
A   37
 H9 
A   38
 H10
A   39
 H11
A   40
 H12
A   41
 H13
A   42
 H14
A   43
 H15
A   44
 H16
A   45
 H17
A   46
 H18
A   47
 H19
A   48
 H20
A   49
 H21
A   50
 H22
A   51
 H23
M  END
>  <ref_pdb>  (29) 
x0051_0B

>  <ref_mols>  (29) 
x0089_0B,x0404_0B

>  <original SMILES>  (29) 
[H]c1c([H])c(OC(=O)c2c([H])c([H])c(-n3c([H])c([H])c([H])c3[H])c([H])c2[H])c([H])c(N([H])C(=O)N([H])C(C([H])([H])[H])(C([H])([H])[H])C([H])([H])[H])c1[H]

>  <index>  (29) 
17

>  <∆∆G>  (29) 
-9.309738

>  <∆G_bound>  (29) 
-8.569093

>  <∆G_unbound>  (29) 
0.740645

>  <comRMSD>  (29) 
0.70674

>  <N_constrained_atoms>  (29) 
28.0

>  <N_unconstrained_atoms>  (29) 
1.0

>  <runtime>  (29) 
205.6128

>  <LE>  (29) 
0.321025

>  <percent_hybrid>  (29) 
47.0

>  <dist>  (29) 
12.0

>  <ecfp4>  (29) 
0.2

>  <daylight>  (29) 
0.180812

>  <topodist>  (29) 
5.0

>  <mces>  (29) 
29.0

>  <tdn>  (29) 
1.0

>  <tup>  (29) 
1.0

>  <rdn>  (29) 
1.0

>  <rup>  (29) 
0.0

>  <ldn>  (29) 
2.0

>  <lup>  (29) 
0.0

>  <mut>  (29) 
2.0

>  <maj>  (29) 
2.0

>  <min>  (29) 
0.0

>  <hyb>  (29) 
5.0

>  <sub>  (29) 
2.0

>  <query_index>  (29) 
3.0

>  <max_hit_Tanimoto>  (29) 
0.186951

>  <largest_ring>  (29) 
6

>  <N_interactions_kept>  (29) 
2.0

>  <N_interactions_lost>  (29) 
2.5

>  <interaction_uniqueness_metric>  (29) 
0.210434

>  <ad_hoc_penalty>  (29) 
-38.05385

>  <N_rotatable_bonds>  (29) 
4

>  <N_HA>  (29) 
28

>  <cluster>  (29) 
6200

>  <N_interactions>  (29) 
9

>  <Enamine>  (29) 
0

>  <Mcule>  (29) 
1

>  <N_PAINS>  (29) 
0

>  <UFF_Gibbs>  (29) 
213.75892

>  <strain_per_HA>  (29) 
7.370997

>  <saltbridge:HIS:51>  (29) 
1

>  <pistack:HIS:51>  (29) 
1

>  <hydroph_interaction:HIS:51>  (29) 
1

>  <hbond:ALA:132>  (29) 
0

>  <hbond:SER:135>  (29) 
0

>  <hydroph_interaction:TYR:150>  (29) 
1

>  <pistack:TYR:161>  (29) 
0

>  <hydroph_interaction:TYR:161>  (29) 
4

>  <hydroph_interaction:ASP:83>  (29) 
0

>  <hbond:TYR:130>  (29) 
0

>  <hydroph_interaction:ALA:132>  (29) 
1

>  <hbond:HIS:51>  (29) 
0

>  <hbond:ASP:129>  (29) 
0

>  <hbond:TYR:150>  (29) 
0

>  <hbond:GLY:151>  (29) 
0

>  <hbond:TYR:161>  (29) 
0

>  <hydroph_interaction:TYR:130>  (29) 
0

>  <hydroph_interaction:PRO:131>  (29) 
0

>  <hydroph_interaction:ASP:129>  (29) 
0

>  <saltbridge:ASP:75>  (29) 
0

>  <saltbridge:ASP:83>  (29) 
0

>  <hydroph_interaction:ASN:152>  (29) 
0

>  <halogenbond:TYR:150>  (29) 
0

>  <hbond:ASP:83>  (29) 
0

>  <hydroph_interaction:VAL:155>  (29) 
0

>  <pication:TYR:161>  (29) 
0

>  <hbond:PRO:131>  (29) 
0

>  <hbond:LEU:128>  (29) 
0

>  <saltbridge:ASP:129>  (29) 
0

>  <hbond:THR:134>  (29) 
0

>  <pication:HIS:51>  (29) 
0

>  <hbond:SER:81>  (29) 
0

>  <hbond:GLY:159>  (29) 
0

>  <hydroph_interaction:PRO:101>  (29) 
0

>  <hydroph_interaction:THR:134>  (29) 
0

>  <hbond:GLY:82>  (29) 
0

>  <hydroph_interaction:GLU:104>  (29) 
0

>  <hydroph_interaction:VAL:36>  (29) 
0

>  <hydroph_interaction:MET:49>  (29) 
0

>  <halogenbond:GLU:104>  (29) 
0

>  <hydroph_interaction:LYS:107>  (29) 
0

$$$$
Z1494863129
     RDKit          3D

 46 49  0  0  0  0  0  0  0  0999 V2000
   -6.5786    6.2497  -11.8239 O   0  0  0  0  0  0  0  0  0  0  0  0
   -7.5141    5.4061  -11.7657 C   0  0  0  0  0  0  0  0  0  0  0  0
   -7.6708    4.4409  -12.8175 N   0  0  0  0  0  0  0  0  0  0  0  0
   -6.7062    4.3031  -13.9078 C   0  0  0  0  0  0  0  0  0  0  0  0
   -6.7934    5.4720  -14.9263 C   0  0  0  0  0  0  0  0  0  0  0  0
   -5.4241    5.5950  -15.6392 C   0  0  0  0  0  0  0  0  0  0  0  0
   -5.5211    6.3794  -16.9424 C   0  0  0  0  0  0  0  0  0  0  0  0
   -6.4282    5.6318  -17.9145 C   0  0  0  0  0  0  0  0  0  0  0  0
   -7.7836    5.3816  -17.3078 C   0  0  0  0  0  0  0  0  0  0  0  0
   -8.8820    5.2077  -18.1658 C   0  0  0  0  0  0  0  0  0  0  0  0
  -10.1643    5.0327  -17.6473 C   0  0  0  0  0  0  0  0  0  0  0  0
  -10.3651    5.0443  -16.2692 C   0  0  0  0  0  0  0  0  0  0  0  0
   -9.2804    5.1952  -15.4033 C   0  0  0  0  0  0  0  0  0  0  0  0
   -7.9658    5.3058  -15.9009 C   0  0  0  0  0  0  0  0  0  0  0  0
   -8.4479    5.4615  -10.6237 C   0  0  0  0  0  0  0  0  0  0  0  0
   -9.1862    4.4508  -10.0255 C   0  0  0  0  0  0  0  0  0  0  0  0
   -9.2664    2.9950  -10.3897 C   0  0  0  0  0  0  0  0  0  0  0  0
   -9.8103    2.1736   -9.2114 C   0  0  0  0  0  0  0  0  0  0  0  0
  -11.0453    2.8449   -8.5920 C   0  0  0  0  0  0  0  0  0  0  0  0
  -10.6892    4.2341   -8.0405 C   0  0  0  0  0  0  0  0  0  0  0  0
   -9.8754    4.9830   -8.9975 N   0  0  0  0  0  0  0  0  0  0  0  0
   -9.5869    6.2683   -8.8758 N   0  0  0  0  0  0  0  0  0  0  0  0
   -8.7202    6.5853   -9.8589 C   0  0  0  0  0  0  0  0  0  0  0  0
   -8.4766    3.7805  -12.8020 H   0  0  0  0  0  0  0  0  0  0  0  0
   -6.8812    3.3401  -14.4366 H   0  0  0  0  0  0  0  0  0  0  0  0
   -5.6880    4.2428  -13.4626 H   0  0  0  0  0  0  0  0  0  0  0  0
   -6.9586    6.4265  -14.3810 H   0  0  0  0  0  0  0  0  0  0  0  0
   -4.7021    6.1034  -14.9632 H   0  0  0  0  0  0  0  0  0  0  0  0
   -5.0121    4.5855  -15.8667 H   0  0  0  0  0  0  0  0  0  0  0  0
   -5.9234    7.3979  -16.7464 H   0  0  0  0  0  0  0  0  0  0  0  0
   -4.5088    6.4833  -17.3893 H   0  0  0  0  0  0  0  0  0  0  0  0
   -6.5281    6.2405  -18.8399 H   0  0  0  0  0  0  0  0  0  0  0  0
   -5.9684    4.6580  -18.1906 H   0  0  0  0  0  0  0  0  0  0  0  0
   -8.7468    5.2272  -19.2403 H   0  0  0  0  0  0  0  0  0  0  0  0
  -11.0069    4.9120  -18.3160 H   0  0  0  0  0  0  0  0  0  0  0  0
  -11.3660    4.9449  -15.8692 H   0  0  0  0  0  0  0  0  0  0  0  0
   -9.4823    5.2468  -14.3449 H   0  0  0  0  0  0  0  0  0  0  0  0
   -8.2603    2.6143  -10.6669 H   0  0  0  0  0  0  0  0  0  0  0  0
   -9.9535    2.8792  -11.2548 H   0  0  0  0  0  0  0  0  0  0  0  0
  -10.0812    1.1563   -9.5673 H   0  0  0  0  0  0  0  0  0  0  0  0
   -9.0198    2.0655   -8.4362 H   0  0  0  0  0  0  0  0  0  0  0  0
  -11.8394    2.9440   -9.3644 H   0  0  0  0  0  0  0  0  0  0  0  0
  -11.4412    2.2112   -7.7694 H   0  0  0  0  0  0  0  0  0  0  0  0
  -10.1171    4.1186   -7.0947 H   0  0  0  0  0  0  0  0  0  0  0  0
  -11.6216    4.7969   -7.8206 H   0  0  0  0  0  0  0  0  0  0  0  0
   -8.3079    7.5748  -10.0065 H   0  0  0  0  0  0  0  0  0  0  0  0
  1  2  2  0
  2  3  1  0
  3  4  1  0
  4  5  1  0
  5  6  1  0
  6  7  1  0
  7  8  1  0
  8  9  1  0
  9 10  2  0
 10 11  1  0
 11 12  2  0
 12 13  1  0
 13 14  2  0
  2 15  1  0
 15 16  2  0
 16 17  1  0
 17 18  1  0
 18 19  1  0
 19 20  1  0
 20 21  1  0
 21 22  1  0
 22 23  2  0
 14  5  1  0
 14  9  1  0
 23 15  1  0
 21 16  1  0
  3 24  1  0
  4 25  1  0
  4 26  1  0
  5 27  1  0
  6 28  1  0
  6 29  1  0
  7 30  1  0
  7 31  1  0
  8 32  1  0
  8 33  1  0
 10 34  1  0
 11 35  1  0
 12 36  1  0
 13 37  1  0
 17 38  1  0
 17 39  1  0
 18 40  1  0
 18 41  1  0
 19 42  1  0
 19 43  1  0
 20 44  1  0
 20 45  1  0
 23 46  1  0
A    1
 O1 
A    2
 C1 
A    3
 N1 
A    4
 C2 
A    5
 C3 
A    6
 C4 
A    7
 C5 
A    8
 C6 
A    9
 C7 
A   10
 C8 
A   11
 C9 
A   12
 C10
A   13
 C11
A   14
 C12
A   15
 C13
A   16
 C14
A   17
 C15
A   18
 C16
A   19
 C17
A   20
 C18
A   21
 N2 
A   22
 N3 
A   23
 C19
A   24
 H1 
A   25
 H2 
A   26
 H3 
A   27
 H4 
A   28
 H5 
A   29
 H6 
A   30
 H7 
A   31
 H8 
A   32
 H9 
A   33
 H10
A   34
 H11
A   35
 H12
A   36
 H13
A   37
 H14
A   38
 H15
A   39
 H16
A   40
 H17
A   41
 H18
A   42
 H19
A   43
 H20
A   44
 H21
A   45
 H22
A   46
 H23
M  END
>  <ref_pdb>  (30) 
x0051_0B

>  <ref_mols>  (30) 
x0969_1B,x0455_0B

>  <original SMILES>  (30) 
[H]c1nn2c(c1C(=O)N([H])C([H])([H])C1([H])c3c([H])c([H])c([H])c([H])c3C([H])([H])C([H])([H])C1([H])[H])C([H])([H])C([H])([H])C([H])([H])C2([H])[H]

>  <index>  (30) 
32

>  <∆∆G>  (30) 
-7.809806

>  <∆G_bound>  (30) 
-6.94656

>  <∆G_unbound>  (30) 
0.863246

>  <comRMSD>  (30) 
0.321325

>  <N_constrained_atoms>  (30) 
20.0

>  <N_unconstrained_atoms>  (30) 
3.0

>  <runtime>  (30) 
71.186615

>  <LE>  (30) 
0.339557

>  <percent_hybrid>  (30) 
50.0

>  <dist>  (30) 
6.0

>  <ecfp4>  (30) 
0.235294

>  <daylight>  (30) 
0.260504

>  <topodist>  (30) 
1.0

>  <mces>  (30) 
25.0

>  <tdn>  (30) 
0.0

>  <tup>  (30) 
1.0

>  <rdn>  (30) 
0.0

>  <rup>  (30) 
0.0

>  <ldn>  (30) 
0.0

>  <lup>  (30) 
0.0

>  <mut>  (30) 
4.0

>  <maj>  (30) 
4.0

>  <min>  (30) 
0.0

>  <hyb>  (30) 
1.0

>  <sub>  (30) 
0.0

>  <query_index>  (30) 
204.0

>  <max_hit_Tanimoto>  (30) 
0.315934

>  <largest_ring>  (30) 
6

>  <N_interactions_kept>  (30) 
2.0

>  <N_interactions_lost>  (30) 
0.5

>  <interaction_uniqueness_metric>  (30) 
0.214959

>  <ad_hoc_penalty>  (30) 
-37.554466

>  <N_rotatable_bonds>  (30) 
3

>  <N_HA>  (30) 
23

>  <cluster>  (30) 
6187

>  <N_interactions>  (30) 
5

>  <Enamine>  (30) 
1

>  <Mcule>  (30) 
0

>  <N_PAINS>  (30) 
0

>  <UFF_Gibbs>  (30) 
91.771544

>  <strain_per_HA>  (30) 
3.990067

>  <saltbridge:HIS:51>  (30) 
0

>  <pistack:HIS:51>  (30) 
1

>  <hydroph_interaction:HIS:51>  (30) 
0

>  <hbond:ALA:132>  (30) 
0

>  <hbond:SER:135>  (30) 
0

>  <hydroph_interaction:TYR:150>  (30) 
1

>  <pistack:TYR:161>  (30) 
1

>  <hydroph_interaction:TYR:161>  (30) 
0

>  <hydroph_interaction:ASP:83>  (30) 
1

>  <hbond:TYR:130>  (30) 
0

>  <hydroph_interaction:ALA:132>  (30) 
0

>  <hbond:HIS:51>  (30) 
1

>  <hbond:ASP:129>  (30) 
0

>  <hbond:TYR:150>  (30) 
0

>  <hbond:GLY:151>  (30) 
0

>  <hbond:TYR:161>  (30) 
0

>  <hydroph_interaction:TYR:130>  (30) 
0

>  <hydroph_interaction:PRO:131>  (30) 
0

>  <hydroph_interaction:ASP:129>  (30) 
0

>  <saltbridge:ASP:75>  (30) 
0

>  <saltbridge:ASP:83>  (30) 
0

>  <hydroph_interaction:ASN:152>  (30) 
0

>  <halogenbond:TYR:150>  (30) 
0

>  <hbond:ASP:83>  (30) 
0

>  <hydroph_interaction:VAL:155>  (30) 
0

>  <pication:TYR:161>  (30) 
0

>  <hbond:PRO:131>  (30) 
0

>  <hbond:LEU:128>  (30) 
0

>  <saltbridge:ASP:129>  (30) 
0

>  <hbond:THR:134>  (30) 
0

>  <pication:HIS:51>  (30) 
0

>  <hbond:SER:81>  (30) 
0

>  <hbond:GLY:159>  (30) 
0

>  <hydroph_interaction:PRO:101>  (30) 
0

>  <hydroph_interaction:THR:134>  (30) 
0

>  <hbond:GLY:82>  (30) 
0

>  <hydroph_interaction:GLU:104>  (30) 
0

>  <hydroph_interaction:VAL:36>  (30) 
0

>  <hydroph_interaction:MET:49>  (30) 
0

>  <halogenbond:GLU:104>  (30) 
0

>  <hydroph_interaction:LYS:107>  (30) 
0

$$$$
Z2783649254
     RDKit          3D

 49 52  0  0  0  0  0  0  0  0999 V2000
   -8.4973    4.5167  -18.2167 C   0  0  0  0  0  0  0  0  0  0  0  0
   -7.7547    4.9387  -16.9840 C   0  0  0  0  0  0  0  0  0  0  0  0
   -8.2484    4.8033  -15.7021 C   0  0  0  0  0  0  0  0  0  0  0  0
   -7.2895    5.3925  -14.8993 C   0  0  0  0  0  0  0  0  0  0  0  0
   -7.3280    5.5294  -13.4333 C   0  0  0  0  0  0  0  0  0  0  0  0
   -6.4151    6.1818  -12.8596 O   0  0  0  0  0  0  0  0  0  0  0  0
   -8.3638    4.9002  -12.6613 N   0  0  0  0  0  0  0  0  0  0  0  0
   -8.6449    5.2197  -11.2899 C   0  0  0  0  0  0  0  0  0  0  0  0
   -9.4301    4.4904  -10.4243 C   0  0  0  0  0  0  0  0  0  0  0  0
  -10.1767    3.2181  -10.6949 C   0  0  0  0  0  0  0  0  0  0  0  0
  -10.6485    2.5847   -9.3761 C   0  0  0  0  0  0  0  0  0  0  0  0
  -11.2690    3.6345   -8.4388 C   0  0  0  0  0  0  0  0  0  0  0  0
  -10.2441    4.7234   -8.0801 C   0  0  0  0  0  0  0  0  0  0  0  0
   -9.5405    5.1824   -9.2765 N   0  0  0  0  0  0  0  0  0  0  0  0
   -8.8419    6.3054   -9.3535 N   0  0  0  0  0  0  0  0  0  0  0  0
   -8.2895    6.3604  -10.5849 C   0  0  0  0  0  0  0  0  0  0  0  0
   -6.2875    5.8686  -15.6631 N   0  0  0  0  0  0  0  0  0  0  0  0
   -6.5710    5.6022  -16.9296 N   0  0  0  0  0  0  0  0  0  0  0  0
   -5.6607    5.9817  -18.0214 C   0  0  0  0  0  0  0  0  0  0  0  0
   -4.9960    4.7381  -18.6653 C   0  0  0  0  0  0  0  0  0  0  0  0
   -4.7106    4.9192  -20.1673 C   0  0  0  0  0  0  0  0  0  0  0  0
   -4.2631    6.3524  -20.4797 C   0  0  0  0  0  0  0  0  0  0  0  0
   -5.3378    7.3981  -20.1079 C   0  0  0  0  0  0  0  0  0  0  0  0
   -6.3446    6.8992  -19.0532 C   0  0  0  0  0  0  0  0  0  0  0  0
   -9.1825    3.6767  -17.9760 H   0  0  0  0  0  0  0  0  0  0  0  0
   -7.8076    4.1721  -19.0106 H   0  0  0  0  0  0  0  0  0  0  0  0
   -9.1031    5.3670  -18.5920 H   0  0  0  0  0  0  0  0  0  0  0  0
   -9.1879    4.3555  -15.4070 H   0  0  0  0  0  0  0  0  0  0  0  0
   -8.9220    4.1365  -13.1023 H   0  0  0  0  0  0  0  0  0  0  0  0
   -9.5228    2.5024  -11.2375 H   0  0  0  0  0  0  0  0  0  0  0  0
  -11.0572    3.4499  -11.3316 H   0  0  0  0  0  0  0  0  0  0  0  0
   -9.7849    2.1023   -8.8671 H   0  0  0  0  0  0  0  0  0  0  0  0
  -11.3988    1.7952   -9.5964 H   0  0  0  0  0  0  0  0  0  0  0  0
  -11.6236    3.1406   -7.5088 H   0  0  0  0  0  0  0  0  0  0  0  0
  -12.1464    4.1015   -8.9377 H   0  0  0  0  0  0  0  0  0  0  0  0
   -9.5029    4.3119   -7.3615 H   0  0  0  0  0  0  0  0  0  0  0  0
  -10.7647    5.5790   -7.5986 H   0  0  0  0  0  0  0  0  0  0  0  0
   -7.7001    7.1929  -10.9423 H   0  0  0  0  0  0  0  0  0  0  0  0
   -4.8379    6.5898  -17.5780 H   0  0  0  0  0  0  0  0  0  0  0  0
   -4.0361    4.5392  -18.1398 H   0  0  0  0  0  0  0  0  0  0  0  0
   -5.6162    3.8285  -18.5277 H   0  0  0  0  0  0  0  0  0  0  0  0
   -5.6271    4.6858  -20.7525 H   0  0  0  0  0  0  0  0  0  0  0  0
   -3.9193    4.2050  -20.4819 H   0  0  0  0  0  0  0  0  0  0  0  0
   -4.0216    6.4365  -21.5615 H   0  0  0  0  0  0  0  0  0  0  0  0
   -3.3297    6.5654  -19.9133 H   0  0  0  0  0  0  0  0  0  0  0  0
   -5.8987    7.6926  -21.0217 H   0  0  0  0  0  0  0  0  0  0  0  0
   -4.8309    8.3113  -19.7266 H   0  0  0  0  0  0  0  0  0  0  0  0
   -6.8022    7.7713  -18.5376 H   0  0  0  0  0  0  0  0  0  0  0  0
   -7.1536    6.3580  -19.5809 H   0  0  0  0  0  0  0  0  0  0  0  0
  1  2  1  0
  2  3  2  0
  3  4  1  0
  4  5  1  0
  5  6  2  0
  5  7  1  0
  7  8  1  0
  8  9  2  0
  9 10  1  0
 10 11  1  0
 11 12  1  0
 12 13  1  0
 13 14  1  0
 14 15  1  0
 15 16  2  0
  4 17  2  0
 17 18  1  0
 18 19  1  0
 19 20  1  0
 20 21  1  0
 21 22  1  0
 22 23  1  0
 23 24  1  0
 18  2  1  0
 16  8  1  0
 14  9  1  0
 24 19  1  0
  1 25  1  0
  1 26  1  0
  1 27  1  0
  3 28  1  0
  7 29  1  0
 10 30  1  0
 10 31  1  0
 11 32  1  0
 11 33  1  0
 12 34  1  0
 12 35  1  0
 13 36  1  0
 13 37  1  0
 16 38  1  0
 19 39  1  0
 20 40  1  0
 20 41  1  0
 21 42  1  0
 21 43  1  0
 22 44  1  0
 22 45  1  0
 23 46  1  0
 23 47  1  0
 24 48  1  0
 24 49  1  0
A    1
 C1 
A    2
 C2 
A    3
 C3 
A    4
 C4 
A    5
 C5 
A    6
 O1 
A    7
 N1 
A    8
 C6 
A    9
 C7 
A   10
 C8 
A   11
 C9 
A   12
 C10
A   13
 C11
A   14
 N2 
A   15
 N3 
A   16
 C12
A   17
 N4 
A   18
 N5 
A   19
 C13
A   20
 C14
A   21
 C15
A   22
 C16
A   23
 C17
A   24
 C18
A   25
 H1 
A   26
 H2 
A   27
 H3 
A   28
 H4 
A   29
 H5 
A   30
 H6 
A   31
 H7 
A   32
 H8 
A   33
 H9 
A   34
 H10
A   35
 H11
A   36
 H12
A   37
 H13
A   38
 H14
A   39
 H15
A   40
 H16
A   41
 H17
A   42
 H18
A   43
 H19
A   44
 H20
A   45
 H21
A   46
 H22
A   47
 H23
A   48
 H24
A   49
 H25
M  END
>  <ref_pdb>  (31) 
x0051_0B

>  <ref_mols>  (31) 
x0969_1B,x0917_0B

>  <original SMILES>  (31) 
[H]c1nn2c(c1N([H])C(=O)c1nn(C3([H])C([H])([H])C([H])([H])C([H])([H])C([H])([H])C3([H])[H])c(C([H])([H])[H])c1[H])C([H])([H])C([H])([H])C([H])([H])C2([H])[H]

>  <index>  (31) 
19

>  <∆∆G>  (31) 
-7.476797

>  <∆G_bound>  (31) 
-6.822353

>  <∆G_unbound>  (31) 
0.654444

>  <comRMSD>  (31) 
0.591366

>  <N_constrained_atoms>  (31) 
25.0

>  <N_unconstrained_atoms>  (31) 
0.0

>  <runtime>  (31) 
62.421511

>  <LE>  (31) 
0.299072

>  <percent_hybrid>  (31) 
38.0

>  <dist>  (31) 
8.0

>  <ecfp4>  (31) 
0.204545

>  <daylight>  (31) 
0.287324

>  <topodist>  (31) 
1.0

>  <mces>  (31) 
27.0

>  <tdn>  (31) 
1.0

>  <tup>  (31) 
0.0

>  <rdn>  (31) 
0.0

>  <rup>  (31) 
0.0

>  <ldn>  (31) 
0.0

>  <lup>  (31) 
0.0

>  <mut>  (31) 
6.0

>  <maj>  (31) 
6.0

>  <min>  (31) 
0.0

>  <hyb>  (31) 
1.0

>  <sub>  (31) 
0.0

>  <query_index>  (31) 
70.0

>  <max_hit_Tanimoto>  (31) 
0.273841

>  <largest_ring>  (31) 
6

>  <N_interactions_kept>  (31) 
2.0

>  <N_interactions_lost>  (31) 
2.0

>  <interaction_uniqueness_metric>  (31) 
0.170032

>  <ad_hoc_penalty>  (31) 
-37.507991

>  <N_rotatable_bonds>  (31) 
4

>  <N_HA>  (31) 
24

>  <cluster>  (31) 
6199

>  <N_interactions>  (31) 
9

>  <Enamine>  (31) 
1

>  <Mcule>  (31) 
0

>  <N_PAINS>  (31) 
0

>  <UFF_Gibbs>  (31) 
164.922244

>  <strain_per_HA>  (31) 
6.59689

>  <saltbridge:HIS:51>  (31) 
0

>  <pistack:HIS:51>  (31) 
1

>  <hydroph_interaction:HIS:51>  (31) 
1

>  <hbond:ALA:132>  (31) 
0

>  <hbond:SER:135>  (31) 
0

>  <hydroph_interaction:TYR:150>  (31) 
1

>  <pistack:TYR:161>  (31) 
1

>  <hydroph_interaction:TYR:161>  (31) 
3

>  <hydroph_interaction:ASP:83>  (31) 
0

>  <hbond:TYR:130>  (31) 
0

>  <hydroph_interaction:ALA:132>  (31) 
1

>  <hbond:HIS:51>  (31) 
0

>  <hbond:ASP:129>  (31) 
0

>  <hbond:TYR:150>  (31) 
0

>  <hbond:GLY:151>  (31) 
1

>  <hbond:TYR:161>  (31) 
0

>  <hydroph_interaction:TYR:130>  (31) 
0

>  <hydroph_interaction:PRO:131>  (31) 
0

>  <hydroph_interaction:ASP:129>  (31) 
0

>  <saltbridge:ASP:75>  (31) 
0

>  <saltbridge:ASP:83>  (31) 
0

>  <hydroph_interaction:ASN:152>  (31) 
0

>  <halogenbond:TYR:150>  (31) 
0

>  <hbond:ASP:83>  (31) 
0

>  <hydroph_interaction:VAL:155>  (31) 
0

>  <pication:TYR:161>  (31) 
0

>  <hbond:PRO:131>  (31) 
0

>  <hbond:LEU:128>  (31) 
0

>  <saltbridge:ASP:129>  (31) 
0

>  <hbond:THR:134>  (31) 
0

>  <pication:HIS:51>  (31) 
0

>  <hbond:SER:81>  (31) 
0

>  <hbond:GLY:159>  (31) 
0

>  <hydroph_interaction:PRO:101>  (31) 
0

>  <hydroph_interaction:THR:134>  (31) 
0

>  <hbond:GLY:82>  (31) 
0

>  <hydroph_interaction:GLU:104>  (31) 
0

>  <hydroph_interaction:VAL:36>  (31) 
0

>  <hydroph_interaction:MET:49>  (31) 
0

>  <halogenbond:GLU:104>  (31) 
0

>  <hydroph_interaction:LYS:107>  (31) 
0

$$$$
PHHGEXJHSMHNLH-UHFFFAOYSA-N
     RDKit          3D

 33 34  0  0  0  0  0  0  0  0999 V2000
   -5.7013    5.3877  -16.7663 N   0  0  0  0  0  0  0  0  0  0  0  0
   -4.4500    5.4455  -17.5407 C   0  0  0  0  0  0  0  0  0  0  0  0
   -3.2154    5.2260  -16.6434 C   0  0  0  0  0  0  0  0  0  0  0  0
   -3.1933    3.8227  -16.0377 C   0  0  0  0  0  0  0  0  0  0  0  0
   -4.3556    6.7836  -18.2796 C   0  0  0  0  0  0  0  0  0  0  0  0
   -5.9388    6.1056  -15.5067 C   0  0  0  0  0  0  0  0  0  0  0  0
   -7.4623    5.9964  -15.2200 C   0  0  0  0  0  0  0  0  0  0  0  0
   -8.1231    7.3720  -15.0867 C   0  0  0  0  0  0  0  0  0  0  0  0
   -7.9788    5.2537  -16.4073 C   0  0  0  0  0  0  0  0  0  0  0  0
   -6.9557    4.9359  -17.2619 C   0  0  0  0  0  0  0  0  0  0  0  0
   -7.1992    4.2404  -18.4542 C   0  0  0  0  0  0  0  0  0  0  0  0
   -8.5176    3.8609  -18.7518 C   0  0  0  0  0  0  0  0  0  0  0  0
   -9.5634    4.1734  -17.8645 C   0  0  0  0  0  0  0  0  0  0  0  0
   -9.2963    4.8733  -16.6783 C   0  0  0  0  0  0  0  0  0  0  0  0
   -4.4440    4.6415  -18.3058 H   0  0  0  0  0  0  0  0  0  0  0  0
   -2.2926    5.3516  -17.2513 H   0  0  0  0  0  0  0  0  0  0  0  0
   -3.1839    5.9825  -15.8300 H   0  0  0  0  0  0  0  0  0  0  0  0
   -2.2839    3.7036  -15.4119 H   0  0  0  0  0  0  0  0  0  0  0  0
   -4.0849    3.6539  -15.3988 H   0  0  0  0  0  0  0  0  0  0  0  0
   -3.1722    3.0568  -16.8419 H   0  0  0  0  0  0  0  0  0  0  0  0
   -4.2746    7.6268  -17.5618 H   0  0  0  0  0  0  0  0  0  0  0  0
   -5.2593    6.9329  -18.9080 H   0  0  0  0  0  0  0  0  0  0  0  0
   -3.4645    6.7925  -18.9428 H   0  0  0  0  0  0  0  0  0  0  0  0
   -5.3634    5.6311  -14.6839 H   0  0  0  0  0  0  0  0  0  0  0  0
   -5.6139    7.1638  -15.6078 H   0  0  0  0  0  0  0  0  0  0  0  0
   -7.6411    5.3984  -14.2996 H   0  0  0  0  0  0  0  0  0  0  0  0
   -7.9899    7.9645  -16.0178 H   0  0  0  0  0  0  0  0  0  0  0  0
   -7.6690    7.9266  -14.2384 H   0  0  0  0  0  0  0  0  0  0  0  0
   -9.2091    7.2569  -14.8850 H   0  0  0  0  0  0  0  0  0  0  0  0
   -6.4042    3.9885  -19.1406 H   0  0  0  0  0  0  0  0  0  0  0  0
   -8.7298    3.3214  -19.6657 H   0  0  0  0  0  0  0  0  0  0  0  0
  -10.5767    3.8731  -18.0972 H   0  0  0  0  0  0  0  0  0  0  0  0
  -10.0964    5.1145  -15.9906 H   0  0  0  0  0  0  0  0  0  0  0  0
  1  2  1  0
  2  3  1  0
  3  4  1  0
  2  5  1  0
  1  6  1  0
  6  7  1  0
  7  8  1  0
  7  9  1  0
  9 10  2  0
 10 11  1  0
 11 12  2  0
 12 13  1  0
 13 14  2  0
 10  1  1  0
 14  9  1  0
  2 15  1  0
  3 16  1  0
  3 17  1  0
  4 18  1  0
  4 19  1  0
  4 20  1  0
  5 21  1  0
  5 22  1  0
  5 23  1  0
  6 24  1  0
  6 25  1  0
  7 26  1  0
  8 27  1  0
  8 28  1  0
  8 29  1  0
 11 30  1  0
 12 31  1  0
 13 32  1  0
 14 33  1  0
A    1
 N1 
A    2
 C1 
A    3
 C2 
A    4
 C3 
A    5
 C4 
A    6
 C5 
A    7
 C6 
A    8
 C7 
A    9
 C8 
A   10
 C9 
A   11
 C10
A   12
 C11
A   13
 C12
A   14
 C13
A   15
 H1 
A   16
 H2 
A   17
 H3 
A   18
 H4 
A   19
 H5 
A   20
 H6 
A   21
 H7 
A   22
 H8 
A   23
 H9 
A   24
 H10
A   25
 H11
A   26
 H12
A   27
 H13
A   28
 H14
A   29
 H15
A   30
 H16
A   31
 H17
A   32
 H18
A   33
 H19
M  END
>  <ref_pdb>  (32) 
x0051_0B

>  <ref_mols>  (32) 
x0951_0B,x0472_0B

>  <original SMILES>  (32) 
[H]c1c([H])c([H])c2c(c1[H])N(C([H])(C([H])([H])[H])C([H])([H])C([H])([H])[H])C([H])([H])C2([H])C([H])([H])[H]

>  <index>  (32) 
23

>  <∆∆G>  (32) 
-7.628122

>  <∆G_bound>  (32) 
-8.22954

>  <∆G_unbound>  (32) 
-0.601419

>  <comRMSD>  (32) 
0.735924

>  <N_constrained_atoms>  (32) 
16.0

>  <N_unconstrained_atoms>  (32) 
1.0

>  <runtime>  (32) 
22.573422

>  <LE>  (32) 
0.448713

>  <percent_hybrid>  (32) 
34.0

>  <dist>  (32) 
5.0

>  <ecfp4>  (32) 
0.254545

>  <daylight>  (32) 
0.152866

>  <topodist>  (32) 
2.0

>  <mces>  (32) 
15.0

>  <tdn>  (32) 
2.0

>  <tup>  (32) 
0.0

>  <rdn>  (32) 
0.0

>  <rup>  (32) 
0.0

>  <ldn>  (32) 
0.0

>  <lup>  (32) 
0.0

>  <mut>  (32) 
2.0

>  <maj>  (32) 
2.0

>  <min>  (32) 
0.0

>  <hyb>  (32) 
1.0

>  <sub>  (32) 
1.0

>  <query_index>  (32) 
55.0

>  <max_hit_Tanimoto>  (32) 
0.213695

>  <largest_ring>  (32) 
6

>  <N_interactions_kept>  (32) 
3.0

>  <N_interactions_lost>  (32) 
0.5

>  <interaction_uniqueness_metric>  (32) 
0.089447

>  <ad_hoc_penalty>  (32) 
-36.878472

>  <N_rotatable_bonds>  (32) 
5

>  <N_HA>  (32) 
14

>  <cluster>  (32) 
6195

>  <N_interactions>  (32) 
7

>  <Enamine>  (32) 
0

>  <Mcule>  (32) 
1

>  <N_PAINS>  (32) 
0

>  <UFF_Gibbs>  (32) 
97.044986

>  <strain_per_HA>  (32) 
5.708529

>  <saltbridge:HIS:51>  (32) 
0

>  <pistack:HIS:51>  (32) 
0

>  <hydroph_interaction:HIS:51>  (32) 
0

>  <hbond:ALA:132>  (32) 
0

>  <hbond:SER:135>  (32) 
0

>  <hydroph_interaction:TYR:150>  (32) 
1

>  <pistack:TYR:161>  (32) 
0

>  <hydroph_interaction:TYR:161>  (32) 
4

>  <hydroph_interaction:ASP:83>  (32) 
0

>  <hbond:TYR:130>  (32) 
0

>  <hydroph_interaction:ALA:132>  (32) 
1

>  <hbond:HIS:51>  (32) 
0

>  <hbond:ASP:129>  (32) 
0

>  <hbond:TYR:150>  (32) 
0

>  <hbond:GLY:151>  (32) 
0

>  <hbond:TYR:161>  (32) 
0

>  <hydroph_interaction:TYR:130>  (32) 
0

>  <hydroph_interaction:PRO:131>  (32) 
0

>  <hydroph_interaction:ASP:129>  (32) 
0

>  <saltbridge:ASP:75>  (32) 
0

>  <saltbridge:ASP:83>  (32) 
0

>  <hydroph_interaction:ASN:152>  (32) 
0

>  <halogenbond:TYR:150>  (32) 
0

>  <hbond:ASP:83>  (32) 
0

>  <hydroph_interaction:VAL:155>  (32) 
1

>  <pication:TYR:161>  (32) 
0

>  <hbond:PRO:131>  (32) 
0

>  <hbond:LEU:128>  (32) 
0

>  <saltbridge:ASP:129>  (32) 
0

>  <hbond:THR:134>  (32) 
0

>  <pication:HIS:51>  (32) 
0

>  <hbond:SER:81>  (32) 
0

>  <hbond:GLY:159>  (32) 
0

>  <hydroph_interaction:PRO:101>  (32) 
0

>  <hydroph_interaction:THR:134>  (32) 
0

>  <hbond:GLY:82>  (32) 
0

>  <hydroph_interaction:GLU:104>  (32) 
0

>  <hydroph_interaction:VAL:36>  (32) 
0

>  <hydroph_interaction:MET:49>  (32) 
0

>  <halogenbond:GLU:104>  (32) 
0

>  <hydroph_interaction:LYS:107>  (32) 
0

$$$$
CSSB00005866780
     RDKit          3D

 35 36  0  0  0  0  0  0  0  0999 V2000
   -2.1520    4.5892  -17.9312 C   0  0  0  0  0  0  0  0  0  0  0  0
   -3.1442    5.4081  -17.0942 C   0  0  0  0  0  0  0  0  0  0  0  0
   -3.6570    4.5617  -15.9209 C   0  0  0  0  0  0  0  0  0  0  0  0
   -4.2942    5.9172  -17.9937 C   0  0  0  0  0  0  0  0  0  0  0  0
   -5.2341    6.9250  -17.3026 C   0  0  0  0  0  0  0  0  0  0  0  0
   -6.3599    6.2551  -16.6492 N   0  0  0  0  0  0  0  0  0  0  0  0
   -6.5246    6.1994  -15.3312 N   0  0  0  0  0  0  0  0  0  0  0  0
   -7.6744    5.5299  -15.0775 C   0  0  0  0  0  0  0  0  0  0  0  0
   -8.2337    5.3138  -13.7065 C   0  0  0  0  0  0  0  0  0  0  0  0
   -9.1564    6.3920  -13.3699 N   0  0  0  0  0  0  0  0  0  0  0  0
   -8.2616    5.1842  -16.2789 C   0  0  0  0  0  0  0  0  0  0  0  0
   -9.4550    4.5368  -16.5936 C   0  0  0  0  0  0  0  0  0  0  0  0
   -9.7663    4.3724  -17.9562 C   0  0  0  0  0  0  0  0  0  0  0  0
   -8.8930    4.8605  -18.9552 C   0  0  0  0  0  0  0  0  0  0  0  0
   -7.6986    5.5165  -18.6021 C   0  0  0  0  0  0  0  0  0  0  0  0
   -7.4120    5.6537  -17.2418 C   0  0  0  0  0  0  0  0  0  0  0  0
   -2.6489    3.6928  -18.3610 H   0  0  0  0  0  0  0  0  0  0  0  0
   -1.2972    4.2593  -17.3027 H   0  0  0  0  0  0  0  0  0  0  0  0
   -1.7453    5.2066  -18.7604 H   0  0  0  0  0  0  0  0  0  0  0  0
   -2.5928    6.2825  -16.6825 H   0  0  0  0  0  0  0  0  0  0  0  0
   -4.3584    3.7763  -16.2759 H   0  0  0  0  0  0  0  0  0  0  0  0
   -4.1674    5.2056  -15.1785 H   0  0  0  0  0  0  0  0  0  0  0  0
   -2.8098    4.0723  -15.3946 H   0  0  0  0  0  0  0  0  0  0  0  0
   -4.8700    5.0560  -18.3966 H   0  0  0  0  0  0  0  0  0  0  0  0
   -3.8441    6.4359  -18.8688 H   0  0  0  0  0  0  0  0  0  0  0  0
   -5.6357    7.6290  -18.0636 H   0  0  0  0  0  0  0  0  0  0  0  0
   -4.6742    7.5384  -16.5634 H   0  0  0  0  0  0  0  0  0  0  0  0
   -8.7550    4.3322  -13.6577 H   0  0  0  0  0  0  0  0  0  0  0  0
   -7.3991    5.2991  -12.9725 H   0  0  0  0  0  0  0  0  0  0  0  0
   -9.4643    6.2490  -12.3809 H   0  0  0  0  0  0  0  0  0  0  0  0
  -10.0113    6.2888  -13.9641 H   0  0  0  0  0  0  0  0  0  0  0  0
  -10.1224    4.1763  -15.8219 H   0  0  0  0  0  0  0  0  0  0  0  0
  -10.6836    3.8738  -18.2410 H   0  0  0  0  0  0  0  0  0  0  0  0
   -9.1470    4.7336  -19.9995 H   0  0  0  0  0  0  0  0  0  0  0  0
   -7.0343    5.9028  -19.3637 H   0  0  0  0  0  0  0  0  0  0  0  0
  1  2  1  0
  2  3  1  0
  2  4  1  0
  4  5  1  0
  5  6  1  0
  6  7  1  0
  7  8  2  0
  8  9  1  0
  9 10  1  0
  8 11  1  0
 11 12  2  0
 12 13  1  0
 13 14  2  0
 14 15  1  0
 15 16  2  0
 16  6  1  0
 16 11  1  0
  1 17  1  0
  1 18  1  0
  1 19  1  0
  2 20  1  0
  3 21  1  0
  3 22  1  0
  3 23  1  0
  4 24  1  0
  4 25  1  0
  5 26  1  0
  5 27  1  0
  9 28  1  0
  9 29  1  0
 10 30  1  0
 10 31  1  0
 12 32  1  0
 13 33  1  0
 14 34  1  0
 15 35  1  0
A    1
 C1 
A    2
 C2 
A    3
 C3 
A    4
 C4 
A    5
 C5 
A    6
 N1 
A    7
 N2 
A    8
 C6 
A    9
 C7 
A   10
 N3 
A   11
 C8 
A   12
 C9 
A   13
 C10
A   14
 C11
A   15
 C12
A   16
 C13
A   17
 H1 
A   18
 H2 
A   19
 H3 
A   20
 H4 
A   21
 H5 
A   22
 H6 
A   23
 H7 
A   24
 H8 
A   25
 H9 
A   26
 H10
A   27
 H11
A   28
 H12
A   29
 H13
A   30
 H14
A   31
 H15
A   32
 H16
A   33
 H17
A   34
 H18
A   35
 H19
M  END
>  <ref_pdb>  (33) 
x0051_0B

>  <ref_mols>  (33) 
x0951_0B,x0472_0B

>  <original SMILES>  (33) 
[H]c1c([H])c([H])c2c(c(C([H])([H])N([H])[H])nn2C([H])([H])C([H])([H])C([H])(C([H])([H])[H])C([H])([H])[H])c1[H]

>  <index>  (33) 
48

>  <∆∆G>  (33) 
-7.841771

>  <∆G_bound>  (33) 
-8.055974

>  <∆G_unbound>  (33) 
-0.214203

>  <comRMSD>  (33) 
0.580927

>  <N_constrained_atoms>  (33) 
18.0

>  <N_unconstrained_atoms>  (33) 
1.0

>  <runtime>  (33) 
20.259783

>  <LE>  (33) 
0.412725

>  <percent_hybrid>  (33) 
46.0

>  <dist>  (33) 
5.0

>  <ecfp4>  (33) 
0.388889

>  <daylight>  (33) 
0.706767

>  <topodist>  (33) 
4.0

>  <mces>  (33) 
15.0

>  <tdn>  (33) 
2.0

>  <tup>  (33) 
2.0

>  <rdn>  (33) 
0.0

>  <rup>  (33) 
0.0

>  <ldn>  (33) 
0.0

>  <lup>  (33) 
0.0

>  <mut>  (33) 
1.0

>  <maj>  (33) 
1.0

>  <min>  (33) 
0.0

>  <hyb>  (33) 
0.0

>  <sub>  (33) 
2.0

>  <query_index>  (33) 
55.0

>  <max_hit_Tanimoto>  (33) 
0.163221

>  <largest_ring>  (33) 
6

>  <N_interactions_kept>  (33) 
3.0

>  <N_interactions_lost>  (33) 
0.5

>  <interaction_uniqueness_metric>  (33) 
0.141194

>  <ad_hoc_penalty>  (33) 
-36.467356

>  <N_rotatable_bonds>  (33) 
7

>  <N_HA>  (33) 
16

>  <cluster>  (33) 
6173

>  <N_interactions>  (33) 
7

>  <Enamine>  (33) 
1

>  <Mcule>  (33) 
0

>  <N_PAINS>  (33) 
0

>  <UFF_Gibbs>  (33) 
40.756077

>  <strain_per_HA>  (33) 
2.145057

>  <saltbridge:HIS:51>  (33) 
0

>  <pistack:HIS:51>  (33) 
0

>  <hydroph_interaction:HIS:51>  (33) 
0

>  <hbond:ALA:132>  (33) 
0

>  <hbond:SER:135>  (33) 
0

>  <hydroph_interaction:TYR:150>  (33) 
1

>  <pistack:TYR:161>  (33) 
0

>  <hydroph_interaction:TYR:161>  (33) 
4

>  <hydroph_interaction:ASP:83>  (33) 
0

>  <hbond:TYR:130>  (33) 
0

>  <hydroph_interaction:ALA:132>  (33) 
0

>  <hbond:HIS:51>  (33) 
1

>  <hbond:ASP:129>  (33) 
0

>  <hbond:TYR:150>  (33) 
0

>  <hbond:GLY:151>  (33) 
0

>  <hbond:TYR:161>  (33) 
0

>  <hydroph_interaction:TYR:130>  (33) 
0

>  <hydroph_interaction:PRO:131>  (33) 
0

>  <hydroph_interaction:ASP:129>  (33) 
0

>  <saltbridge:ASP:75>  (33) 
0

>  <saltbridge:ASP:83>  (33) 
0

>  <hydroph_interaction:ASN:152>  (33) 
0

>  <halogenbond:TYR:150>  (33) 
0

>  <hbond:ASP:83>  (33) 
0

>  <hydroph_interaction:VAL:155>  (33) 
1

>  <pication:TYR:161>  (33) 
0

>  <hbond:PRO:131>  (33) 
0

>  <hbond:LEU:128>  (33) 
0

>  <saltbridge:ASP:129>  (33) 
0

>  <hbond:THR:134>  (33) 
0

>  <pication:HIS:51>  (33) 
0

>  <hbond:SER:81>  (33) 
0

>  <hbond:GLY:159>  (33) 
0

>  <hydroph_interaction:PRO:101>  (33) 
0

>  <hydroph_interaction:THR:134>  (33) 
0

>  <hbond:GLY:82>  (33) 
0

>  <hydroph_interaction:GLU:104>  (33) 
0

>  <hydroph_interaction:VAL:36>  (33) 
0

>  <hydroph_interaction:MET:49>  (33) 
0

>  <halogenbond:GLU:104>  (33) 
0

>  <hydroph_interaction:LYS:107>  (33) 
0

$$$$
PV-007140268584
     RDKit          3D

 52 56  0  0  0  0  0  0  0  0999 V2000
   -5.0394    4.2334  -21.0704 O   0  0  0  0  0  0  0  0  0  0  0  0
   -5.7234    5.1922  -20.6214 C   0  0  0  0  0  0  0  0  0  0  0  0
   -6.4453    6.0814  -21.5624 C   0  0  0  0  0  0  0  0  0  0  0  0
   -6.7199    5.6527  -22.8729 C   0  0  0  0  0  0  0  0  0  0  0  0
   -7.3675    6.5006  -23.7755 C   0  0  0  0  0  0  0  0  0  0  0  0
   -7.7565    7.7897  -23.3833 C   0  0  0  0  0  0  0  0  0  0  0  0
   -8.3999    8.7147  -24.3755 C   0  0  0  0  0  0  0  0  0  0  0  0
   -7.1010    9.6224  -25.2809 S   0  0  0  0  0  0  0  0  0  0  0  0
   -7.9248    9.5259  -26.8657 C   0  0  0  0  0  0  0  0  0  0  0  0
   -7.7219    8.5014  -27.7343 N   0  0  0  0  0  0  0  0  0  0  0  0
   -8.5443    8.8154  -28.7522 C   0  0  0  0  0  0  0  0  0  0  0  0
   -8.7550    8.0999  -29.9281 C   0  0  0  0  0  0  0  0  0  0  0  0
   -9.6813    8.6208  -30.8537 C   0  0  0  0  0  0  0  0  0  0  0  0
  -10.3647    9.8296  -30.5804 C   0  0  0  0  0  0  0  0  0  0  0  0
  -10.1253   10.5285  -29.3829 C   0  0  0  0  0  0  0  0  0  0  0  0
   -9.2042    9.9808  -28.4910 C   0  0  0  0  0  0  0  0  0  0  0  0
   -8.8217   10.4469  -27.2970 N   0  0  0  0  0  0  0  0  0  0  0  0
   -7.4711    8.2280  -22.0810 C   0  0  0  0  0  0  0  0  0  0  0  0
   -6.8200    7.3821  -21.1785 C   0  0  0  0  0  0  0  0  0  0  0  0
   -5.7555    5.4247  -19.2048 N   0  0  0  0  0  0  0  0  0  0  0  0
   -4.5086    5.2584  -18.4344 C   0  0  0  0  0  0  0  0  0  0  0  0
   -4.5555    6.0550  -17.1169 C   0  0  0  0  0  0  0  0  0  0  0  0
   -5.8352    5.7891  -16.4468 N   0  0  0  0  0  0  0  0  0  0  0  0
   -6.0072    6.4610  -15.1604 C   0  0  0  0  0  0  0  0  0  0  0  0
   -7.5197    6.6441  -14.9836 C   0  0  0  0  0  0  0  0  0  0  0  0
   -8.1360    6.2753  -16.3319 C   0  0  0  0  0  0  0  0  0  0  0  0
   -6.9395    6.2744  -17.2613 C   0  0  2  0  0  0  0  0  0  0  0  0
   -7.0492    5.3954  -18.5015 C   0  0  0  0  0  0  0  0  0  0  0  0
   -6.4342    4.6604  -23.2009 H   0  0  0  0  0  0  0  0  0  0  0  0
   -7.5596    6.1539  -24.7841 H   0  0  0  0  0  0  0  0  0  0  0  0
   -9.0499    8.1267  -25.0586 H   0  0  0  0  0  0  0  0  0  0  0  0
   -9.0473    9.4518  -23.8569 H   0  0  0  0  0  0  0  0  0  0  0  0
   -8.2266    7.1753  -30.1248 H   0  0  0  0  0  0  0  0  0  0  0  0
   -9.8701    8.0936  -31.7793 H   0  0  0  0  0  0  0  0  0  0  0  0
  -11.0716   10.2221  -31.2984 H   0  0  0  0  0  0  0  0  0  0  0  0
  -10.6391   11.4552  -29.1625 H   0  0  0  0  0  0  0  0  0  0  0  0
   -9.1462   11.3099  -26.8062 H   0  0  0  0  0  0  0  0  0  0  0  0
   -7.7397    9.2303  -21.7684 H   0  0  0  0  0  0  0  0  0  0  0  0
   -6.5911    7.7536  -20.1879 H   0  0  0  0  0  0  0  0  0  0  0  0
   -4.3618    4.1792  -18.2097 H   0  0  0  0  0  0  0  0  0  0  0  0
   -3.6390    5.6142  -19.0305 H   0  0  0  0  0  0  0  0  0  0  0  0
   -4.4298    7.1424  -17.3280 H   0  0  0  0  0  0  0  0  0  0  0  0
   -3.7165    5.7273  -16.4660 H   0  0  0  0  0  0  0  0  0  0  0  0
   -5.5003    7.4531  -15.1528 H   0  0  0  0  0  0  0  0  0  0  0  0
   -5.5901    5.8283  -14.3473 H   0  0  0  0  0  0  0  0  0  0  0  0
   -7.9090    5.9797  -14.1835 H   0  0  0  0  0  0  0  0  0  0  0  0
   -7.7529    7.6999  -14.7306 H   0  0  0  0  0  0  0  0  0  0  0  0
   -8.9028    7.0141  -16.6523 H   0  0  0  0  0  0  0  0  0  0  0  0
   -8.5881    5.2605  -16.2775 H   0  0  0  0  0  0  0  0  0  0  0  0
   -6.7603    7.3283  -17.5887 H   0  0  0  0  0  0  0  0  0  0  0  0
   -7.8681    5.7718  -19.1505 H   0  0  0  0  0  0  0  0  0  0  0  0
   -7.2823    4.3478  -18.2109 H   0  0  0  0  0  0  0  0  0  0  0  0
  1  2  2  0
  2  3  1  0
  3  4  2  0
  4  5  1  0
  5  6  2  0
  6  7  1  0
  7  8  1  0
  8  9  1  0
  9 10  2  0
 10 11  1  0
 11 12  2  0
 12 13  1  0
 13 14  2  0
 14 15  1  0
 15 16  2  0
 16 17  1  0
  6 18  1  0
 18 19  2  0
  2 20  1  0
 20 21  1  0
 21 22  1  0
 22 23  1  0
 23 24  1  0
 24 25  1  0
 25 26  1  0
 26 27  1  0
 27 28  1  0
 19  3  1  0
 17  9  1  0
 16 11  1  0
 28 20  1  0
 27 23  1  0
  4 29  1  0
  5 30  1  0
  7 31  1  0
  7 32  1  0
 12 33  1  0
 13 34  1  0
 14 35  1  0
 15 36  1  0
 17 37  1  0
 18 38  1  0
 19 39  1  0
 21 40  1  0
 21 41  1  0
 22 42  1  0
 22 43  1  0
 24 44  1  0
 24 45  1  0
 25 46  1  0
 25 47  1  0
 26 48  1  0
 26 49  1  0
 27 50  1  6
 28 51  1  0
 28 52  1  0
A    1
 O1 
A    2
 C1 
A    3
 C2 
A    4
 C3 
A    5
 C4 
A    6
 C5 
A    7
 C6 
A    8
 S1 
A    9
 C7 
A   10
 N1 
A   11
 C8 
A   12
 C9 
A   13
 C10
A   14
 C11
A   15
 C12
A   16
 C13
A   17
 N2 
A   18
 C14
A   19
 C15
A   20
 N3 
A   21
 C16
A   22
 C17
A   23
 N4 
A   24
 C18
A   25
 C19
A   26
 C20
A   27
 C21
A   28
 C22
A   29
 H1 
A   30
 H2 
A   31
 H3 
A   32
 H4 
A   33
 H5 
A   34
 H6 
A   35
 H7 
A   36
 H8 
A   37
 H9 
A   38
 H10
A   39
 H11
A   40
 H12
A   41
 H13
A   42
 H14
A   43
 H15
A   44
 H16
A   45
 H17
A   46
 H18
A   47
 H19
A   48
 H20
A   49
 H21
A   50
 H22
A   51
 H23
A   52
 H24
M  END
>  <ref_pdb>  (34) 
x0051_0B

>  <ref_mols>  (34) 
x0846_1B,x0969_0B

>  <original SMILES>  (34) 
[H]c1c([H])c(C([H])([H])Sc2nc3c([H])c([H])c([H])c([H])c3n2[H])c([H])c([H])c1C(=O)N1C([H])([H])C([H])([H])N2C([H])([H])C([H])([H])C([H])([H])[C@]2([H])C1([H])[H]

>  <index>  (34) 
75

>  <∆∆G>  (34) 
-6.79556

>  <∆G_bound>  (34) 
-6.105597

>  <∆G_unbound>  (34) 
0.689962

>  <comRMSD>  (34) 
0.742197

>  <N_constrained_atoms>  (34) 
28.0

>  <N_unconstrained_atoms>  (34) 
2.0

>  <runtime>  (34) 
40.166907

>  <LE>  (34) 
0.226519

>  <percent_hybrid>  (34) 
36.0

>  <dist>  (34) 
9.0

>  <ecfp4>  (34) 
0.193878

>  <daylight>  (34) 
0.25784

>  <topodist>  (34) 
3.0

>  <mces>  (34) 
31.0

>  <tdn>  (34) 
2.0

>  <tup>  (34) 
1.0

>  <rdn>  (34) 
0.0

>  <rup>  (34) 
0.0

>  <ldn>  (34) 
0.0

>  <lup>  (34) 
0.0

>  <mut>  (34) 
3.0

>  <maj>  (34) 
3.0

>  <min>  (34) 
0.0

>  <hyb>  (34) 
3.0

>  <sub>  (34) 
1.0

>  <query_index>  (34) 
45.0

>  <max_hit_Tanimoto>  (34) 
0.271167

>  <largest_ring>  (34) 
6

>  <N_interactions_kept>  (34) 
1.5

>  <N_interactions_lost>  (34) 
1.0

>  <interaction_uniqueness_metric>  (34) 
0.260394

>  <ad_hoc_penalty>  (34) 
-36.000169

>  <N_rotatable_bonds>  (34) 
4

>  <N_HA>  (34) 
28

>  <cluster>  (34) 
6149

>  <N_interactions>  (34) 
6

>  <Enamine>  (34) 
1

>  <Mcule>  (34) 
0

>  <N_PAINS>  (34) 
0

>  <UFF_Gibbs>  (34) 
73.966895

>  <strain_per_HA>  (34) 
2.465563

>  <saltbridge:HIS:51>  (34) 
0

>  <pistack:HIS:51>  (34) 
0

>  <hydroph_interaction:HIS:51>  (34) 
0

>  <hbond:ALA:132>  (34) 
0

>  <hbond:SER:135>  (34) 
0

>  <hydroph_interaction:TYR:150>  (34) 
0

>  <pistack:TYR:161>  (34) 
0

>  <hydroph_interaction:TYR:161>  (34) 
1

>  <hydroph_interaction:ASP:83>  (34) 
0

>  <hbond:TYR:130>  (34) 
0

>  <hydroph_interaction:ALA:132>  (34) 
1

>  <hbond:HIS:51>  (34) 
0

>  <hbond:ASP:129>  (34) 
1

>  <hbond:TYR:150>  (34) 
0

>  <hbond:GLY:151>  (34) 
0

>  <hbond:TYR:161>  (34) 
0

>  <hydroph_interaction:TYR:130>  (34) 
1

>  <hydroph_interaction:PRO:131>  (34) 
1

>  <hydroph_interaction:ASP:129>  (34) 
0

>  <saltbridge:ASP:75>  (34) 
0

>  <saltbridge:ASP:83>  (34) 
0

>  <hydroph_interaction:ASN:152>  (34) 
0

>  <halogenbond:TYR:150>  (34) 
0

>  <hbond:ASP:83>  (34) 
0

>  <hydroph_interaction:VAL:155>  (34) 
0

>  <pication:TYR:161>  (34) 
1

>  <hbond:PRO:131>  (34) 
0

>  <hbond:LEU:128>  (34) 
0

>  <saltbridge:ASP:129>  (34) 
0

>  <hbond:THR:134>  (34) 
0

>  <pication:HIS:51>  (34) 
0

>  <hbond:SER:81>  (34) 
0

>  <hbond:GLY:159>  (34) 
0

>  <hydroph_interaction:PRO:101>  (34) 
0

>  <hydroph_interaction:THR:134>  (34) 
0

>  <hbond:GLY:82>  (34) 
0

>  <hydroph_interaction:GLU:104>  (34) 
0

>  <hydroph_interaction:VAL:36>  (34) 
0

>  <hydroph_interaction:MET:49>  (34) 
0

>  <halogenbond:GLU:104>  (34) 
0

>  <hydroph_interaction:LYS:107>  (34) 
0

$$$$
XDCMWTDMVOHHCG-UHFFFAOYSA-N
     RDKit          3D

 39 41  0  0  0  0  0  0  0  0999 V2000
   -8.0238    6.0649  -14.0896 C   0  0  0  0  0  0  0  0  0  0  0  0
   -7.0402    6.0114  -13.0453 N   0  0  0  0  0  0  0  0  0  0  0  0
   -7.1904    6.7512  -11.7943 C   0  0  0  0  0  0  0  0  0  0  0  0
   -8.4186    6.3015  -11.0577 C   0  0  0  0  0  0  0  0  0  0  0  0
   -8.8134    5.0128  -10.7567 C   0  0  0  0  0  0  0  0  0  0  0  0
  -10.0013    5.0705  -10.1290 N   0  0  0  0  0  0  0  0  0  0  0  0
  -10.7369    3.9206   -9.6065 C   0  0  0  0  0  0  0  0  0  0  0  0
  -10.2786    2.6251  -10.2964 C   0  0  0  0  0  0  0  0  0  0  0  0
   -8.7438    2.5519  -10.3579 C   0  0  0  0  0  0  0  0  0  0  0  0
   -8.1601    3.7239  -11.1620 C   0  0  0  0  0  0  0  0  0  0  0  0
  -10.3671    6.3323   -9.9668 N   0  0  0  0  0  0  0  0  0  0  0  0
   -9.4158    7.1060  -10.5317 C   0  0  0  0  0  0  0  0  0  0  0  0
   -8.9666    6.9001  -14.0246 O   0  0  0  0  0  0  0  0  0  0  0  0
   -7.9478    5.1319  -15.2344 C   0  0  0  0  0  0  0  0  0  0  0  0
   -9.0847    4.4189  -15.6943 C   0  0  0  0  0  0  0  0  0  0  0  0
  -10.4253    4.5439  -15.0175 C   0  0  0  0  0  0  0  0  0  0  0  0
   -8.9599    3.5697  -16.8079 C   0  0  0  0  0  0  0  0  0  0  0  0
   -7.7263    3.4044  -17.4403 C   0  0  0  0  0  0  0  0  0  0  0  0
   -6.6038    4.0865  -16.9728 C   0  0  0  0  0  0  0  0  0  0  0  0
   -6.7118    4.9446  -15.8771 C   0  0  0  0  0  0  0  0  0  0  0  0
   -6.2356    5.3503  -13.1321 H   0  0  0  0  0  0  0  0  0  0  0  0
   -6.3040    6.5736  -11.1488 H   0  0  0  0  0  0  0  0  0  0  0  0
   -7.2463    7.8395  -12.0120 H   0  0  0  0  0  0  0  0  0  0  0  0
  -10.5546    3.8423   -8.5131 H   0  0  0  0  0  0  0  0  0  0  0  0
  -11.8260    4.0643   -9.7732 H   0  0  0  0  0  0  0  0  0  0  0  0
  -10.6715    1.7495   -9.7364 H   0  0  0  0  0  0  0  0  0  0  0  0
  -10.6912    2.5891  -11.3287 H   0  0  0  0  0  0  0  0  0  0  0  0
   -8.3323    2.5692   -9.3246 H   0  0  0  0  0  0  0  0  0  0  0  0
   -8.4375    1.5943  -10.8313 H   0  0  0  0  0  0  0  0  0  0  0  0
   -7.0640    3.7841  -10.9917 H   0  0  0  0  0  0  0  0  0  0  0  0
   -8.3441    3.5546  -12.2446 H   0  0  0  0  0  0  0  0  0  0  0  0
   -9.4511    8.1867  -10.5650 H   0  0  0  0  0  0  0  0  0  0  0  0
  -10.8915    5.5138  -15.2891 H   0  0  0  0  0  0  0  0  0  0  0  0
  -11.1121    3.7265  -15.3243 H   0  0  0  0  0  0  0  0  0  0  0  0
  -10.3080    4.4837  -13.9145 H   0  0  0  0  0  0  0  0  0  0  0  0
   -9.8175    3.0256  -17.1840 H   0  0  0  0  0  0  0  0  0  0  0  0
   -7.6404    2.7438  -18.2934 H   0  0  0  0  0  0  0  0  0  0  0  0
   -5.6487    3.9560  -17.4650 H   0  0  0  0  0  0  0  0  0  0  0  0
   -5.8314    5.4802  -15.5436 H   0  0  0  0  0  0  0  0  0  0  0  0
  1  2  1  0
  2  3  1  0
  3  4  1  0
  4  5  2  0
  5  6  1  0
  6  7  1  0
  7  8  1  0
  8  9  1  0
  9 10  1  0
  6 11  1  0
 11 12  2  0
  1 13  2  0
  1 14  1  0
 14 15  2  0
 15 16  1  0
 15 17  1  0
 17 18  2  0
 18 19  1  0
 19 20  2  0
 12  4  1  0
 10  5  1  0
 20 14  1  0
  2 21  1  0
  3 22  1  0
  3 23  1  0
  7 24  1  0
  7 25  1  0
  8 26  1  0
  8 27  1  0
  9 28  1  0
  9 29  1  0
 10 30  1  0
 10 31  1  0
 12 32  1  0
 16 33  1  0
 16 34  1  0
 16 35  1  0
 17 36  1  0
 18 37  1  0
 19 38  1  0
 20 39  1  0
A    1
 C1 
A    2
 N1 
A    3
 C2 
A    4
 C3 
A    5
 C4 
A    6
 N2 
A    7
 C5 
A    8
 C6 
A    9
 C7 
A   10
 C8 
A   11
 N3 
A   12
 C9 
A   13
 O1 
A   14
 C10
A   15
 C11
A   16
 C12
A   17
 C13
A   18
 C14
A   19
 C15
A   20
 C16
A   21
 H1 
A   22
 H2 
A   23
 H3 
A   24
 H4 
A   25
 H5 
A   26
 H6 
A   27
 H7 
A   28
 H8 
A   29
 H9 
A   30
 H10
A   31
 H11
A   32
 H12
A   33
 H13
A   34
 H14
A   35
 H15
A   36
 H16
A   37
 H17
A   38
 H18
A   39
 H19
M  END
>  <ref_pdb>  (35) 
x0051_0B

>  <ref_mols>  (35) 
x0553_0B,x0969_1B

>  <original SMILES>  (35) 
[H]c1nn2c(c1C([H])([H])N([H])C(=O)c1c([H])c([H])c([H])c([H])c1C([H])([H])[H])C([H])([H])C([H])([H])C([H])([H])C2([H])[H]

>  <index>  (35) 
59

>  <∆∆G>  (35) 
-6.024597

>  <∆G_bound>  (35) 
-5.915663

>  <∆G_unbound>  (35) 
0.108934

>  <comRMSD>  (35) 
0.734044

>  <N_constrained_atoms>  (35) 
19.0

>  <N_unconstrained_atoms>  (35) 
3.0

>  <runtime>  (35) 
50.840457

>  <LE>  (35) 
0.273845

>  <percent_hybrid>  (35) 
48.0

>  <dist>  (35) 
6.0

>  <ecfp4>  (35) 
0.337838

>  <daylight>  (35) 
0.327138

>  <topodist>  (35) 
3.0

>  <mces>  (35) 
21.0

>  <tdn>  (35) 
2.0

>  <tup>  (35) 
1.0

>  <rdn>  (35) 
0.0

>  <rup>  (35) 
0.0

>  <ldn>  (35) 
0.0

>  <lup>  (35) 
0.0

>  <mut>  (35) 
3.0

>  <maj>  (35) 
3.0

>  <min>  (35) 
0.0

>  <hyb>  (35) 
0.0

>  <sub>  (35) 
1.0

>  <query_index>  (35) 
375.0

>  <max_hit_Tanimoto>  (35) 
0.355336

>  <largest_ring>  (35) 
6

>  <N_interactions_kept>  (35) 
1.5

>  <N_interactions_lost>  (35) 
1.0

>  <interaction_uniqueness_metric>  (35) 
0.268774

>  <ad_hoc_penalty>  (35) 
-35.912072

>  <N_rotatable_bonds>  (35) 
4

>  <N_HA>  (35) 
20

>  <cluster>  (35) 
6164

>  <N_interactions>  (35) 
7

>  <Enamine>  (35) 
0

>  <Mcule>  (35) 
1

>  <N_PAINS>  (35) 
0

>  <UFF_Gibbs>  (35) 
70.235547

>  <strain_per_HA>  (35) 
3.192525

>  <saltbridge:HIS:51>  (35) 
0

>  <pistack:HIS:51>  (35) 
1

>  <hydroph_interaction:HIS:51>  (35) 
0

>  <hbond:ALA:132>  (35) 
0

>  <hbond:SER:135>  (35) 
1

>  <hydroph_interaction:TYR:150>  (35) 
1

>  <pistack:TYR:161>  (35) 
1

>  <hydroph_interaction:TYR:161>  (35) 
0

>  <hydroph_interaction:ASP:83>  (35) 
1

>  <hbond:TYR:130>  (35) 
0

>  <hydroph_interaction:ALA:132>  (35) 
0

>  <hbond:HIS:51>  (35) 
0

>  <hbond:ASP:129>  (35) 
0

>  <hbond:TYR:150>  (35) 
0

>  <hbond:GLY:151>  (35) 
1

>  <hbond:TYR:161>  (35) 
1

>  <hydroph_interaction:TYR:130>  (35) 
0

>  <hydroph_interaction:PRO:131>  (35) 
0

>  <hydroph_interaction:ASP:129>  (35) 
0

>  <saltbridge:ASP:75>  (35) 
0

>  <saltbridge:ASP:83>  (35) 
0

>  <hydroph_interaction:ASN:152>  (35) 
0

>  <halogenbond:TYR:150>  (35) 
0

>  <hbond:ASP:83>  (35) 
0

>  <hydroph_interaction:VAL:155>  (35) 
0

>  <pication:TYR:161>  (35) 
0

>  <hbond:PRO:131>  (35) 
0

>  <hbond:LEU:128>  (35) 
0

>  <saltbridge:ASP:129>  (35) 
0

>  <hbond:THR:134>  (35) 
0

>  <pication:HIS:51>  (35) 
0

>  <hbond:SER:81>  (35) 
0

>  <hbond:GLY:159>  (35) 
0

>  <hydroph_interaction:PRO:101>  (35) 
0

>  <hydroph_interaction:THR:134>  (35) 
0

>  <hbond:GLY:82>  (35) 
0

>  <hydroph_interaction:GLU:104>  (35) 
0

>  <hydroph_interaction:VAL:36>  (35) 
0

>  <hydroph_interaction:MET:49>  (35) 
0

>  <halogenbond:GLU:104>  (35) 
0

>  <hydroph_interaction:LYS:107>  (35) 
0

$$$$
CSSS00000168872
     RDKit          3D

 20 21  0  0  0  0  0  0  0  0999 V2000
   -9.8560    4.9511  -15.3253 N   0  0  0  0  0  0  0  0  0  0  0  0
   -9.3058    4.8214  -16.6330 C   0  0  0  0  0  0  0  0  0  0  0  0
   -8.0293    5.1355  -16.9329 N   0  0  0  0  0  0  0  0  0  0  0  0
   -7.7488    4.9232  -18.2499 C   0  0  0  0  0  0  0  0  0  0  0  0
   -8.8263    4.4281  -18.9951 C   0  0  0  0  0  0  0  0  0  0  0  0
  -10.1505    4.2627  -17.9692 S   0  0  0  0  0  0  0  0  0  0  0  0
   -6.3970    5.1950  -18.8063 C   0  0  0  0  0  0  0  0  0  0  0  0
   -5.3145    5.4250  -17.9346 C   0  0  0  0  0  0  0  0  0  0  0  0
   -4.0366    5.6836  -18.4395 C   0  0  0  0  0  0  0  0  0  0  0  0
   -3.8219    5.7203  -19.8181 C   0  0  0  0  0  0  0  0  0  0  0  0
   -4.8854    5.5008  -20.6950 C   0  0  0  0  0  0  0  0  0  0  0  0
   -6.1660    5.2410  -20.1967 C   0  0  0  0  0  0  0  0  0  0  0  0
   -9.2673    5.3056  -14.5395 H   0  0  0  0  0  0  0  0  0  0  0  0
  -10.8510    4.6928  -15.1438 H   0  0  0  0  0  0  0  0  0  0  0  0
   -8.8279    4.1688  -20.0440 H   0  0  0  0  0  0  0  0  0  0  0  0
   -5.4519    5.3982  -16.8609 H   0  0  0  0  0  0  0  0  0  0  0  0
   -3.2116    5.8554  -17.7601 H   0  0  0  0  0  0  0  0  0  0  0  0
   -2.8320    5.9215  -20.2069 H   0  0  0  0  0  0  0  0  0  0  0  0
   -4.7187    5.5357  -21.7640 H   0  0  0  0  0  0  0  0  0  0  0  0
   -6.9683    5.0931  -20.9052 H   0  0  0  0  0  0  0  0  0  0  0  0
  1  2  1  0
  2  3  2  0
  3  4  1  0
  4  5  2  0
  5  6  1  0
  4  7  1  0
  7  8  2  0
  8  9  1  0
  9 10  2  0
 10 11  1  0
 11 12  2  0
  6  2  1  0
 12  7  1  0
  1 13  1  0
  1 14  1  0
  5 15  1  0
  8 16  1  0
  9 17  1  0
 10 18  1  0
 11 19  1  0
 12 20  1  0
A    1
 N1 
A    2
 C1 
A    3
 N2 
A    4
 C2 
A    5
 C3 
A    6
 S1 
A    7
 C4 
A    8
 C5 
A    9
 C6 
A   10
 C7 
A   11
 C8 
A   12
 C9 
A   13
 H1 
A   14
 H2 
A   15
 H3 
A   16
 H4 
A   17
 H5 
A   18
 H6 
A   19
 H7 
A   20
 H8 
M  END
>  <ref_pdb>  (36) 
x0051_0B

>  <ref_mols>  (36) 
x0680_0B,x0386_0B

>  <original SMILES>  (36) 
[H]c1sc(N([H])[H])nc1-c1c([H])c([H])c([H])c([H])c1[H]

>  <index>  (36) 
72

>  <∆∆G>  (36) 
-6.364117

>  <∆G_bound>  (36) 
-6.288444

>  <∆G_unbound>  (36) 
0.075673

>  <comRMSD>  (36) 
0.608531

>  <N_constrained_atoms>  (36) 
12.0

>  <N_unconstrained_atoms>  (36) 
1.0

>  <runtime>  (36) 
27.421412

>  <LE>  (36) 
0.489547

>  <percent_hybrid>  (36) 
17.0

>  <dist>  (36) 
4.0

>  <ecfp4>  (36) 
0.137255

>  <daylight>  (36) 
0.178808

>  <topodist>  (36) 
2.0

>  <mces>  (36) 
12.0

>  <tdn>  (36) 
1.0

>  <tup>  (36) 
1.0

>  <rdn>  (36) 
0.0

>  <rup>  (36) 
0.0

>  <ldn>  (36) 
0.0

>  <lup>  (36) 
0.0

>  <mut>  (36) 
2.0

>  <maj>  (36) 
1.0

>  <min>  (36) 
1.0

>  <hyb>  (36) 
0.0

>  <sub>  (36) 
2.0

>  <query_index>  (36) 
296.0

>  <max_hit_Tanimoto>  (36) 
0.097649

>  <largest_ring>  (36) 
6

>  <N_interactions_kept>  (36) 
3.5

>  <N_interactions_lost>  (36) 
0.5

>  <interaction_uniqueness_metric>  (36) 
0.083994

>  <ad_hoc_penalty>  (36) 
-34.848275

>  <N_rotatable_bonds>  (36) 
2

>  <N_HA>  (36) 
12

>  <cluster>  (36) 
6152

>  <N_interactions>  (36) 
5

>  <Enamine>  (36) 
1

>  <Mcule>  (36) 
0

>  <N_PAINS>  (36) 
0

>  <UFF_Gibbs>  (36) 
24.98092

>  <strain_per_HA>  (36) 
1.921609

>  <saltbridge:HIS:51>  (36) 
0

>  <pistack:HIS:51>  (36) 
0

>  <hydroph_interaction:HIS:51>  (36) 
0

>  <hbond:ALA:132>  (36) 
0

>  <hbond:SER:135>  (36) 
2

>  <hydroph_interaction:TYR:150>  (36) 
0

>  <pistack:TYR:161>  (36) 
0

>  <hydroph_interaction:TYR:161>  (36) 
3

>  <hydroph_interaction:ASP:83>  (36) 
0

>  <hbond:TYR:130>  (36) 
0

>  <hydroph_interaction:ALA:132>  (36) 
0

>  <hbond:HIS:51>  (36) 
0

>  <hbond:ASP:129>  (36) 
0

>  <hbond:TYR:150>  (36) 
0

>  <hbond:GLY:151>  (36) 
0

>  <hbond:TYR:161>  (36) 
0

>  <hydroph_interaction:TYR:130>  (36) 
0

>  <hydroph_interaction:PRO:131>  (36) 
0

>  <hydroph_interaction:ASP:129>  (36) 
0

>  <saltbridge:ASP:75>  (36) 
0

>  <saltbridge:ASP:83>  (36) 
0

>  <hydroph_interaction:ASN:152>  (36) 
0

>  <halogenbond:TYR:150>  (36) 
0

>  <hbond:ASP:83>  (36) 
0

>  <hydroph_interaction:VAL:155>  (36) 
0

>  <pication:TYR:161>  (36) 
0

>  <hbond:PRO:131>  (36) 
0

>  <hbond:LEU:128>  (36) 
0

>  <saltbridge:ASP:129>  (36) 
0

>  <hbond:THR:134>  (36) 
0

>  <pication:HIS:51>  (36) 
0

>  <hbond:SER:81>  (36) 
0

>  <hbond:GLY:159>  (36) 
0

>  <hydroph_interaction:PRO:101>  (36) 
0

>  <hydroph_interaction:THR:134>  (36) 
0

>  <hbond:GLY:82>  (36) 
0

>  <hydroph_interaction:GLU:104>  (36) 
0

>  <hydroph_interaction:VAL:36>  (36) 
0

>  <hydroph_interaction:MET:49>  (36) 
0

>  <halogenbond:GLU:104>  (36) 
0

>  <hydroph_interaction:LYS:107>  (36) 
0

$$$$
Z2853453318
     RDKit          3D

 46 49  0  0  0  0  0  0  0  0999 V2000
   -9.0436    4.6275  -19.1938 C   0  0  0  0  0  0  0  0  0  0  0  0
   -9.7761    4.2204  -18.0811 C   0  0  0  0  0  0  0  0  0  0  0  0
   -9.2630    4.3811  -16.8339 N   0  0  0  0  0  0  0  0  0  0  0  0
   -8.0422    4.9471  -16.6093 C   0  0  0  0  0  0  0  0  0  0  0  0
   -7.2515    5.3308  -17.7200 C   0  0  0  0  0  0  0  0  0  0  0  0
   -7.7797    5.1860  -19.0108 C   0  0  0  0  0  0  0  0  0  0  0  0
   -5.8932    5.9574  -17.5490 C   0  0  0  0  0  0  0  0  0  0  0  0
   -5.2661    5.5800  -16.2103 C   0  0  0  0  0  0  0  0  0  0  0  0
   -6.2384    5.8833  -15.0726 C   0  0  0  0  0  0  0  0  0  0  0  0
   -7.5239    5.0283  -15.1761 C   0  0  0  0  0  0  0  0  0  0  0  0
   -8.5710    5.5745  -14.2829 N   0  0  0  0  0  0  0  0  0  0  0  0
   -8.2609    5.3456  -12.8625 C   0  0  0  0  0  0  0  0  0  0  0  0
   -9.4098    5.8464  -11.9822 C   0  0  0  0  0  0  0  0  0  0  0  0
   -9.0883    5.6483  -10.5317 C   0  0  0  0  0  0  0  0  0  0  0  0
   -9.2917    4.5218   -9.7617 C   0  0  0  0  0  0  0  0  0  0  0  0
  -10.0095    3.2595  -10.1382 C   0  0  0  0  0  0  0  0  0  0  0  0
   -9.7016    2.1466   -9.1239 C   0  0  0  0  0  0  0  0  0  0  0  0
   -9.7998    2.6621   -7.6784 C   0  0  0  0  0  0  0  0  0  0  0  0
   -8.7898    3.7948   -7.4305 C   0  0  0  0  0  0  0  0  0  0  0  0
   -8.8209    4.7628   -8.5253 N   0  0  0  0  0  0  0  0  0  0  0  0
   -8.2758    5.9683   -8.4764 N   0  0  0  0  0  0  0  0  0  0  0  0
   -8.4296    6.5327   -9.6933 C   0  0  0  0  0  0  0  0  0  0  0  0
   -9.4499    4.5072  -20.1897 H   0  0  0  0  0  0  0  0  0  0  0  0
  -10.7539    3.7747  -18.2076 H   0  0  0  0  0  0  0  0  0  0  0  0
   -7.2090    5.5008  -19.8761 H   0  0  0  0  0  0  0  0  0  0  0  0
   -5.2139    5.6261  -18.3649 H   0  0  0  0  0  0  0  0  0  0  0  0
   -5.9972    7.0624  -17.6136 H   0  0  0  0  0  0  0  0  0  0  0  0
   -4.3320    6.1646  -16.0656 H   0  0  0  0  0  0  0  0  0  0  0  0
   -5.0029    4.4991  -16.2055 H   0  0  0  0  0  0  0  0  0  0  0  0
   -5.7166    5.6666  -14.1167 H   0  0  0  0  0  0  0  0  0  0  0  0
   -6.4988    6.9651  -15.0859 H   0  0  0  0  0  0  0  0  0  0  0  0
   -7.2739    3.9855  -14.8737 H   0  0  0  0  0  0  0  0  0  0  0  0
   -9.4685    5.0689  -14.4704 H   0  0  0  0  0  0  0  0  0  0  0  0
   -8.0962    4.2608  -12.6717 H   0  0  0  0  0  0  0  0  0  0  0  0
   -7.3453    5.9054  -12.5766 H   0  0  0  0  0  0  0  0  0  0  0  0
  -10.3451    5.2992  -12.2293 H   0  0  0  0  0  0  0  0  0  0  0  0
   -9.5829    6.9272  -12.1759 H   0  0  0  0  0  0  0  0  0  0  0  0
  -11.1020    3.4609  -10.1480 H   0  0  0  0  0  0  0  0  0  0  0  0
   -9.6998    2.9323  -11.1536 H   0  0  0  0  0  0  0  0  0  0  0  0
  -10.4193    1.3105   -9.2683 H   0  0  0  0  0  0  0  0  0  0  0  0
   -8.6775    1.7523   -9.3056 H   0  0  0  0  0  0  0  0  0  0  0  0
   -9.6002    1.8284   -6.9714 H   0  0  0  0  0  0  0  0  0  0  0  0
  -10.8302    3.0358   -7.4894 H   0  0  0  0  0  0  0  0  0  0  0  0
   -7.7663    3.3680   -7.3557 H   0  0  0  0  0  0  0  0  0  0  0  0
   -9.0304    4.3040   -6.4725 H   0  0  0  0  0  0  0  0  0  0  0  0
   -8.0758    7.5210   -9.9556 H   0  0  0  0  0  0  0  0  0  0  0  0
  1  2  2  0
  2  3  1  0
  3  4  2  0
  4  5  1  0
  5  6  2  0
  5  7  1  0
  7  8  1  0
  8  9  1  0
  9 10  1  0
 10 11  1  0
 11 12  1  0
 12 13  1  0
 13 14  1  0
 14 15  2  0
 15 16  1  0
 16 17  1  0
 17 18  1  0
 18 19  1  0
 19 20  1  0
 20 21  1  0
 21 22  2  0
  6  1  1  0
 10  4  1  0
 22 14  1  0
 20 15  1  0
  1 23  1  0
  2 24  1  0
  6 25  1  0
  7 26  1  0
  7 27  1  0
  8 28  1  0
  8 29  1  0
  9 30  1  0
  9 31  1  0
 10 32  1  0
 11 33  1  0
 12 34  1  0
 12 35  1  0
 13 36  1  0
 13 37  1  0
 16 38  1  0
 16 39  1  0
 17 40  1  0
 17 41  1  0
 18 42  1  0
 18 43  1  0
 19 44  1  0
 19 45  1  0
 22 46  1  0
A    1
 C1 
A    2
 C2 
A    3
 N1 
A    4
 C3 
A    5
 C4 
A    6
 C5 
A    7
 C6 
A    8
 C7 
A    9
 C8 
A   10
 C9 
A   11
 N2 
A   12
 C10
A   13
 C11
A   14
 C12
A   15
 C13
A   16
 C14
A   17
 C15
A   18
 C16
A   19
 C17
A   20
 N3 
A   21
 N4 
A   22
 C18
A   23
 H1 
A   24
 H2 
A   25
 H3 
A   26
 H4 
A   27
 H5 
A   28
 H6 
A   29
 H7 
A   30
 H8 
A   31
 H9 
A   32
 H10
A   33
 H11
A   34
 H12
A   35
 H13
A   36
 H14
A   37
 H15
A   38
 H16
A   39
 H17
A   40
 H18
A   41
 H19
A   42
 H20
A   43
 H21
A   44
 H22
A   45
 H23
A   46
 H24
M  END
>  <ref_pdb>  (37) 
x0051_0B

>  <ref_mols>  (37) 
x0969_1B,x0455_0B

>  <original SMILES>  (37) 
[H]c1nc2c(c([H])c1[H])C([H])([H])C([H])([H])C([H])([H])C2([H])N([H])C([H])([H])C([H])([H])c1c([H])nn2c1C([H])([H])C([H])([H])C([H])([H])C2([H])[H]

>  <index>  (37) 
36

>  <∆∆G>  (37) 
-6.687224

>  <∆G_bound>  (37) 
-6.069476

>  <∆G_unbound>  (37) 
0.617748

>  <comRMSD>  (37) 
0.37756

>  <N_constrained_atoms>  (37) 
20.0

>  <N_unconstrained_atoms>  (37) 
2.0

>  <runtime>  (37) 
55.931594

>  <LE>  (37) 
0.303965

>  <percent_hybrid>  (37) 
50.0

>  <dist>  (37) 
4.0

>  <ecfp4>  (37) 
0.381579

>  <daylight>  (37) 
0.340845

>  <topodist>  (37) 
0.0

>  <mces>  (37) 
25.0

>  <tdn>  (37) 
0.0

>  <tup>  (37) 
0.0

>  <rdn>  (37) 
0.0

>  <rup>  (37) 
0.0

>  <ldn>  (37) 
0.0

>  <lup>  (37) 
0.0

>  <mut>  (37) 
4.0

>  <maj>  (37) 
4.0

>  <min>  (37) 
0.0

>  <hyb>  (37) 
0.0

>  <sub>  (37) 
0.0

>  <query_index>  (37) 
204.0

>  <max_hit_Tanimoto>  (37) 
0.333333

>  <largest_ring>  (37) 
6

>  <N_interactions_kept>  (37) 
1.5

>  <N_interactions_lost>  (37) 
1.0

>  <interaction_uniqueness_metric>  (37) 
0.221084

>  <ad_hoc_penalty>  (37) 
-34.842781

>  <N_rotatable_bonds>  (37) 
4

>  <N_HA>  (37) 
22

>  <cluster>  (37) 
6183

>  <N_interactions>  (37) 
7

>  <Enamine>  (37) 
1

>  <Mcule>  (37) 
0

>  <N_PAINS>  (37) 
0

>  <UFF_Gibbs>  (37) 
131.425993

>  <strain_per_HA>  (37) 
5.973909

>  <saltbridge:HIS:51>  (37) 
0

>  <pistack:HIS:51>  (37) 
1

>  <hydroph_interaction:HIS:51>  (37) 
0

>  <hbond:ALA:132>  (37) 
0

>  <hbond:SER:135>  (37) 
0

>  <hydroph_interaction:TYR:150>  (37) 
1

>  <pistack:TYR:161>  (37) 
0

>  <hydroph_interaction:TYR:161>  (37) 
2

>  <hydroph_interaction:ASP:83>  (37) 
1

>  <hbond:TYR:130>  (37) 
0

>  <hydroph_interaction:ALA:132>  (37) 
0

>  <hbond:HIS:51>  (37) 
0

>  <hbond:ASP:129>  (37) 
0

>  <hbond:TYR:150>  (37) 
0

>  <hbond:GLY:151>  (37) 
1

>  <hbond:TYR:161>  (37) 
1

>  <hydroph_interaction:TYR:130>  (37) 
0

>  <hydroph_interaction:PRO:131>  (37) 
0

>  <hydroph_interaction:ASP:129>  (37) 
0

>  <saltbridge:ASP:75>  (37) 
0

>  <saltbridge:ASP:83>  (37) 
0

>  <hydroph_interaction:ASN:152>  (37) 
0

>  <halogenbond:TYR:150>  (37) 
0

>  <hbond:ASP:83>  (37) 
0

>  <hydroph_interaction:VAL:155>  (37) 
0

>  <pication:TYR:161>  (37) 
0

>  <hbond:PRO:131>  (37) 
0

>  <hbond:LEU:128>  (37) 
0

>  <saltbridge:ASP:129>  (37) 
0

>  <hbond:THR:134>  (37) 
0

>  <pication:HIS:51>  (37) 
0

>  <hbond:SER:81>  (37) 
0

>  <hbond:GLY:159>  (37) 
0

>  <hydroph_interaction:PRO:101>  (37) 
0

>  <hydroph_interaction:THR:134>  (37) 
0

>  <hbond:GLY:82>  (37) 
0

>  <hydroph_interaction:GLU:104>  (37) 
0

>  <hydroph_interaction:VAL:36>  (37) 
0

>  <hydroph_interaction:MET:49>  (37) 
0

>  <halogenbond:GLU:104>  (37) 
0

>  <hydroph_interaction:LYS:107>  (37) 
0

$$$$
Z5034716328
     RDKit          3D

 43 46  0  0  0  0  0  0  0  0999 V2000
   -6.8023    6.2200  -13.4661 O   0  0  0  0  0  0  0  0  0  0  0  0
   -7.6315    5.3298  -13.7958 C   0  0  0  0  0  0  0  0  0  0  0  0
   -8.3405    4.5959  -12.7838 N   0  0  0  0  0  0  0  0  0  0  0  0
   -8.4806    5.0441  -11.4270 C   0  0  0  0  0  0  0  0  0  0  0  0
   -8.9159    4.2934  -10.3572 C   0  0  0  0  0  0  0  0  0  0  0  0
   -9.3529    2.8588  -10.3449 C   0  0  0  0  0  0  0  0  0  0  0  0
   -9.4439    2.3403   -8.9007 C   0  0  0  0  0  0  0  0  0  0  0  0
  -10.1566    3.3499   -7.9849 C   0  0  0  0  0  0  0  0  0  0  0  0
   -9.3944    4.6849   -7.9424 C   0  0  0  0  0  0  0  0  0  0  0  0
   -9.0177    5.1062   -9.2904 N   0  0  0  0  0  0  0  0  0  0  0  0
   -8.6425    6.3340   -9.6168 N   0  0  0  0  0  0  0  0  0  0  0  0
   -8.3176    6.3281  -10.9280 C   0  0  0  0  0  0  0  0  0  0  0  0
   -7.8223    5.0323  -15.2282 C   0  0  0  0  0  0  0  0  0  0  0  0
   -8.8222    4.1962  -15.7288 C   0  0  0  0  0  0  0  0  0  0  0  0
   -8.6791    4.1649  -17.4037 S   0  0  0  0  0  0  0  0  0  0  0  0
   -7.3624    5.2081  -17.4258 C   0  0  0  0  0  0  0  0  0  0  0  0
   -6.6577    5.6737  -18.6678 C   0  0  0  0  0  0  0  0  0  0  0  0
   -6.7891    7.1948  -18.8319 C   0  0  0  0  0  0  0  0  0  0  0  0
   -5.9347    7.6652  -20.0162 C   0  0  0  0  0  0  0  0  0  0  0  0
   -4.5774    7.3033  -19.8356 O   0  0  0  0  0  0  0  0  0  0  0  0
   -4.4467    5.8931  -19.8382 C   0  0  0  0  0  0  0  0  0  0  0  0
   -5.1753    5.2735  -18.6387 C   0  0  0  0  0  0  0  0  0  0  0  0
   -7.0214    5.5930  -16.1760 N   0  0  0  0  0  0  0  0  0  0  0  0
   -8.7350    3.6606  -13.0259 H   0  0  0  0  0  0  0  0  0  0  0  0
   -8.6316    2.2373  -10.9174 H   0  0  0  0  0  0  0  0  0  0  0  0
  -10.3501    2.7854  -10.8295 H   0  0  0  0  0  0  0  0  0  0  0  0
   -8.4200    2.1491   -8.5103 H   0  0  0  0  0  0  0  0  0  0  0  0
   -9.9977    1.3770   -8.8913 H   0  0  0  0  0  0  0  0  0  0  0  0
  -11.1886    3.5242   -8.3610 H   0  0  0  0  0  0  0  0  0  0  0  0
  -10.2296    2.9337   -6.9572 H   0  0  0  0  0  0  0  0  0  0  0  0
   -8.4738    4.5664   -7.3313 H   0  0  0  0  0  0  0  0  0  0  0  0
  -10.0332    5.4621   -7.4706 H   0  0  0  0  0  0  0  0  0  0  0  0
   -8.0161    7.2089  -11.4770 H   0  0  0  0  0  0  0  0  0  0  0  0
   -9.5757    3.6708  -15.1590 H   0  0  0  0  0  0  0  0  0  0  0  0
   -7.1338    5.1848  -19.5478 H   0  0  0  0  0  0  0  0  0  0  0  0
   -7.8525    7.4657  -19.0107 H   0  0  0  0  0  0  0  0  0  0  0  0
   -6.4432    7.7141  -17.9105 H   0  0  0  0  0  0  0  0  0  0  0  0
   -6.3342    7.2622  -20.9750 H   0  0  0  0  0  0  0  0  0  0  0  0
   -5.9971    8.7719  -20.0790 H   0  0  0  0  0  0  0  0  0  0  0  0
   -3.3679    5.6409  -19.7648 H   0  0  0  0  0  0  0  0  0  0  0  0
   -4.8183    5.4565  -20.7936 H   0  0  0  0  0  0  0  0  0  0  0  0
   -5.0814    4.1664  -18.6786 H   0  0  0  0  0  0  0  0  0  0  0  0
   -4.6956    5.6343  -17.7018 H   0  0  0  0  0  0  0  0  0  0  0  0
  1  2  2  0
  2  3  1  0
  3  4  1  0
  4  5  2  0
  5  6  1  0
  6  7  1  0
  7  8  1  0
  8  9  1  0
  9 10  1  0
 10 11  1  0
 11 12  2  0
  2 13  1  0
 13 14  2  0
 14 15  1  0
 15 16  1  0
 16 17  1  0
 17 18  1  0
 18 19  1  0
 19 20  1  0
 20 21  1  0
 21 22  1  0
 16 23  2  0
 12  4  1  0
 10  5  1  0
 23 13  1  0
 22 17  1  0
  3 24  1  0
  6 25  1  0
  6 26  1  0
  7 27  1  0
  7 28  1  0
  8 29  1  0
  8 30  1  0
  9 31  1  0
  9 32  1  0
 12 33  1  0
 14 34  1  0
 17 35  1  0
 18 36  1  0
 18 37  1  0
 19 38  1  0
 19 39  1  0
 21 40  1  0
 21 41  1  0
 22 42  1  0
 22 43  1  0
A    1
 O1 
A    2
 C1 
A    3
 N1 
A    4
 C2 
A    5
 C3 
A    6
 C4 
A    7
 C5 
A    8
 C6 
A    9
 C7 
A   10
 N2 
A   11
 N3 
A   12
 C8 
A   13
 C9 
A   14
 C10
A   15
 S1 
A   16
 C11
A   17
 C12
A   18
 C13
A   19
 C14
A   20
 O2 
A   21
 C15
A   22
 C16
A   23
 N4 
A   24
 H1 
A   25
 H2 
A   26
 H3 
A   27
 H4 
A   28
 H5 
A   29
 H6 
A   30
 H7 
A   31
 H8 
A   32
 H9 
A   33
 H10
A   34
 H11
A   35
 H12
A   36
 H13
A   37
 H14
A   38
 H15
A   39
 H16
A   40
 H17
A   41
 H18
A   42
 H19
A   43
 H20
M  END
>  <ref_pdb>  (38) 
x0051_0B

>  <ref_mols>  (38) 
x0917_1B,x0969_1B

>  <original SMILES>  (38) 
[H]c1nn2c(c1N([H])C(=O)c1nc(C3([H])C([H])([H])C([H])([H])OC([H])([H])C3([H])[H])sc1[H])C([H])([H])C([H])([H])C([H])([H])C2([H])[H]

>  <index>  (38) 
54

>  <∆∆G>  (38) 
-6.360143

>  <∆G_bound>  (38) 
-5.483679

>  <∆G_unbound>  (38) 
0.876464

>  <comRMSD>  (38) 
0.786543

>  <N_constrained_atoms>  (38) 
25.0

>  <N_unconstrained_atoms>  (38) 
0.0

>  <runtime>  (38) 
54.221114

>  <LE>  (38) 
0.254406

>  <percent_hybrid>  (38) 
38.0

>  <dist>  (38) 
9.0

>  <ecfp4>  (38) 
0.229885

>  <daylight>  (38) 
0.286432

>  <topodist>  (38) 
2.0

>  <mces>  (38) 
26.0

>  <tdn>  (38) 
2.0

>  <tup>  (38) 
0.0

>  <rdn>  (38) 
0.0

>  <rup>  (38) 
0.0

>  <ldn>  (38) 
0.0

>  <lup>  (38) 
0.0

>  <mut>  (38) 
6.0

>  <maj>  (38) 
6.0

>  <min>  (38) 
0.0

>  <hyb>  (38) 
1.0

>  <sub>  (38) 
0.0

>  <query_index>  (38) 
298.0

>  <max_hit_Tanimoto>  (38) 
0.268992

>  <largest_ring>  (38) 
6

>  <N_interactions_kept>  (38) 
2.0

>  <N_interactions_lost>  (38) 
1.0

>  <interaction_uniqueness_metric>  (38) 
0.138446

>  <ad_hoc_penalty>  (38) 
-34.460441

>  <N_rotatable_bonds>  (38) 
3

>  <N_HA>  (38) 
23

>  <cluster>  (38) 
6168

>  <N_interactions>  (38) 
6

>  <Enamine>  (38) 
1

>  <Mcule>  (38) 
0

>  <N_PAINS>  (38) 
0

>  <UFF_Gibbs>  (38) 
91.44739

>  <strain_per_HA>  (38) 
3.657896

>  <saltbridge:HIS:51>  (38) 
0

>  <pistack:HIS:51>  (38) 
1

>  <hydroph_interaction:HIS:51>  (38) 
1

>  <hbond:ALA:132>  (38) 
0

>  <hbond:SER:135>  (38) 
0

>  <hydroph_interaction:TYR:150>  (38) 
0

>  <pistack:TYR:161>  (38) 
0

>  <hydroph_interaction:TYR:161>  (38) 
2

>  <hydroph_interaction:ASP:83>  (38) 
0

>  <hbond:TYR:130>  (38) 
0

>  <hydroph_interaction:ALA:132>  (38) 
1

>  <hbond:HIS:51>  (38) 
0

>  <hbond:ASP:129>  (38) 
0

>  <hbond:TYR:150>  (38) 
0

>  <hbond:GLY:151>  (38) 
1

>  <hbond:TYR:161>  (38) 
0

>  <hydroph_interaction:TYR:130>  (38) 
0

>  <hydroph_interaction:PRO:131>  (38) 
0

>  <hydroph_interaction:ASP:129>  (38) 
0

>  <saltbridge:ASP:75>  (38) 
0

>  <saltbridge:ASP:83>  (38) 
0

>  <hydroph_interaction:ASN:152>  (38) 
0

>  <halogenbond:TYR:150>  (38) 
0

>  <hbond:ASP:83>  (38) 
0

>  <hydroph_interaction:VAL:155>  (38) 
0

>  <pication:TYR:161>  (38) 
0

>  <hbond:PRO:131>  (38) 
0

>  <hbond:LEU:128>  (38) 
0

>  <saltbridge:ASP:129>  (38) 
0

>  <hbond:THR:134>  (38) 
0

>  <pication:HIS:51>  (38) 
0

>  <hbond:SER:81>  (38) 
0

>  <hbond:GLY:159>  (38) 
0

>  <hydroph_interaction:PRO:101>  (38) 
0

>  <hydroph_interaction:THR:134>  (38) 
0

>  <hbond:GLY:82>  (38) 
0

>  <hydroph_interaction:GLU:104>  (38) 
0

>  <hydroph_interaction:VAL:36>  (38) 
0

>  <hydroph_interaction:MET:49>  (38) 
0

>  <halogenbond:GLU:104>  (38) 
0

>  <hydroph_interaction:LYS:107>  (38) 
0

$$$$
Z2874569125
     RDKit          3D

 45 48  0  0  0  0  0  0  0  0999 V2000
   -8.5272    4.2577  -18.1703 C   0  0  0  0  0  0  0  0  0  0  0  0
   -7.9207    4.9568  -16.9880 C   0  0  0  0  0  0  0  0  0  0  0  0
   -8.3487    4.7719  -15.6887 C   0  0  0  0  0  0  0  0  0  0  0  0
   -7.5271    5.5903  -14.9353 C   0  0  0  0  0  0  0  0  0  0  0  0
   -7.5608    5.7735  -13.4748 C   0  0  0  0  0  0  0  0  0  0  0  0
   -6.8118    6.6439  -12.9551 O   0  0  0  0  0  0  0  0  0  0  0  0
   -8.3993    4.9512  -12.6466 N   0  0  0  0  0  0  0  0  0  0  0  0
   -8.6835    5.2373  -11.2671 C   0  0  0  0  0  0  0  0  0  0  0  0
   -9.2204    4.3746  -10.3376 C   0  0  0  0  0  0  0  0  0  0  0  0
   -9.5555    3.0240  -10.4423 C   0  0  0  0  0  0  0  0  0  0  0  0
  -10.0950    2.4014   -9.3048 C   0  0  0  0  0  0  0  0  0  0  0  0
  -10.2851    3.1335   -8.1166 C   0  0  0  0  0  0  0  0  0  0  0  0
   -9.9291    4.4900   -8.0749 C   0  0  0  0  0  0  0  0  0  0  0  0
   -9.4070    5.0526   -9.1938 N   0  0  0  0  0  0  0  0  0  0  0  0
   -9.0335    6.3150   -9.3338 N   0  0  0  0  0  0  0  0  0  0  0  0
   -8.5856    6.4581  -10.6035 C   0  0  0  0  0  0  0  0  0  0  0  0
   -6.6583    6.2299  -15.7426 N   0  0  0  0  0  0  0  0  0  0  0  0
   -6.8933    5.8475  -16.9892 N   0  0  0  0  0  0  0  0  0  0  0  0
   -6.0901    6.3503  -18.1147 C   0  0  0  0  0  0  0  0  0  0  0  0
   -6.9602    7.1247  -19.1419 C   0  0  0  0  0  0  0  0  0  0  0  0
   -6.5071    6.9118  -20.5951 C   0  0  0  0  0  0  0  0  0  0  0  0
   -4.9774    6.9028  -20.6947 C   0  0  0  0  0  0  0  0  0  0  0  0
   -4.3431    5.7528  -19.8807 C   0  0  0  0  0  0  0  0  0  0  0  0
   -5.2389    5.2261  -18.7422 C   0  0  0  0  0  0  0  0  0  0  0  0
   -9.6177    4.4787  -18.2073 H   0  0  0  0  0  0  0  0  0  0  0  0
   -8.3823    3.1610  -18.0571 H   0  0  0  0  0  0  0  0  0  0  0  0
   -8.0811    4.5691  -19.1367 H   0  0  0  0  0  0  0  0  0  0  0  0
   -9.1539    4.1328  -15.3506 H   0  0  0  0  0  0  0  0  0  0  0  0
   -8.7879    4.0704  -13.0485 H   0  0  0  0  0  0  0  0  0  0  0  0
   -9.4038    2.4683  -11.3587 H   0  0  0  0  0  0  0  0  0  0  0  0
  -10.3671    1.3544   -9.3425 H   0  0  0  0  0  0  0  0  0  0  0  0
  -10.7059    2.6545   -7.2427 H   0  0  0  0  0  0  0  0  0  0  0  0
  -10.0695    5.0733   -7.1735 H   0  0  0  0  0  0  0  0  0  0  0  0
   -8.2508    7.3994  -11.0190 H   0  0  0  0  0  0  0  0  0  0  0  0
   -5.3567    7.0857  -17.7064 H   0  0  0  0  0  0  0  0  0  0  0  0
   -8.0336    6.8566  -19.0598 H   0  0  0  0  0  0  0  0  0  0  0  0
   -6.9013    8.2108  -18.9061 H   0  0  0  0  0  0  0  0  0  0  0  0
   -6.9174    7.7262  -21.2335 H   0  0  0  0  0  0  0  0  0  0  0  0
   -6.9085    5.9469  -20.9783 H   0  0  0  0  0  0  0  0  0  0  0  0
   -4.6791    6.8105  -21.7611 H   0  0  0  0  0  0  0  0  0  0  0  0
   -4.5887    7.8782  -20.3231 H   0  0  0  0  0  0  0  0  0  0  0  0
   -4.1056    4.9063  -20.5626 H   0  0  0  0  0  0  0  0  0  0  0  0
   -3.3789    6.1089  -19.4541 H   0  0  0  0  0  0  0  0  0  0  0  0
   -4.5954    4.7676  -17.9596 H   0  0  0  0  0  0  0  0  0  0  0  0
   -5.8833    4.4187  -19.1424 H   0  0  0  0  0  0  0  0  0  0  0  0
  1  2  1  0
  2  3  2  0
  3  4  1  0
  4  5  1  0
  5  6  2  0
  5  7  1  0
  7  8  1  0
  8  9  2  0
  9 10  1  0
 10 11  2  0
 11 12  1  0
 12 13  2  0
 13 14  1  0
 14 15  1  0
 15 16  2  0
  4 17  2  0
 17 18  1  0
 18 19  1  0
 19 20  1  0
 20 21  1  0
 21 22  1  0
 22 23  1  0
 23 24  1  0
 18  2  1  0
 16  8  1  0
 14  9  1  0
 24 19  1  0
  1 25  1  0
  1 26  1  0
  1 27  1  0
  3 28  1  0
  7 29  1  0
 10 30  1  0
 11 31  1  0
 12 32  1  0
 13 33  1  0
 16 34  1  0
 19 35  1  0
 20 36  1  0
 20 37  1  0
 21 38  1  0
 21 39  1  0
 22 40  1  0
 22 41  1  0
 23 42  1  0
 23 43  1  0
 24 44  1  0
 24 45  1  0
A    1
 C1 
A    2
 C2 
A    3
 C3 
A    4
 C4 
A    5
 C5 
A    6
 O1 
A    7
 N1 
A    8
 C6 
A    9
 C7 
A   10
 C8 
A   11
 C9 
A   12
 C10
A   13
 C11
A   14
 N2 
A   15
 N3 
A   16
 C12
A   17
 N4 
A   18
 N5 
A   19
 C13
A   20
 C14
A   21
 C15
A   22
 C16
A   23
 C17
A   24
 C18
A   25
 H1 
A   26
 H2 
A   27
 H3 
A   28
 H4 
A   29
 H5 
A   30
 H6 
A   31
 H7 
A   32
 H8 
A   33
 H9 
A   34
 H10
A   35
 H11
A   36
 H12
A   37
 H13
A   38
 H14
A   39
 H15
A   40
 H16
A   41
 H17
A   42
 H18
A   43
 H19
A   44
 H20
A   45
 H21
M  END
>  <ref_pdb>  (39) 
x0051_0B

>  <ref_mols>  (39) 
x0969_1B,x0917_0B

>  <original SMILES>  (39) 
[H]c1nn2c([H])c([H])c([H])c([H])c2c1N([H])C(=O)c1nn(C2([H])C([H])([H])C([H])([H])C([H])([H])C([H])([H])C2([H])[H])c(C([H])([H])[H])c1[H]

>  <index>  (39) 
42

>  <∆∆G>  (39) 
-6.184374

>  <∆G_bound>  (39) 
-5.840369

>  <∆G_unbound>  (39) 
0.344005

>  <comRMSD>  (39) 
0.644756

>  <N_constrained_atoms>  (39) 
25.0

>  <N_unconstrained_atoms>  (39) 
0.0

>  <runtime>  (39) 
67.401255

>  <LE>  (39) 
0.247375

>  <percent_hybrid>  (39) 
38.0

>  <dist>  (39) 
11.0

>  <ecfp4>  (39) 
0.138298

>  <daylight>  (39) 
0.260388

>  <topodist>  (39) 
1.0

>  <mces>  (39) 
27.0

>  <tdn>  (39) 
1.0

>  <tup>  (39) 
0.0

>  <rdn>  (39) 
0.0

>  <rup>  (39) 
0.0

>  <ldn>  (39) 
0.0

>  <lup>  (39) 
0.0

>  <mut>  (39) 
6.0

>  <maj>  (39) 
6.0

>  <min>  (39) 
0.0

>  <hyb>  (39) 
4.0

>  <sub>  (39) 
0.0

>  <query_index>  (39) 
70.0

>  <max_hit_Tanimoto>  (39) 
0.268566

>  <largest_ring>  (39) 
6

>  <N_interactions_kept>  (39) 
3.5

>  <N_interactions_lost>  (39) 
0.5

>  <interaction_uniqueness_metric>  (39) 
0.116623

>  <ad_hoc_penalty>  (39) 
-34.393271

>  <N_rotatable_bonds>  (39) 
4

>  <N_HA>  (39) 
24

>  <cluster>  (39) 
6177

>  <N_interactions>  (39) 
6

>  <Enamine>  (39) 
1

>  <Mcule>  (39) 
0

>  <N_PAINS>  (39) 
0

>  <UFF_Gibbs>  (39) 
119.021944

>  <strain_per_HA>  (39) 
4.760878

>  <saltbridge:HIS:51>  (39) 
0

>  <pistack:HIS:51>  (39) 
1

>  <hydroph_interaction:HIS:51>  (39) 
0

>  <hbond:ALA:132>  (39) 
0

>  <hbond:SER:135>  (39) 
0

>  <hydroph_interaction:TYR:150>  (39) 
1

>  <pistack:TYR:161>  (39) 
0

>  <hydroph_interaction:TYR:161>  (39) 
2

>  <hydroph_interaction:ASP:83>  (39) 
0

>  <hbond:TYR:130>  (39) 
0

>  <hydroph_interaction:ALA:132>  (39) 
1

>  <hbond:HIS:51>  (39) 
0

>  <hbond:ASP:129>  (39) 
0

>  <hbond:TYR:150>  (39) 
0

>  <hbond:GLY:151>  (39) 
1

>  <hbond:TYR:161>  (39) 
0

>  <hydroph_interaction:TYR:130>  (39) 
0

>  <hydroph_interaction:PRO:131>  (39) 
0

>  <hydroph_interaction:ASP:129>  (39) 
0

>  <saltbridge:ASP:75>  (39) 
0

>  <saltbridge:ASP:83>  (39) 
0

>  <hydroph_interaction:ASN:152>  (39) 
0

>  <halogenbond:TYR:150>  (39) 
0

>  <hbond:ASP:83>  (39) 
0

>  <hydroph_interaction:VAL:155>  (39) 
0

>  <pication:TYR:161>  (39) 
0

>  <hbond:PRO:131>  (39) 
0

>  <hbond:LEU:128>  (39) 
0

>  <saltbridge:ASP:129>  (39) 
0

>  <hbond:THR:134>  (39) 
0

>  <pication:HIS:51>  (39) 
0

>  <hbond:SER:81>  (39) 
0

>  <hbond:GLY:159>  (39) 
0

>  <hydroph_interaction:PRO:101>  (39) 
0

>  <hydroph_interaction:THR:134>  (39) 
0

>  <hbond:GLY:82>  (39) 
0

>  <hydroph_interaction:GLU:104>  (39) 
0

>  <hydroph_interaction:VAL:36>  (39) 
0

>  <hydroph_interaction:MET:49>  (39) 
0

>  <halogenbond:GLU:104>  (39) 
0

>  <hydroph_interaction:LYS:107>  (39) 
0

$$$$
FTCIAKRPGVEECU-UHFFFAOYSA-N
     RDKit          3D

 36 39  0  0  0  0  0  0  0  0999 V2000
   -8.8660    6.2234  -12.7497 C   0  0  0  0  0  0  0  0  0  0  0  0
   -8.0534    5.4365  -13.6307 N   0  0  0  0  0  0  0  0  0  0  0  0
   -8.3622    5.2328  -15.0202 C   0  0  0  0  0  0  0  0  0  0  0  0
   -7.3532    4.9704  -15.9565 C   0  0  0  0  0  0  0  0  0  0  0  0
   -7.6318    4.7437  -17.2743 C   0  0  0  0  0  0  0  0  0  0  0  0
   -6.4140    4.5417  -17.8839 C   0  0  0  0  0  0  0  0  0  0  0  0
   -5.4465    4.6521  -16.9424 N   0  0  0  0  0  0  0  0  0  0  0  0
   -6.0223    4.9133  -15.7736 N   0  0  0  0  0  0  0  0  0  0  0  0
   -8.9300    4.7487  -17.7728 C   0  0  0  0  0  0  0  0  0  0  0  0
   -9.9737    4.9943  -16.8631 C   0  0  0  0  0  0  0  0  0  0  0  0
   -9.6960    5.2300  -15.4971 C   0  0  0  0  0  0  0  0  0  0  0  0
   -9.5454    7.1812  -13.2080 O   0  0  0  0  0  0  0  0  0  0  0  0
   -8.8601    5.9833  -11.2971 C   0  0  0  0  0  0  0  0  0  0  0  0
   -8.6855    4.7774  -10.6349 C   0  0  0  0  0  0  0  0  0  0  0  0
   -8.8642    5.0046   -9.3237 N   0  0  0  0  0  0  0  0  0  0  0  0
   -8.7810    4.0064   -8.2595 C   0  0  0  0  0  0  0  0  0  0  0  0
   -9.0393    2.6020   -8.8258 C   0  0  0  0  0  0  0  0  0  0  0  0
   -8.2269    2.3745  -10.1110 C   0  0  0  0  0  0  0  0  0  0  0  0
   -8.6010    3.3878  -11.2061 C   0  0  0  0  0  0  0  0  0  0  0  0
   -9.0966    6.3237   -9.1991 C   0  0  0  0  0  0  0  0  0  0  0  0
   -9.1191    6.9545  -10.3930 N   0  0  0  0  0  0  0  0  0  0  0  0
   -7.1474    5.0768  -13.2582 H   0  0  0  0  0  0  0  0  0  0  0  0
   -6.2361    4.3336  -18.9305 H   0  0  0  0  0  0  0  0  0  0  0  0
   -5.4983    5.0547  -14.8824 H   0  0  0  0  0  0  0  0  0  0  0  0
   -9.1311    4.5665  -18.8206 H   0  0  0  0  0  0  0  0  0  0  0  0
  -10.9985    4.9955  -17.2108 H   0  0  0  0  0  0  0  0  0  0  0  0
  -10.5232    5.3867  -14.8176 H   0  0  0  0  0  0  0  0  0  0  0  0
   -9.5304    4.2302   -7.4697 H   0  0  0  0  0  0  0  0  0  0  0  0
   -7.7671    4.0444   -7.8060 H   0  0  0  0  0  0  0  0  0  0  0  0
  -10.1226    2.4855   -9.0488 H   0  0  0  0  0  0  0  0  0  0  0  0
   -8.7584    1.8403   -8.0672 H   0  0  0  0  0  0  0  0  0  0  0  0
   -7.1424    2.4635   -9.8795 H   0  0  0  0  0  0  0  0  0  0  0  0
   -8.4107    1.3449  -10.4865 H   0  0  0  0  0  0  0  0  0  0  0  0
   -9.5896    3.1194  -11.6363 H   0  0  0  0  0  0  0  0  0  0  0  0
   -7.8400    3.3336  -12.0083 H   0  0  0  0  0  0  0  0  0  0  0  0
   -9.2702    6.8219   -8.2541 H   0  0  0  0  0  0  0  0  0  0  0  0
  1  2  1  0
  2  3  1  0
  3  4  1  0
  4  5  2  0
  5  6  1  0
  6  7  2  0
  7  8  1  0
  5  9  1  0
  9 10  2  0
 10 11  1  0
  1 12  2  0
  1 13  1  0
 13 14  2  0
 14 15  1  0
 15 16  1  0
 16 17  1  0
 17 18  1  0
 18 19  1  0
 15 20  1  0
 20 21  2  0
  3 11  2  0
  8  4  1  0
 21 13  1  0
 19 14  1  0
  2 22  1  0
  6 23  1  0
  8 24  1  0
  9 25  1  0
 10 26  1  0
 11 27  1  0
 16 28  1  0
 16 29  1  0
 17 30  1  0
 17 31  1  0
 18 32  1  0
 18 33  1  0
 19 34  1  0
 19 35  1  0
 20 36  1  0
A    1
 C1 
A    2
 N1 
A    3
 C2 
A    4
 C3 
A    5
 C4 
A    6
 C5 
A    7
 N2 
A    8
 N3 
A    9
 C6 
A   10
 C7 
A   11
 C8 
A   12
 O1 
A   13
 C9 
A   14
 C10
A   15
 N4 
A   16
 C11
A   17
 C12
A   18
 C13
A   19
 C14
A   20
 C15
A   21
 N5 
A   22
 H1 
A   23
 H2 
A   24
 H3 
A   25
 H4 
A   26
 H5 
A   27
 H6 
A   28
 H7 
A   29
 H8 
A   30
 H9 
A   31
 H10
A   32
 H11
A   33
 H12
A   34
 H13
A   35
 H14
A   36
 H15
M  END
>  <ref_pdb>  (40) 
x0051_0B

>  <ref_mols>  (40) 
x0435_0B,x0969_1B

>  <original SMILES>  (40) 
[H]c1c([H])c(N([H])C(=O)c2nc([H])n3c2C([H])([H])C([H])([H])C([H])([H])C3([H])[H])c2c(c([H])nn2[H])c1[H]

>  <index>  (40) 
86

>  <∆∆G>  (40) 
-7.016892

>  <∆G_bound>  (40) 
-6.232666

>  <∆G_unbound>  (40) 
0.784226

>  <comRMSD>  (40) 
0.773809

>  <N_constrained_atoms>  (40) 
20.0

>  <N_unconstrained_atoms>  (40) 
2.0

>  <runtime>  (40) 
58.399125

>  <LE>  (40) 
0.31895

>  <percent_hybrid>  (40) 
50.0

>  <dist>  (40) 
10.0

>  <ecfp4>  (40) 
0.098901

>  <daylight>  (40) 
0.216802

>  <topodist>  (40) 
3.0

>  <mces>  (40) 
23.0

>  <tdn>  (40) 
1.0

>  <tup>  (40) 
1.0

>  <rdn>  (40) 
0.0

>  <rup>  (40) 
0.0

>  <ldn>  (40) 
1.0

>  <lup>  (40) 
0.0

>  <mut>  (40) 
5.0

>  <maj>  (40) 
5.0

>  <min>  (40) 
0.0

>  <hyb>  (40) 
2.0

>  <sub>  (40) 
1.0

>  <query_index>  (40) 
311.0

>  <max_hit_Tanimoto>  (40) 
0.213942

>  <largest_ring>  (40) 
6

>  <N_interactions_kept>  (40) 
2.5

>  <N_interactions_lost>  (40) 
1.0

>  <interaction_uniqueness_metric>  (40) 
0.177326

>  <ad_hoc_penalty>  (40) 
-34.319515

>  <N_rotatable_bonds>  (40) 
2

>  <N_HA>  (40) 
21

>  <cluster>  (40) 
6138

>  <N_interactions>  (40) 
5

>  <Enamine>  (40) 
0

>  <Mcule>  (40) 
1

>  <N_PAINS>  (40) 
0

>  <UFF_Gibbs>  (40) 
54.815762

>  <strain_per_HA>  (40) 
2.491626

>  <saltbridge:HIS:51>  (40) 
0

>  <pistack:HIS:51>  (40) 
1

>  <hydroph_interaction:HIS:51>  (40) 
0

>  <hbond:ALA:132>  (40) 
0

>  <hbond:SER:135>  (40) 
0

>  <hydroph_interaction:TYR:150>  (40) 
0

>  <pistack:TYR:161>  (40) 
1

>  <hydroph_interaction:TYR:161>  (40) 
1

>  <hydroph_interaction:ASP:83>  (40) 
1

>  <hbond:TYR:130>  (40) 
0

>  <hydroph_interaction:ALA:132>  (40) 
0

>  <hbond:HIS:51>  (40) 
0

>  <hbond:ASP:129>  (40) 
0

>  <hbond:TYR:150>  (40) 
0

>  <hbond:GLY:151>  (40) 
0

>  <hbond:TYR:161>  (40) 
1

>  <hydroph_interaction:TYR:130>  (40) 
0

>  <hydroph_interaction:PRO:131>  (40) 
0

>  <hydroph_interaction:ASP:129>  (40) 
0

>  <saltbridge:ASP:75>  (40) 
0

>  <saltbridge:ASP:83>  (40) 
0

>  <hydroph_interaction:ASN:152>  (40) 
0

>  <halogenbond:TYR:150>  (40) 
0

>  <hbond:ASP:83>  (40) 
0

>  <hydroph_interaction:VAL:155>  (40) 
0

>  <pication:TYR:161>  (40) 
0

>  <hbond:PRO:131>  (40) 
0

>  <hbond:LEU:128>  (40) 
0

>  <saltbridge:ASP:129>  (40) 
0

>  <hbond:THR:134>  (40) 
0

>  <pication:HIS:51>  (40) 
0

>  <hbond:SER:81>  (40) 
0

>  <hbond:GLY:159>  (40) 
0

>  <hydroph_interaction:PRO:101>  (40) 
0

>  <hydroph_interaction:THR:134>  (40) 
0

>  <hbond:GLY:82>  (40) 
0

>  <hydroph_interaction:GLU:104>  (40) 
0

>  <hydroph_interaction:VAL:36>  (40) 
0

>  <hydroph_interaction:MET:49>  (40) 
0

>  <halogenbond:GLU:104>  (40) 
0

>  <hydroph_interaction:LYS:107>  (40) 
0

$$$$
MCULE-5645852107
     RDKit          3D

 20 21  0  0  0  0  0  0  0  0999 V2000
   -8.6481    4.9758  -17.9382 C   0  0  0  0  0  0  0  0  0  0  0  0
  -10.0986    4.7557  -17.6236 C   0  0  0  0  0  0  0  0  0  0  0  0
   -7.7134    5.2268  -16.9255 C   0  0  0  0  0  0  0  0  0  0  0  0
   -7.9335    5.3081  -15.6007 N   0  0  0  0  0  0  0  0  0  0  0  0
   -6.7307    5.5646  -15.0380 C   0  0  0  0  0  0  0  0  0  0  0  0
   -5.7390    5.6472  -16.0089 C   0  0  0  0  0  0  0  0  0  0  0  0
   -6.3870    5.4288  -17.2048 C   0  0  0  0  0  0  0  0  0  0  0  0
   -5.8924    5.3967  -18.5055 C   0  0  0  0  0  0  0  0  0  0  0  0
   -6.8002    5.1474  -19.5506 C   0  0  0  0  0  0  0  0  0  0  0  0
   -6.3360    5.1090  -20.8632 O   0  0  0  0  0  0  0  0  0  0  0  0
   -8.1720    4.9379  -19.2677 C   0  0  0  0  0  0  0  0  0  0  0  0
  -10.5107    5.6526  -17.1152 H   0  0  0  0  0  0  0  0  0  0  0  0
  -10.2064    3.8754  -16.9556 H   0  0  0  0  0  0  0  0  0  0  0  0
  -10.6895    4.5717  -18.5459 H   0  0  0  0  0  0  0  0  0  0  0  0
   -8.8425    5.1975  -15.0990 H   0  0  0  0  0  0  0  0  0  0  0  0
   -6.5764    5.6866  -13.9741 H   0  0  0  0  0  0  0  0  0  0  0  0
   -4.6857    5.8413  -15.8558 H   0  0  0  0  0  0  0  0  0  0  0  0
   -4.8408    5.5587  -18.7061 H   0  0  0  0  0  0  0  0  0  0  0  0
   -6.9613    4.9321  -21.6407 H   0  0  0  0  0  0  0  0  0  0  0  0
   -8.8588    4.7471  -20.0830 H   0  0  0  0  0  0  0  0  0  0  0  0
  1  2  1  0
  1  3  2  0
  3  4  1  0
  4  5  1  0
  5  6  2  0
  6  7  1  0
  7  8  2  0
  8  9  1  0
  9 10  1  0
  9 11  2  0
  1 11  1  0
  3  7  1  0
  2 12  1  0
  2 13  1  0
  2 14  1  0
  4 15  1  0
  5 16  1  0
  6 17  1  0
  8 18  1  0
 10 19  1  0
 11 20  1  0
A    1
 C1 
A    2
 C2 
A    3
 C3 
A    4
 N1 
A    5
 C4 
A    6
 C5 
A    7
 C6 
A    8
 C7 
A    9
 C8 
A   10
 O1 
A   11
 C9 
A   12
 H1 
A   13
 H2 
A   14
 H3 
A   15
 H4 
A   16
 H5 
A   17
 H6 
A   18
 H7 
A   19
 H8 
A   20
 H9 
M  END
>  <ref_pdb>  (41) 
x0051_0B

>  <ref_mols>  (41) 
x0605_0B,x0382_0B

>  <original SMILES>  (41) 
[H]Oc1c([H])c(C([H])([H])[H])c2c(c1[H])c([H])c([H])n2[H]

>  <index>  (41) 
63

>  <∆∆G>  (41) 
-6.666145

>  <∆G_bound>  (41) 
-6.672055

>  <∆G_unbound>  (41) 
-0.00591

>  <comRMSD>  (41) 
0.940779

>  <N_constrained_atoms>  (41) 
11.0

>  <N_unconstrained_atoms>  (41) 
2.0

>  <runtime>  (41) 
24.279232

>  <LE>  (41) 
0.51278

>  <percent_hybrid>  (41) 
34.0

>  <dist>  (41) 
2.0

>  <ecfp4>  (41) 
0.275

>  <daylight>  (41) 
0.308824

>  <topodist>  (41) 
2.0

>  <mces>  (41) 
10.0

>  <tdn>  (41) 
0.0

>  <tup>  (41) 
1.0

>  <rdn>  (41) 
0.0

>  <rup>  (41) 
1.0

>  <ldn>  (41) 
0.0

>  <lup>  (41) 
0.0

>  <mut>  (41) 
0.0

>  <maj>  (41) 
0.0

>  <min>  (41) 
0.0

>  <hyb>  (41) 
0.0

>  <sub>  (41) 
2.0

>  <query_index>  (41) 
274.0

>  <max_hit_Tanimoto>  (41) 
0.162281

>  <largest_ring>  (41) 
6

>  <N_interactions_kept>  (41) 
1.0

>  <N_interactions_lost>  (41) 
1.0

>  <interaction_uniqueness_metric>  (41) 
0.099763

>  <ad_hoc_penalty>  (41) 
-34.259388

>  <N_rotatable_bonds>  (41) 
2

>  <N_HA>  (41) 
11

>  <cluster>  (41) 
6160

>  <N_interactions>  (41) 
6

>  <Enamine>  (41) 
0

>  <Mcule>  (41) 
1

>  <N_PAINS>  (41) 
0

>  <UFF_Gibbs>  (41) 
40.255759

>  <strain_per_HA>  (41) 
3.096597

>  <saltbridge:HIS:51>  (41) 
0

>  <pistack:HIS:51>  (41) 
0

>  <hydroph_interaction:HIS:51>  (41) 
0

>  <hbond:ALA:132>  (41) 
0

>  <hbond:SER:135>  (41) 
0

>  <hydroph_interaction:TYR:150>  (41) 
0

>  <pistack:TYR:161>  (41) 
2

>  <hydroph_interaction:TYR:161>  (41) 
1

>  <hydroph_interaction:ASP:83>  (41) 
0

>  <hbond:TYR:130>  (41) 
2

>  <hydroph_interaction:ALA:132>  (41) 
0

>  <hbond:HIS:51>  (41) 
0

>  <hbond:ASP:129>  (41) 
0

>  <hbond:TYR:150>  (41) 
0

>  <hbond:GLY:151>  (41) 
1

>  <hbond:TYR:161>  (41) 
0

>  <hydroph_interaction:TYR:130>  (41) 
0

>  <hydroph_interaction:PRO:131>  (41) 
0

>  <hydroph_interaction:ASP:129>  (41) 
0

>  <saltbridge:ASP:75>  (41) 
0

>  <saltbridge:ASP:83>  (41) 
0

>  <hydroph_interaction:ASN:152>  (41) 
0

>  <halogenbond:TYR:150>  (41) 
0

>  <hbond:ASP:83>  (41) 
0

>  <hydroph_interaction:VAL:155>  (41) 
0

>  <pication:TYR:161>  (41) 
0

>  <hbond:PRO:131>  (41) 
0

>  <hbond:LEU:128>  (41) 
0

>  <saltbridge:ASP:129>  (41) 
0

>  <hbond:THR:134>  (41) 
0

>  <pication:HIS:51>  (41) 
0

>  <hbond:SER:81>  (41) 
0

>  <hbond:GLY:159>  (41) 
0

>  <hydroph_interaction:PRO:101>  (41) 
0

>  <hydroph_interaction:THR:134>  (41) 
0

>  <hbond:GLY:82>  (41) 
0

>  <hydroph_interaction:GLU:104>  (41) 
0

>  <hydroph_interaction:VAL:36>  (41) 
0

>  <hydroph_interaction:MET:49>  (41) 
0

>  <halogenbond:GLU:104>  (41) 
0

>  <hydroph_interaction:LYS:107>  (41) 
0

$$$$
JOBQGBGZIHYOQQ-UHFFFAOYSA-N
     RDKit          3D

 45 47  0  0  0  0  0  0  0  0999 V2000
   -8.7711    6.0303  -14.0387 C   0  0  0  0  0  0  0  0  0  0  0  0
   -8.0344    5.4372  -15.1218 N   0  0  0  0  0  0  0  0  0  0  0  0
   -8.3472    5.6753  -16.5074 C   0  0  0  0  0  0  0  0  0  0  0  0
   -7.3166    5.8084  -17.4670 C   0  0  0  0  0  0  0  0  0  0  0  0
   -5.8672    5.7437  -17.0673 C   0  0  0  0  0  0  0  0  0  0  0  0
   -7.6505    5.9876  -18.8194 C   0  0  0  0  0  0  0  0  0  0  0  0
   -8.9862    6.0534  -19.2188 C   0  0  0  0  0  0  0  0  0  0  0  0
  -10.0127    5.9416  -18.2736 C   0  0  0  0  0  0  0  0  0  0  0  0
  -11.4469    5.9622  -18.7137 C   0  0  0  0  0  0  0  0  0  0  0  0
   -9.6892    5.7295  -16.9264 C   0  0  0  0  0  0  0  0  0  0  0  0
   -9.4888    7.0455  -14.2544 O   0  0  0  0  0  0  0  0  0  0  0  0
   -8.6644    5.4929  -12.6609 C   0  0  0  0  0  0  0  0  0  0  0  0
   -8.9935    6.3020  -11.5594 C   0  0  0  0  0  0  0  0  0  0  0  0
   -8.9018    5.8017  -10.2575 C   0  0  0  0  0  0  0  0  0  0  0  0
   -8.4844    4.4817  -10.0297 C   0  0  0  0  0  0  0  0  0  0  0  0
   -8.3979    3.9706   -8.6855 N   0  0  0  0  0  0  0  0  0  0  0  0
   -8.8167    2.5973   -8.3884 C   0  0  0  0  0  0  0  0  0  0  0  0
   -9.2641    2.4985   -6.9266 C   0  0  0  0  0  0  0  0  0  0  0  0
   -8.2676    3.0081   -6.0603 O   0  0  0  0  0  0  0  0  0  0  0  0
   -8.0992    4.3949   -6.2886 C   0  0  0  0  0  0  0  0  0  0  0  0
   -7.5555    4.6525   -7.6975 C   0  0  0  0  0  0  0  0  0  0  0  0
   -8.1714    3.6659  -11.1293 C   0  0  0  0  0  0  0  0  0  0  0  0
   -8.2605    4.1657  -12.4315 C   0  0  0  0  0  0  0  0  0  0  0  0
   -7.1796    4.8834  -14.8914 H   0  0  0  0  0  0  0  0  0  0  0  0
   -5.2029    6.0905  -17.8875 H   0  0  0  0  0  0  0  0  0  0  0  0
   -5.5975    4.6969  -16.8141 H   0  0  0  0  0  0  0  0  0  0  0  0
   -5.6837    6.3946  -16.1868 H   0  0  0  0  0  0  0  0  0  0  0  0
   -6.8748    6.0767  -19.5699 H   0  0  0  0  0  0  0  0  0  0  0  0
   -9.2198    6.1875  -20.2679 H   0  0  0  0  0  0  0  0  0  0  0  0
  -12.1041    6.3287  -17.8965 H   0  0  0  0  0  0  0  0  0  0  0  0
  -11.7608    4.9364  -18.9981 H   0  0  0  0  0  0  0  0  0  0  0  0
  -11.5773    6.6370  -19.5864 H   0  0  0  0  0  0  0  0  0  0  0  0
  -10.4845    5.5867  -16.2055 H   0  0  0  0  0  0  0  0  0  0  0  0
   -9.3172    7.3255  -11.7034 H   0  0  0  0  0  0  0  0  0  0  0  0
   -9.1739    6.4406   -9.4272 H   0  0  0  0  0  0  0  0  0  0  0  0
   -7.9635    1.9061   -8.5617 H   0  0  0  0  0  0  0  0  0  0  0  0
   -9.6619    2.2984   -9.0464 H   0  0  0  0  0  0  0  0  0  0  0  0
   -9.4352    1.4300   -6.6779 H   0  0  0  0  0  0  0  0  0  0  0  0
  -10.2337    3.0276   -6.7792 H   0  0  0  0  0  0  0  0  0  0  0  0
   -9.0545    4.9472   -6.1340 H   0  0  0  0  0  0  0  0  0  0  0  0
   -7.3711    4.7889   -5.5485 H   0  0  0  0  0  0  0  0  0  0  0  0
   -6.5178    4.2609   -7.7730 H   0  0  0  0  0  0  0  0  0  0  0  0
   -7.5270    5.7479   -7.8789 H   0  0  0  0  0  0  0  0  0  0  0  0
   -7.8500    2.6430  -10.9803 H   0  0  0  0  0  0  0  0  0  0  0  0
   -8.0314    3.5030  -13.2555 H   0  0  0  0  0  0  0  0  0  0  0  0
  1  2  1  0
  2  3  1  0
  3  4  2  0
  4  5  1  0
  4  6  1  0
  6  7  2  0
  7  8  1  0
  8  9  1  0
  8 10  2  0
  1 11  2  0
  1 12  1  0
 12 13  2  0
 13 14  1  0
 14 15  2  0
 15 16  1  0
 16 17  1  0
 17 18  1  0
 18 19  1  0
 19 20  1  0
 20 21  1  0
 15 22  1  0
 22 23  2  0
  3 10  1  0
 23 12  1  0
 21 16  1  0
  2 24  1  0
  5 25  1  0
  5 26  1  0
  5 27  1  0
  6 28  1  0
  7 29  1  0
  9 30  1  0
  9 31  1  0
  9 32  1  0
 10 33  1  0
 13 34  1  0
 14 35  1  0
 17 36  1  0
 17 37  1  0
 18 38  1  0
 18 39  1  0
 20 40  1  0
 20 41  1  0
 21 42  1  0
 21 43  1  0
 22 44  1  0
 23 45  1  0
A    1
 C1 
A    2
 N1 
A    3
 C2 
A    4
 C3 
A    5
 C4 
A    6
 C5 
A    7
 C6 
A    8
 C7 
A    9
 C8 
A   10
 C9 
A   11
 O1 
A   12
 C10
A   13
 C11
A   14
 C12
A   15
 C13
A   16
 N2 
A   17
 C14
A   18
 C15
A   19
 O2 
A   20
 C16
A   21
 C17
A   22
 C18
A   23
 C19
A   24
 H1 
A   25
 H2 
A   26
 H3 
A   27
 H4 
A   28
 H5 
A   29
 H6 
A   30
 H7 
A   31
 H8 
A   32
 H9 
A   33
 H10
A   34
 H11
A   35
 H12
A   36
 H13
A   37
 H14
A   38
 H15
A   39
 H16
A   40
 H17
A   41
 H18
A   42
 H19
A   43
 H20
A   44
 H21
A   45
 H22
M  END
>  <ref_pdb>  (42) 
x0051_0B

>  <ref_mols>  (42) 
x0553_0B,x0404_0B

>  <original SMILES>  (42) 
[H]c1c([H])c(N2C([H])([H])C([H])([H])OC([H])([H])C2([H])[H])c([H])c([H])c1C(=O)N([H])c1c([H])c(C([H])([H])[H])c([H])c([H])c1C([H])([H])[H]

>  <index>  (42) 
74

>  <∆∆G>  (42) 
-8.20302

>  <∆G_bound>  (42) 
-8.163328

>  <∆G_unbound>  (42) 
0.039693

>  <comRMSD>  (42) 
0.609734

>  <N_constrained_atoms>  (42) 
24.0

>  <N_unconstrained_atoms>  (42) 
0.0

>  <runtime>  (42) 
61.547083

>  <LE>  (42) 
0.341793

>  <percent_hybrid>  (42) 
38.0

>  <dist>  (42) 
7.0

>  <ecfp4>  (42) 
0.266667

>  <daylight>  (42) 
0.21134

>  <topodist>  (42) 
3.0

>  <mces>  (42) 
25.0

>  <tdn>  (42) 
2.0

>  <tup>  (42) 
0.0

>  <rdn>  (42) 
0.0

>  <rup>  (42) 
0.0

>  <ldn>  (42) 
1.0

>  <lup>  (42) 
0.0

>  <mut>  (42) 
2.0

>  <maj>  (42) 
2.0

>  <min>  (42) 
0.0

>  <hyb>  (42) 
2.0

>  <sub>  (42) 
0.0

>  <query_index>  (42) 
112.0

>  <max_hit_Tanimoto>  (42) 
0.245053

>  <largest_ring>  (42) 
6

>  <N_interactions_kept>  (42) 
2.0

>  <N_interactions_lost>  (42) 
1.5

>  <interaction_uniqueness_metric>  (42) 
0.119529

>  <ad_hoc_penalty>  (42) 
-33.994022

>  <N_rotatable_bonds>  (42) 
5

>  <N_HA>  (42) 
23

>  <cluster>  (42) 
6150

>  <N_interactions>  (42) 
7

>  <Enamine>  (42) 
0

>  <Mcule>  (42) 
1

>  <N_PAINS>  (42) 
0

>  <UFF_Gibbs>  (42) 
73.216371

>  <strain_per_HA>  (42) 
3.050682

>  <saltbridge:HIS:51>  (42) 
0

>  <pistack:HIS:51>  (42) 
1

>  <hydroph_interaction:HIS:51>  (42) 
1

>  <hbond:ALA:132>  (42) 
0

>  <hbond:SER:135>  (42) 
0

>  <hydroph_interaction:TYR:150>  (42) 
1

>  <pistack:TYR:161>  (42) 
0

>  <hydroph_interaction:TYR:161>  (42) 
3

>  <hydroph_interaction:ASP:83>  (42) 
0

>  <hbond:TYR:130>  (42) 
0

>  <hydroph_interaction:ALA:132>  (42) 
1

>  <hbond:HIS:51>  (42) 
0

>  <hbond:ASP:129>  (42) 
0

>  <hbond:TYR:150>  (42) 
0

>  <hbond:GLY:151>  (42) 
0

>  <hbond:TYR:161>  (42) 
0

>  <hydroph_interaction:TYR:130>  (42) 
0

>  <hydroph_interaction:PRO:131>  (42) 
0

>  <hydroph_interaction:ASP:129>  (42) 
0

>  <saltbridge:ASP:75>  (42) 
0

>  <saltbridge:ASP:83>  (42) 
0

>  <hydroph_interaction:ASN:152>  (42) 
0

>  <halogenbond:TYR:150>  (42) 
0

>  <hbond:ASP:83>  (42) 
0

>  <hydroph_interaction:VAL:155>  (42) 
0

>  <pication:TYR:161>  (42) 
0

>  <hbond:PRO:131>  (42) 
0

>  <hbond:LEU:128>  (42) 
0

>  <saltbridge:ASP:129>  (42) 
0

>  <hbond:THR:134>  (42) 
0

>  <pication:HIS:51>  (42) 
0

>  <hbond:SER:81>  (42) 
0

>  <hbond:GLY:159>  (42) 
0

>  <hydroph_interaction:PRO:101>  (42) 
0

>  <hydroph_interaction:THR:134>  (42) 
0

>  <hbond:GLY:82>  (42) 
0

>  <hydroph_interaction:GLU:104>  (42) 
0

>  <hydroph_interaction:VAL:36>  (42) 
0

>  <hydroph_interaction:MET:49>  (42) 
0

>  <halogenbond:GLU:104>  (42) 
0

>  <hydroph_interaction:LYS:107>  (42) 
0

$$$$
YVXJQJNEFZLCJB-UHFFFAOYSA-N
     RDKit          3D

 28 29  0  0  0  0  0  0  0  0999 V2000
   -5.4227    5.4430  -17.4405 N   0  0  0  0  0  0  0  0  0  0  0  0
   -4.0175    5.4843  -17.8935 C   0  0  0  0  0  0  0  0  0  0  0  0
   -3.0950    5.0754  -16.7794 C   0  0  0  0  0  0  0  0  0  0  0  0
   -3.1447    3.8513  -16.2471 C   0  0  0  0  0  0  0  0  0  0  0  0
   -6.3886    5.2016  -18.5505 C   0  0  0  0  0  0  0  0  0  0  0  0
   -6.2946    6.2371  -19.6902 C   0  0  0  0  0  0  0  0  0  0  0  0
   -7.7929    5.1761  -18.0078 C   0  0  0  0  0  0  0  0  0  0  0  0
   -8.1164    5.7952  -16.8128 C   0  0  0  0  0  0  0  0  0  0  0  0
   -9.7588    5.5999  -16.5237 S   0  0  0  0  0  0  0  0  0  0  0  0
  -10.0854    4.7587  -17.9480 C   0  0  0  0  0  0  0  0  0  0  0  0
   -8.8982    4.6080  -18.6566 C   0  0  0  0  0  0  0  0  0  0  0  0
   -7.1092    6.3848  -15.8795 C   0  0  0  0  0  0  0  0  0  0  0  0
   -5.7753    6.6182  -16.6065 C   0  0  0  0  0  0  0  0  0  0  0  0
   -3.7448    6.5058  -18.2412 H   0  0  0  0  0  0  0  0  0  0  0  0
   -3.8538    4.7823  -18.7415 H   0  0  0  0  0  0  0  0  0  0  0  0
   -2.3660    5.7887  -16.4065 H   0  0  0  0  0  0  0  0  0  0  0  0
   -3.8603    3.1166  -16.6041 H   0  0  0  0  0  0  0  0  0  0  0  0
   -2.4650    3.5792  -15.4463 H   0  0  0  0  0  0  0  0  0  0  0  0
   -6.1807    4.1973  -18.9822 H   0  0  0  0  0  0  0  0  0  0  0  0
   -5.2783    6.2563  -20.1333 H   0  0  0  0  0  0  0  0  0  0  0  0
   -7.0001    5.9627  -20.5033 H   0  0  0  0  0  0  0  0  0  0  0  0
   -6.5597    7.2556  -19.3401 H   0  0  0  0  0  0  0  0  0  0  0  0
  -11.0542    4.3917  -18.2585 H   0  0  0  0  0  0  0  0  0  0  0  0
   -8.8372    4.1014  -19.6109 H   0  0  0  0  0  0  0  0  0  0  0  0
   -6.9508    5.6768  -15.0381 H   0  0  0  0  0  0  0  0  0  0  0  0
   -7.4898    7.3451  -15.4715 H   0  0  0  0  0  0  0  0  0  0  0  0
   -4.9958    6.7921  -15.8327 H   0  0  0  0  0  0  0  0  0  0  0  0
   -5.8352    7.5410  -17.2218 H   0  0  0  0  0  0  0  0  0  0  0  0
  1  2  1  0
  2  3  1  0
  3  4  2  3
  1  5  1  0
  5  6  1  0
  5  7  1  0
  7  8  2  0
  8  9  1  0
  9 10  1  0
 10 11  2  0
  8 12  1  0
 12 13  1  0
 13  1  1  0
 11  7  1  0
  2 14  1  0
  2 15  1  0
  3 16  1  0
  4 17  1  0
  4 18  1  0
  5 19  1  0
  6 20  1  0
  6 21  1  0
  6 22  1  0
 10 23  1  0
 11 24  1  0
 12 25  1  0
 12 26  1  0
 13 27  1  0
 13 28  1  0
A    1
 N1 
A    2
 C1 
A    3
 C2 
A    4
 C3 
A    5
 C4 
A    6
 C5 
A    7
 C6 
A    8
 C7 
A    9
 S1 
A   10
 C8 
A   11
 C9 
A   12
 C10
A   13
 C11
A   14
 H1 
A   15
 H2 
A   16
 H3 
A   17
 H4 
A   18
 H5 
A   19
 H6 
A   20
 H7 
A   21
 H8 
A   22
 H9 
A   23
 H10
A   24
 H11
A   25
 H12
A   26
 H13
A   27
 H14
A   28
 H15
M  END
>  <ref_pdb>  (43) 
x0051_0B

>  <ref_mols>  (43) 
x0472_0B,x0386_0B

>  <original SMILES>  (43) 
[H]C([H])=C([H])C([H])([H])N1C([H])([H])C([H])([H])c2sc([H])c([H])c2C1([H])C([H])([H])[H]

>  <index>  (43) 
58

>  <∆∆G>  (43) 
-6.883995

>  <∆G_bound>  (43) 
-6.890241

>  <∆G_unbound>  (43) 
-0.006246

>  <comRMSD>  (43) 
0.424887

>  <N_constrained_atoms>  (43) 
14.0

>  <N_unconstrained_atoms>  (43) 
0.0

>  <runtime>  (43) 
22.503951

>  <LE>  (43) 
0.491714

>  <percent_hybrid>  (43) 
13.0

>  <dist>  (43) 
4.0

>  <ecfp4>  (43) 
0.4

>  <daylight>  (43) 
0.701493

>  <topodist>  (43) 
1.0

>  <mces>  (43) 
14.0

>  <tdn>  (43) 
1.0

>  <tup>  (43) 
0.0

>  <rdn>  (43) 
0.0

>  <rup>  (43) 
0.0

>  <ldn>  (43) 
0.0

>  <lup>  (43) 
0.0

>  <mut>  (43) 
2.0

>  <maj>  (43) 
2.0

>  <min>  (43) 
0.0

>  <hyb>  (43) 
1.0

>  <sub>  (43) 
1.0

>  <query_index>  (43) 
75.0

>  <max_hit_Tanimoto>  (43) 
0.651446

>  <largest_ring>  (43) 
6

>  <N_interactions_kept>  (43) 
2.0

>  <N_interactions_lost>  (43) 
1.0

>  <interaction_uniqueness_metric>  (43) 
0.149776

>  <ad_hoc_penalty>  (43) 
-33.909496

>  <N_rotatable_bonds>  (43) 
3

>  <N_HA>  (43) 
13

>  <cluster>  (43) 
6165

>  <N_interactions>  (43) 
6

>  <Enamine>  (43) 
0

>  <Mcule>  (43) 
1

>  <N_PAINS>  (43) 
0

>  <UFF_Gibbs>  (43) 
58.65222

>  <strain_per_HA>  (43) 
4.189444

>  <saltbridge:HIS:51>  (43) 
0

>  <pistack:HIS:51>  (43) 
0

>  <hydroph_interaction:HIS:51>  (43) 
0

>  <hbond:ALA:132>  (43) 
0

>  <hbond:SER:135>  (43) 
0

>  <hydroph_interaction:TYR:150>  (43) 
1

>  <pistack:TYR:161>  (43) 
0

>  <hydroph_interaction:TYR:161>  (43) 
3

>  <hydroph_interaction:ASP:83>  (43) 
0

>  <hbond:TYR:130>  (43) 
0

>  <hydroph_interaction:ALA:132>  (43) 
0

>  <hbond:HIS:51>  (43) 
0

>  <hbond:ASP:129>  (43) 
0

>  <hbond:TYR:150>  (43) 
0

>  <hbond:GLY:151>  (43) 
0

>  <hbond:TYR:161>  (43) 
0

>  <hydroph_interaction:TYR:130>  (43) 
0

>  <hydroph_interaction:PRO:131>  (43) 
0

>  <hydroph_interaction:ASP:129>  (43) 
0

>  <saltbridge:ASP:75>  (43) 
0

>  <saltbridge:ASP:83>  (43) 
0

>  <hydroph_interaction:ASN:152>  (43) 
0

>  <halogenbond:TYR:150>  (43) 
0

>  <hbond:ASP:83>  (43) 
0

>  <hydroph_interaction:VAL:155>  (43) 
1

>  <pication:TYR:161>  (43) 
1

>  <hbond:PRO:131>  (43) 
0

>  <hbond:LEU:128>  (43) 
0

>  <saltbridge:ASP:129>  (43) 
0

>  <hbond:THR:134>  (43) 
0

>  <pication:HIS:51>  (43) 
0

>  <hbond:SER:81>  (43) 
0

>  <hbond:GLY:159>  (43) 
0

>  <hydroph_interaction:PRO:101>  (43) 
0

>  <hydroph_interaction:THR:134>  (43) 
0

>  <hbond:GLY:82>  (43) 
0

>  <hydroph_interaction:GLU:104>  (43) 
0

>  <hydroph_interaction:VAL:36>  (43) 
0

>  <hydroph_interaction:MET:49>  (43) 
0

>  <halogenbond:GLU:104>  (43) 
0

>  <hydroph_interaction:LYS:107>  (43) 
0

$$$$
AJRDTNSESMPVEI-UHFFFAOYSA-N
     RDKit          3D

 43 45  0  0  0  0  0  0  0  0999 V2000
   -7.6821    6.4866  -12.7333 O   0  0  0  0  0  0  0  0  0  0  0  0
   -8.6781    5.7383  -12.1000 C   0  0  0  0  0  0  0  0  0  0  0  0
   -9.8120    5.6022  -12.6337 O   0  0  0  0  0  0  0  0  0  0  0  0
   -8.3957    5.1312  -10.7907 C   0  0  0  0  0  0  0  0  0  0  0  0
   -9.1894    4.2886  -10.0322 C   0  0  0  0  0  0  0  0  0  0  0  0
   -8.5468    4.0303   -8.8786 N   0  0  0  0  0  0  0  0  0  0  0  0
   -9.0279    3.1452   -7.8187 C   0  0  0  0  0  0  0  0  0  0  0  0
  -10.5435    2.9194   -7.9442 C   0  0  0  0  0  0  0  0  0  0  0  0
  -10.9309    2.6147   -9.4006 C   0  0  0  0  0  0  0  0  0  0  0  0
  -10.5720    3.7843  -10.3325 C   0  0  0  0  0  0  0  0  0  0  0  0
   -7.3638    4.6248   -8.8753 N   0  0  0  0  0  0  0  0  0  0  0  0
   -7.2486    5.3056  -10.0342 C   0  0  0  0  0  0  0  0  0  0  0  0
   -7.8834    7.1496  -13.9787 C   0  0  0  0  0  0  0  0  0  0  0  0
   -6.5790    7.7884  -14.4402 C   0  0  0  0  0  0  0  0  0  0  0  0
   -5.2949    6.5016  -14.6569 S   0  0  0  0  0  0  0  0  0  0  0  0
   -4.9575    6.8690  -16.3852 C   0  0  0  0  0  0  0  0  0  0  0  0
   -5.6916    6.4068  -17.4067 C   0  0  0  0  0  0  0  0  0  0  0  0
   -6.8664    5.5206  -17.2680 C   0  0  0  0  0  0  0  0  0  0  0  0
   -8.0263    5.8151  -18.0024 C   0  0  0  0  0  0  0  0  0  0  0  0
   -9.1489    4.9872  -17.9119 C   0  0  0  0  0  0  0  0  0  0  0  0
   -9.1184    3.8505  -17.1004 C   0  0  0  0  0  0  0  0  0  0  0  0
   -7.9581    3.5301  -16.3919 C   0  0  0  0  0  0  0  0  0  0  0  0
   -6.8314    4.3529  -16.4837 C   0  0  0  0  0  0  0  0  0  0  0  0
   -8.4980    2.1709   -7.8929 H   0  0  0  0  0  0  0  0  0  0  0  0
   -8.8032    3.5922   -6.8259 H   0  0  0  0  0  0  0  0  0  0  0  0
  -11.0850    3.8280   -7.6014 H   0  0  0  0  0  0  0  0  0  0  0  0
  -10.8446    2.0715   -7.2910 H   0  0  0  0  0  0  0  0  0  0  0  0
  -12.0230    2.4184   -9.4612 H   0  0  0  0  0  0  0  0  0  0  0  0
  -10.4001    1.6959   -9.7367 H   0  0  0  0  0  0  0  0  0  0  0  0
  -11.2971    4.6152  -10.1868 H   0  0  0  0  0  0  0  0  0  0  0  0
  -10.6283    3.4376  -11.3871 H   0  0  0  0  0  0  0  0  0  0  0  0
   -6.3880    5.9026  -10.3053 H   0  0  0  0  0  0  0  0  0  0  0  0
   -8.6550    7.9392  -13.8564 H   0  0  0  0  0  0  0  0  0  0  0  0
   -8.2330    6.4246  -14.7447 H   0  0  0  0  0  0  0  0  0  0  0  0
   -6.2308    8.5125  -13.6736 H   0  0  0  0  0  0  0  0  0  0  0  0
   -6.7668    8.3512  -15.3802 H   0  0  0  0  0  0  0  0  0  0  0  0
   -4.1439    7.5501  -16.5994 H   0  0  0  0  0  0  0  0  0  0  0  0
   -5.4633    6.7837  -18.3960 H   0  0  0  0  0  0  0  0  0  0  0  0
   -8.0680    6.6953  -18.6326 H   0  0  0  0  0  0  0  0  0  0  0  0
  -10.0433    5.2281  -18.4714 H   0  0  0  0  0  0  0  0  0  0  0  0
   -9.9905    3.2113  -17.0305 H   0  0  0  0  0  0  0  0  0  0  0  0
   -7.9288    2.6395  -15.7765 H   0  0  0  0  0  0  0  0  0  0  0  0
   -5.9316    4.0722  -15.9486 H   0  0  0  0  0  0  0  0  0  0  0  0
  1  2  1  0
  2  3  2  0
  2  4  1  0
  4  5  2  0
  5  6  1  0
  6  7  1  0
  7  8  1  0
  8  9  1  0
  9 10  1  0
  6 11  1  0
 11 12  2  0
  1 13  1  0
 13 14  1  0
 14 15  1  0
 15 16  1  0
 16 17  2  3
 17 18  1  0
 18 19  2  0
 19 20  1  0
 20 21  2  0
 21 22  1  0
 22 23  2  0
 12  4  1  0
 10  5  1  0
 23 18  1  0
  7 24  1  0
  7 25  1  0
  8 26  1  0
  8 27  1  0
  9 28  1  0
  9 29  1  0
 10 30  1  0
 10 31  1  0
 12 32  1  0
 13 33  1  0
 13 34  1  0
 14 35  1  0
 14 36  1  0
 16 37  1  0
 17 38  1  0
 19 39  1  0
 20 40  1  0
 21 41  1  0
 22 42  1  0
 23 43  1  0
A    1
 O1 
A    2
 C1 
A    3
 O2 
A    4
 C2 
A    5
 C3 
A    6
 N1 
A    7
 C4 
A    8
 C5 
A    9
 C6 
A   10
 C7 
A   11
 N2 
A   12
 C8 
A   13
 C9 
A   14
 C10
A   15
 S1 
A   16
 C11
A   17
 C12
A   18
 C13
A   19
 C14
A   20
 C15
A   21
 C16
A   22
 C17
A   23
 C18
A   24
 H1 
A   25
 H2 
A   26
 H3 
A   27
 H4 
A   28
 H5 
A   29
 H6 
A   30
 H7 
A   31
 H8 
A   32
 H9 
A   33
 H10
A   34
 H11
A   35
 H12
A   36
 H13
A   37
 H14
A   38
 H15
A   39
 H16
A   40
 H17
A   41
 H18
A   42
 H19
A   43
 H20
M  END
>  <ref_pdb>  (44) 
x0051_0B

>  <ref_mols>  (44) 
x0969_1B,x0455_0B

>  <original SMILES>  (44) 
[H]C(SC([H])([H])C([H])([H])OC(=O)c1c([H])nn2c1C([H])([H])C([H])([H])C([H])([H])C2([H])[H])=C([H])c1c([H])c([H])c([H])c([H])c1[H]

>  <index>  (44) 
67

>  <∆∆G>  (44) 
-8.012634

>  <∆G_bound>  (44) 
-6.803649

>  <∆G_unbound>  (44) 
1.208985

>  <comRMSD>  (44) 
0.796008

>  <N_constrained_atoms>  (44) 
20.0

>  <N_unconstrained_atoms>  (44) 
4.0

>  <runtime>  (44) 
70.943371

>  <LE>  (44) 
0.33386

>  <percent_hybrid>  (44) 
50.0

>  <dist>  (44) 
8.0

>  <ecfp4>  (44) 
0.223529

>  <daylight>  (44) 
0.272206

>  <topodist>  (44) 
2.0

>  <mces>  (44) 
24.0

>  <tdn>  (44) 
0.0

>  <tup>  (44) 
1.0

>  <rdn>  (44) 
1.0

>  <rup>  (44) 
0.0

>  <ldn>  (44) 
0.0

>  <lup>  (44) 
0.0

>  <mut>  (44) 
4.0

>  <maj>  (44) 
4.0

>  <min>  (44) 
0.0

>  <hyb>  (44) 
2.0

>  <sub>  (44) 
2.0

>  <query_index>  (44) 
204.0

>  <max_hit_Tanimoto>  (44) 
0.329569

>  <largest_ring>  (44) 
6

>  <N_interactions_kept>  (44) 
1.0

>  <N_interactions_lost>  (44) 
1.5

>  <interaction_uniqueness_metric>  (44) 
0.270159

>  <ad_hoc_penalty>  (44) 
-33.855872

>  <N_rotatable_bonds>  (44) 
6

>  <N_HA>  (44) 
23

>  <cluster>  (44) 
6157

>  <N_interactions>  (44) 
8

>  <Enamine>  (44) 
0

>  <Mcule>  (44) 
1

>  <N_PAINS>  (44) 
0

>  <UFF_Gibbs>  (44) 
117.954678

>  <strain_per_HA>  (44) 
4.914778

>  <saltbridge:HIS:51>  (44) 
1

>  <pistack:HIS:51>  (44) 
1

>  <hydroph_interaction:HIS:51>  (44) 
1

>  <hbond:ALA:132>  (44) 
0

>  <hbond:SER:135>  (44) 
0

>  <hydroph_interaction:TYR:150>  (44) 
1

>  <pistack:TYR:161>  (44) 
0

>  <hydroph_interaction:TYR:161>  (44) 
3

>  <hydroph_interaction:ASP:83>  (44) 
1

>  <hbond:TYR:130>  (44) 
0

>  <hydroph_interaction:ALA:132>  (44) 
0

>  <hbond:HIS:51>  (44) 
0

>  <hbond:ASP:129>  (44) 
0

>  <hbond:TYR:150>  (44) 
0

>  <hbond:GLY:151>  (44) 
0

>  <hbond:TYR:161>  (44) 
0

>  <hydroph_interaction:TYR:130>  (44) 
0

>  <hydroph_interaction:PRO:131>  (44) 
0

>  <hydroph_interaction:ASP:129>  (44) 
0

>  <saltbridge:ASP:75>  (44) 
0

>  <saltbridge:ASP:83>  (44) 
0

>  <hydroph_interaction:ASN:152>  (44) 
0

>  <halogenbond:TYR:150>  (44) 
0

>  <hbond:ASP:83>  (44) 
0

>  <hydroph_interaction:VAL:155>  (44) 
0

>  <pication:TYR:161>  (44) 
0

>  <hbond:PRO:131>  (44) 
0

>  <hbond:LEU:128>  (44) 
0

>  <saltbridge:ASP:129>  (44) 
0

>  <hbond:THR:134>  (44) 
0

>  <pication:HIS:51>  (44) 
0

>  <hbond:SER:81>  (44) 
0

>  <hbond:GLY:159>  (44) 
0

>  <hydroph_interaction:PRO:101>  (44) 
0

>  <hydroph_interaction:THR:134>  (44) 
0

>  <hbond:GLY:82>  (44) 
0

>  <hydroph_interaction:GLU:104>  (44) 
0

>  <hydroph_interaction:VAL:36>  (44) 
0

>  <hydroph_interaction:MET:49>  (44) 
0

>  <halogenbond:GLU:104>  (44) 
0

>  <hydroph_interaction:LYS:107>  (44) 
0

$$$$
MCULE-9338386934
     RDKit          3D

 21 22  0  0  0  0  0  0  0  0999 V2000
   -7.9625    5.0489  -18.1970 C   0  0  0  0  0  0  0  0  0  0  0  0
   -8.4097    5.0640  -16.8868 C   0  0  0  0  0  0  0  0  0  0  0  0
   -9.7755    4.8886  -16.9503 C   0  0  0  0  0  0  0  0  0  0  0  0
  -10.1503    4.7709  -18.2027 O   0  0  0  0  0  0  0  0  0  0  0  0
   -9.0933    4.8616  -18.9761 C   0  0  0  0  0  0  0  0  0  0  0  0
   -6.5615    5.2018  -18.6686 C   0  0  0  0  0  0  0  0  0  0  0  0
   -5.4832    5.1237  -17.7692 C   0  0  0  0  0  0  0  0  0  0  0  0
   -4.1653    5.2589  -18.2257 C   0  0  0  0  0  0  0  0  0  0  0  0
   -3.0165    5.2117  -17.2623 C   0  0  0  0  0  0  0  0  0  0  0  0
   -3.9432    5.5056  -19.5852 C   0  0  0  0  0  0  0  0  0  0  0  0
   -4.9919    5.5816  -20.4443 N   0  0  0  0  0  0  0  0  0  0  0  0
   -6.2764    5.4328  -20.0262 C   0  0  0  0  0  0  0  0  0  0  0  0
   -7.8264    5.1986  -15.9864 H   0  0  0  0  0  0  0  0  0  0  0  0
  -10.4499    4.8525  -16.1053 H   0  0  0  0  0  0  0  0  0  0  0  0
   -9.1330    4.7904  -20.0542 H   0  0  0  0  0  0  0  0  0  0  0  0
   -5.6574    4.9459  -16.7163 H   0  0  0  0  0  0  0  0  0  0  0  0
   -2.8363    6.2275  -16.8527 H   0  0  0  0  0  0  0  0  0  0  0  0
   -2.0937    4.8562  -17.7683 H   0  0  0  0  0  0  0  0  0  0  0  0
   -3.2379    4.5168  -16.4244 H   0  0  0  0  0  0  0  0  0  0  0  0
   -2.9376    5.6375  -19.9634 H   0  0  0  0  0  0  0  0  0  0  0  0
   -7.0687    5.5132  -20.7566 H   0  0  0  0  0  0  0  0  0  0  0  0
  1  2  1  0
  2  3  2  0
  3  4  1  0
  4  5  1  0
  1  6  1  0
  6  7  2  0
  7  8  1  0
  8  9  1  0
  8 10  2  0
 10 11  1  0
 11 12  2  0
  1  5  2  0
  6 12  1  0
  2 13  1  0
  3 14  1  0
  5 15  1  0
  7 16  1  0
  9 17  1  0
  9 18  1  0
  9 19  1  0
 10 20  1  0
 12 21  1  0
A    1
 C1 
A    2
 C2 
A    3
 C3 
A    4
 O1 
A    5
 C4 
A    6
 C5 
A    7
 C6 
A    8
 C7 
A    9
 C8 
A   10
 C9 
A   11
 N1 
A   12
 C10
A   13
 H1 
A   14
 H2 
A   15
 H3 
A   16
 H4 
A   17
 H5 
A   18
 H6 
A   19
 H7 
A   20
 H8 
A   21
 H9 
M  END
>  <ref_pdb>  (45) 
x0051_0B

>  <ref_mols>  (45) 
x0680_0B,x0386_0B

>  <original SMILES>  (45) 
[H]c1nc([H])c(C([H])([H])[H])c([H])c1-c1c([H])oc([H])c1[H]

>  <index>  (45) 
61

>  <∆∆G>  (45) 
-6.519483

>  <∆G_bound>  (45) 
-6.598024

>  <∆G_unbound>  (45) 
-0.078541

>  <comRMSD>  (45) 
0.64228

>  <N_constrained_atoms>  (45) 
13.0

>  <N_unconstrained_atoms>  (45) 
1.0

>  <runtime>  (45) 
22.803099

>  <LE>  (45) 
0.465677

>  <percent_hybrid>  (45) 
25.0

>  <dist>  (45) 
3.0

>  <ecfp4>  (45) 
0.24

>  <daylight>  (45) 
0.414062

>  <topodist>  (45) 
2.0

>  <mces>  (45) 
12.0

>  <tdn>  (45) 
1.0

>  <tup>  (45) 
1.0

>  <rdn>  (45) 
0.0

>  <rup>  (45) 
0.0

>  <ldn>  (45) 
0.0

>  <lup>  (45) 
0.0

>  <mut>  (45) 
1.0

>  <maj>  (45) 
1.0

>  <min>  (45) 
0.0

>  <hyb>  (45) 
0.0

>  <sub>  (45) 
2.0

>  <query_index>  (45) 
296.0

>  <max_hit_Tanimoto>  (45) 
0.157221

>  <largest_ring>  (45) 
6

>  <N_interactions_kept>  (45) 
3.5

>  <N_interactions_lost>  (45) 
0.5

>  <interaction_uniqueness_metric>  (45) 
0.05195

>  <ad_hoc_penalty>  (45) 
-33.807975

>  <N_rotatable_bonds>  (45) 
2

>  <N_HA>  (45) 
12

>  <cluster>  (45) 
6162

>  <N_interactions>  (45) 
5

>  <Enamine>  (45) 
0

>  <Mcule>  (45) 
1

>  <N_PAINS>  (45) 
0

>  <UFF_Gibbs>  (45) 
42.653738

>  <strain_per_HA>  (45) 
3.046696

>  <saltbridge:HIS:51>  (45) 
0

>  <pistack:HIS:51>  (45) 
0

>  <hydroph_interaction:HIS:51>  (45) 
0

>  <hbond:ALA:132>  (45) 
0

>  <hbond:SER:135>  (45) 
0

>  <hydroph_interaction:TYR:150>  (45) 
0

>  <pistack:TYR:161>  (45) 
0

>  <hydroph_interaction:TYR:161>  (45) 
4

>  <hydroph_interaction:ASP:83>  (45) 
0

>  <hbond:TYR:130>  (45) 
0

>  <hydroph_interaction:ALA:132>  (45) 
0

>  <hbond:HIS:51>  (45) 
0

>  <hbond:ASP:129>  (45) 
0

>  <hbond:TYR:150>  (45) 
0

>  <hbond:GLY:151>  (45) 
0

>  <hbond:TYR:161>  (45) 
0

>  <hydroph_interaction:TYR:130>  (45) 
0

>  <hydroph_interaction:PRO:131>  (45) 
0

>  <hydroph_interaction:ASP:129>  (45) 
0

>  <saltbridge:ASP:75>  (45) 
0

>  <saltbridge:ASP:83>  (45) 
0

>  <hydroph_interaction:ASN:152>  (45) 
0

>  <halogenbond:TYR:150>  (45) 
0

>  <hbond:ASP:83>  (45) 
0

>  <hydroph_interaction:VAL:155>  (45) 
1

>  <pication:TYR:161>  (45) 
0

>  <hbond:PRO:131>  (45) 
0

>  <hbond:LEU:128>  (45) 
0

>  <saltbridge:ASP:129>  (45) 
0

>  <hbond:THR:134>  (45) 
0

>  <pication:HIS:51>  (45) 
0

>  <hbond:SER:81>  (45) 
0

>  <hbond:GLY:159>  (45) 
0

>  <hydroph_interaction:PRO:101>  (45) 
0

>  <hydroph_interaction:THR:134>  (45) 
0

>  <hbond:GLY:82>  (45) 
0

>  <hydroph_interaction:GLU:104>  (45) 
0

>  <hydroph_interaction:VAL:36>  (45) 
0

>  <hydroph_interaction:MET:49>  (45) 
0

>  <halogenbond:GLU:104>  (45) 
0

>  <hydroph_interaction:LYS:107>  (45) 
0

$$$$
CSSB00000645610
     RDKit          3D

 32 34  0  0  0  0  0  0  0  0999 V2000
   -8.7579    6.3928  -12.7772 N   0  0  0  0  0  0  0  0  0  0  0  0
   -8.9828    5.4275  -13.8576 C   0  0  0  0  0  0  0  0  0  0  0  0
   -8.7631    3.9913  -13.3531 C   0  0  0  0  0  0  0  0  0  0  0  0
   -9.7575    3.6295  -12.2803 C   0  0  0  0  0  0  0  0  0  0  0  0
   -9.4228    3.7689  -10.9227 C   0  0  0  0  0  0  0  0  0  0  0  0
  -10.3592    3.4590   -9.9314 C   0  0  0  0  0  0  0  0  0  0  0  0
  -11.6360    3.0158  -10.2876 C   0  0  0  0  0  0  0  0  0  0  0  0
  -11.9798    2.8847  -11.6359 C   0  0  0  0  0  0  0  0  0  0  0  0
  -11.0465    3.1936  -12.6304 C   0  0  0  0  0  0  0  0  0  0  0  0
   -8.0786    5.7041  -15.0355 C   0  0  0  0  0  0  0  0  0  0  0  0
   -6.8454    6.2553  -14.9410 N   0  0  0  0  0  0  0  0  0  0  0  0
   -6.3189    6.2763  -16.1624 N   0  0  0  0  0  0  0  0  0  0  0  0
   -7.2379    5.7251  -16.9753 C   0  0  0  0  0  0  0  0  0  0  0  0
   -7.1219    5.5172  -18.3472 C   0  0  0  0  0  0  0  0  0  0  0  0
   -8.2016    4.8988  -19.0009 C   0  0  0  0  0  0  0  0  0  0  0  0
   -9.3459    4.5083  -18.2754 C   0  0  0  0  0  0  0  0  0  0  0  0
   -9.4024    4.7446  -16.8931 C   0  0  0  0  0  0  0  0  0  0  0  0
   -8.3376    5.3523  -16.3080 N   0  0  0  0  0  0  0  0  0  0  0  0
   -7.7635    6.3384  -12.4560 H   0  0  0  0  0  0  0  0  0  0  0  0
   -8.9193    7.3576  -13.1485 H   0  0  0  0  0  0  0  0  0  0  0  0
  -10.0372    5.5303  -14.1959 H   0  0  0  0  0  0  0  0  0  0  0  0
   -7.7247    3.8788  -12.9694 H   0  0  0  0  0  0  0  0  0  0  0  0
   -8.8713    3.2775  -14.1998 H   0  0  0  0  0  0  0  0  0  0  0  0
   -8.4397    4.1189  -10.6330 H   0  0  0  0  0  0  0  0  0  0  0  0
  -10.0960    3.5653   -8.8870 H   0  0  0  0  0  0  0  0  0  0  0  0
  -12.3599    2.7775   -9.5191 H   0  0  0  0  0  0  0  0  0  0  0  0
  -12.9705    2.5466  -11.9106 H   0  0  0  0  0  0  0  0  0  0  0  0
  -11.3273    3.0955  -13.6719 H   0  0  0  0  0  0  0  0  0  0  0  0
   -6.2340    5.8155  -18.8893 H   0  0  0  0  0  0  0  0  0  0  0  0
   -8.1523    4.7175  -20.0667 H   0  0  0  0  0  0  0  0  0  0  0  0
  -10.1739    4.0279  -18.7802 H   0  0  0  0  0  0  0  0  0  0  0  0
  -10.2685    4.4465  -16.3168 H   0  0  0  0  0  0  0  0  0  0  0  0
  1  2  1  0
  2  3  1  0
  3  4  1  0
  4  5  2  0
  5  6  1  0
  6  7  2  0
  7  8  1  0
  8  9  2  0
  2 10  1  0
 10 11  2  0
 11 12  1  0
 12 13  2  0
 13 14  1  0
 14 15  2  0
 15 16  1  0
 16 17  2  0
 17 18  1  0
  9  4  1  0
 18 10  1  0
 18 13  1  0
  1 19  1  0
  1 20  1  0
  2 21  1  0
  3 22  1  0
  3 23  1  0
  5 24  1  0
  6 25  1  0
  7 26  1  0
  8 27  1  0
  9 28  1  0
 14 29  1  0
 15 30  1  0
 16 31  1  0
 17 32  1  0
A    1
 N1 
A    2
 C1 
A    3
 C2 
A    4
 C3 
A    5
 C4 
A    6
 C5 
A    7
 C6 
A    8
 C7 
A    9
 C8 
A   10
 C9 
A   11
 N2 
A   12
 N3 
A   13
 C10
A   14
 C11
A   15
 C12
A   16
 C13
A   17
 C14
A   18
 N4 
A   19
 H1 
A   20
 H2 
A   21
 H3 
A   22
 H4 
A   23
 H5 
A   24
 H6 
A   25
 H7 
A   26
 H8 
A   27
 H9 
A   28
 H10
A   29
 H11
A   30
 H12
A   31
 H13
A   32
 H14
M  END
>  <ref_pdb>  (46) 
x0051_0B

>  <ref_mols>  (46) 
x0951_0B,x0969_1B

>  <original SMILES>  (46) 
[H]c1c([H])c([H])c(C([H])([H])C([H])(c2nnc3c([H])c([H])c([H])c([H])n23)N([H])[H])c([H])c1[H]

>  <index>  (46) 
230

>  <∆∆G>  (46) 
-6.595268

>  <∆G_bound>  (46) 
-6.212562

>  <∆G_unbound>  (46) 
0.382706

>  <comRMSD>  (46) 
0.926381

>  <N_constrained_atoms>  (46) 
16.0

>  <N_unconstrained_atoms>  (46) 
5.0

>  <runtime>  (46) 
43.062882

>  <LE>  (46) 
0.31406

>  <percent_hybrid>  (46) 
25.0

>  <dist>  (46) 
12.0

>  <ecfp4>  (46) 
0.25

>  <daylight>  (46) 
0.350806

>  <topodist>  (46) 
4.0

>  <mces>  (46) 
20.0

>  <tdn>  (46) 
2.0

>  <tup>  (46) 
0.0

>  <rdn>  (46) 
1.0

>  <rup>  (46) 
0.0

>  <ldn>  (46) 
1.0

>  <lup>  (46) 
0.0

>  <mut>  (46) 
4.0

>  <maj>  (46) 
4.0

>  <min>  (46) 
0.0

>  <hyb>  (46) 
4.0

>  <sub>  (46) 
0.0

>  <query_index>  (46) 
201.0

>  <max_hit_Tanimoto>  (46) 
0.58606

>  <largest_ring>  (46) 
6

>  <N_interactions_kept>  (46) 
1.0

>  <N_interactions_lost>  (46) 
2.0

>  <interaction_uniqueness_metric>  (46) 
0.964943

>  <ad_hoc_penalty>  (46) 
-33.304397

>  <N_rotatable_bonds>  (46) 
4

>  <N_HA>  (46) 
18

>  <cluster>  (46) 
6010

>  <N_interactions>  (46) 
6

>  <Enamine>  (46) 
1

>  <Mcule>  (46) 
0

>  <N_PAINS>  (46) 
0

>  <UFF_Gibbs>  (46) 
106.392914

>  <strain_per_HA>  (46) 
5.066329

>  <saltbridge:HIS:51>  (46) 
0

>  <pistack:HIS:51>  (46) 
0

>  <hydroph_interaction:HIS:51>  (46) 
1

>  <hbond:ALA:132>  (46) 
0

>  <hbond:SER:135>  (46) 
0

>  <hydroph_interaction:TYR:150>  (46) 
1

>  <pistack:TYR:161>  (46) 
2

>  <hydroph_interaction:TYR:161>  (46) 
0

>  <hydroph_interaction:ASP:83>  (46) 
0

>  <hbond:TYR:130>  (46) 
0

>  <hydroph_interaction:ALA:132>  (46) 
0

>  <hbond:HIS:51>  (46) 
0

>  <hbond:ASP:129>  (46) 
0

>  <hbond:TYR:150>  (46) 
0

>  <hbond:GLY:151>  (46) 
0

>  <hbond:TYR:161>  (46) 
0

>  <hydroph_interaction:TYR:130>  (46) 
0

>  <hydroph_interaction:PRO:131>  (46) 
0

>  <hydroph_interaction:ASP:129>  (46) 
0

>  <saltbridge:ASP:75>  (46) 
0

>  <saltbridge:ASP:83>  (46) 
0

>  <hydroph_interaction:ASN:152>  (46) 
1

>  <halogenbond:TYR:150>  (46) 
0

>  <hbond:ASP:83>  (46) 
0

>  <hydroph_interaction:VAL:155>  (46) 
0

>  <pication:TYR:161>  (46) 
0

>  <hbond:PRO:131>  (46) 
0

>  <hbond:LEU:128>  (46) 
0

>  <saltbridge:ASP:129>  (46) 
0

>  <hbond:THR:134>  (46) 
0

>  <pication:HIS:51>  (46) 
0

>  <hbond:SER:81>  (46) 
0

>  <hbond:GLY:159>  (46) 
0

>  <hydroph_interaction:PRO:101>  (46) 
0

>  <hydroph_interaction:THR:134>  (46) 
0

>  <hbond:GLY:82>  (46) 
0

>  <hydroph_interaction:GLU:104>  (46) 
0

>  <hydroph_interaction:VAL:36>  (46) 
0

>  <hydroph_interaction:MET:49>  (46) 
1

>  <halogenbond:GLU:104>  (46) 
0

>  <hydroph_interaction:LYS:107>  (46) 
0

$$$$
PEGDGACHRBNIEM-UHFFFAOYSA-N
     RDKit          3D

 41 44  0  0  0  0  0  0  0  0999 V2000
   -8.5133    6.1507  -12.9261 O   0  0  0  0  0  0  0  0  0  0  0  0
   -8.2767    6.2274  -14.3053 C   0  0  0  0  0  0  0  0  0  0  0  0
   -8.5031    7.3226  -14.8867 O   0  0  0  0  0  0  0  0  0  0  0  0
   -7.7046    5.0662  -15.0980 C   0  0  0  0  0  0  0  0  0  0  0  0
   -8.2895    5.0331  -16.4992 C   0  0  0  0  0  0  0  0  0  0  0  0
   -7.5421    5.4461  -17.6305 C   0  0  0  0  0  0  0  0  0  0  0  0
   -8.1467    5.4361  -18.8982 C   0  0  0  0  0  0  0  0  0  0  0  0
   -9.4809    5.0514  -19.0448 C   0  0  0  0  0  0  0  0  0  0  0  0
  -10.2223    4.6592  -17.9305 C   0  0  0  0  0  0  0  0  0  0  0  0
   -9.6325    4.6503  -16.6651 C   0  0  0  0  0  0  0  0  0  0  0  0
   -6.0738    5.7844  -17.5306 C   0  0  0  0  0  0  0  0  0  0  0  0
   -5.6474    6.1557  -16.1091 C   0  0  0  0  0  0  0  0  0  0  0  0
   -6.1649    5.1224  -15.1068 C   0  0  0  0  0  0  0  0  0  0  0  0
   -8.3213    4.9784  -12.1393 C   0  0  0  0  0  0  0  0  0  0  0  0
   -8.5876    5.2854  -10.6987 C   0  0  0  0  0  0  0  0  0  0  0  0
   -9.0121    4.4240   -9.7086 C   0  0  0  0  0  0  0  0  0  0  0  0
   -9.0182    5.0846   -8.5400 N   0  0  0  0  0  0  0  0  0  0  0  0
   -9.3851    4.5130   -7.3650 C   0  0  0  0  0  0  0  0  0  0  0  0
   -9.7747    3.1653   -7.3742 C   0  0  0  0  0  0  0  0  0  0  0  0
   -9.7697    2.4500   -8.5873 C   0  0  0  0  0  0  0  0  0  0  0  0
   -9.3810    3.0800   -9.7805 C   0  0  0  0  0  0  0  0  0  0  0  0
   -8.6022    6.3285   -8.7081 N   0  0  0  0  0  0  0  0  0  0  0  0
   -8.3229    6.4741  -10.0245 C   0  0  0  0  0  0  0  0  0  0  0  0
   -7.9923    4.1135  -14.6059 H   0  0  0  0  0  0  0  0  0  0  0  0
   -7.5804    5.7212  -19.7764 H   0  0  0  0  0  0  0  0  0  0  0  0
   -9.9388    5.0515  -20.0256 H   0  0  0  0  0  0  0  0  0  0  0  0
  -11.2566    4.3621  -18.0469 H   0  0  0  0  0  0  0  0  0  0  0  0
  -10.2245    4.3506  -15.8089 H   0  0  0  0  0  0  0  0  0  0  0  0
   -5.8340    6.6345  -18.2059 H   0  0  0  0  0  0  0  0  0  0  0  0
   -5.4863    4.9033  -17.8687 H   0  0  0  0  0  0  0  0  0  0  0  0
   -4.5377    6.1921  -16.0593 H   0  0  0  0  0  0  0  0  0  0  0  0
   -6.0297    7.1667  -15.8514 H   0  0  0  0  0  0  0  0  0  0  0  0
   -5.7626    4.1209  -15.3776 H   0  0  0  0  0  0  0  0  0  0  0  0
   -5.7804    5.3670  -14.0926 H   0  0  0  0  0  0  0  0  0  0  0  0
   -9.0204    4.1873  -12.4838 H   0  0  0  0  0  0  0  0  0  0  0  0
   -7.2751    4.6196  -12.2370 H   0  0  0  0  0  0  0  0  0  0  0  0
   -9.3731    5.0808   -6.4433 H   0  0  0  0  0  0  0  0  0  0  0  0
  -10.0728    2.6780   -6.4550 H   0  0  0  0  0  0  0  0  0  0  0  0
  -10.0654    1.4090   -8.6000 H   0  0  0  0  0  0  0  0  0  0  0  0
   -9.3705    2.5370  -10.7164 H   0  0  0  0  0  0  0  0  0  0  0  0
   -7.9377    7.3844  -10.4642 H   0  0  0  0  0  0  0  0  0  0  0  0
  1  2  1  0
  2  3  2  0
  2  4  1  0
  4  5  1  0
  5  6  1  0
  6  7  2  0
  7  8  1  0
  8  9  2  0
  9 10  1  0
  6 11  1  0
 11 12  1  0
 12 13  1  0
  1 14  1  0
 14 15  1  0
 15 16  2  0
 16 17  1  0
 17 18  1  0
 18 19  2  0
 19 20  1  0
 20 21  2  0
 17 22  1  0
 22 23  2  0
 13  4  1  0
 10  5  2  0
 23 15  1  0
 21 16  1  0
  4 24  1  0
  7 25  1  0
  8 26  1  0
  9 27  1  0
 10 28  1  0
 11 29  1  0
 11 30  1  0
 12 31  1  0
 12 32  1  0
 13 33  1  0
 13 34  1  0
 14 35  1  0
 14 36  1  0
 18 37  1  0
 19 38  1  0
 20 39  1  0
 21 40  1  0
 23 41  1  0
A    1
 O1 
A    2
 C1 
A    3
 O2 
A    4
 C2 
A    5
 C3 
A    6
 C4 
A    7
 C5 
A    8
 C6 
A    9
 C7 
A   10
 C8 
A   11
 C9 
A   12
 C10
A   13
 C11
A   14
 C12
A   15
 C13
A   16
 C14
A   17
 N1 
A   18
 C15
A   19
 C16
A   20
 C17
A   21
 C18
A   22
 N2 
A   23
 C19
A   24
 H1 
A   25
 H2 
A   26
 H3 
A   27
 H4 
A   28
 H5 
A   29
 H6 
A   30
 H7 
A   31
 H8 
A   32
 H9 
A   33
 H10
A   34
 H11
A   35
 H12
A   36
 H13
A   37
 H14
A   38
 H15
A   39
 H16
A   40
 H17
A   41
 H18
M  END
>  <ref_pdb>  (47) 
x0051_0B

>  <ref_mols>  (47) 
x0969_1B,x0455_0B

>  <original SMILES>  (47) 
[H]c1nn2c([H])c([H])c([H])c([H])c2c1C([H])([H])OC(=O)C1([H])c2c([H])c([H])c([H])c([H])c2C([H])([H])C([H])([H])C1([H])[H]

>  <index>  (47) 
105

>  <∆∆G>  (47) 
-6.153388

>  <∆G_bound>  (47) 
-5.390694

>  <∆G_unbound>  (47) 
0.762694

>  <comRMSD>  (47) 
0.423554

>  <N_constrained_atoms>  (47) 
20.0

>  <N_unconstrained_atoms>  (47) 
3.0

>  <runtime>  (47) 
71.066094

>  <LE>  (47) 
0.267539

>  <percent_hybrid>  (47) 
50.0

>  <dist>  (47) 
8.0

>  <ecfp4>  (47) 
0.193182

>  <daylight>  (47) 
0.265432

>  <topodist>  (47) 
1.0

>  <mces>  (47) 
25.0

>  <tdn>  (47) 
0.0

>  <tup>  (47) 
1.0

>  <rdn>  (47) 
0.0

>  <rup>  (47) 
0.0

>  <ldn>  (47) 
0.0

>  <lup>  (47) 
0.0

>  <mut>  (47) 
3.0

>  <maj>  (47) 
3.0

>  <min>  (47) 
0.0

>  <hyb>  (47) 
4.0

>  <sub>  (47) 
0.0

>  <query_index>  (47) 
204.0

>  <max_hit_Tanimoto>  (47) 
0.196444

>  <largest_ring>  (47) 
6

>  <N_interactions_kept>  (47) 
1.5

>  <N_interactions_lost>  (47) 
1.0

>  <interaction_uniqueness_metric>  (47) 
0.148598

>  <ad_hoc_penalty>  (47) 
-33.102148

>  <N_rotatable_bonds>  (47) 
3

>  <N_HA>  (47) 
23

>  <cluster>  (47) 
6121

>  <N_interactions>  (47) 
6

>  <Enamine>  (47) 
0

>  <Mcule>  (47) 
1

>  <N_PAINS>  (47) 
0

>  <UFF_Gibbs>  (47) 
46.607707

>  <strain_per_HA>  (47) 
2.026422

>  <saltbridge:HIS:51>  (47) 
1

>  <pistack:HIS:51>  (47) 
1

>  <hydroph_interaction:HIS:51>  (47) 
0

>  <hbond:ALA:132>  (47) 
0

>  <hbond:SER:135>  (47) 
0

>  <hydroph_interaction:TYR:150>  (47) 
1

>  <pistack:TYR:161>  (47) 
0

>  <hydroph_interaction:TYR:161>  (47) 
3

>  <hydroph_interaction:ASP:83>  (47) 
0

>  <hbond:TYR:130>  (47) 
0

>  <hydroph_interaction:ALA:132>  (47) 
0

>  <hbond:HIS:51>  (47) 
0

>  <hbond:ASP:129>  (47) 
0

>  <hbond:TYR:150>  (47) 
0

>  <hbond:GLY:151>  (47) 
0

>  <hbond:TYR:161>  (47) 
0

>  <hydroph_interaction:TYR:130>  (47) 
0

>  <hydroph_interaction:PRO:131>  (47) 
0

>  <hydroph_interaction:ASP:129>  (47) 
0

>  <saltbridge:ASP:75>  (47) 
0

>  <saltbridge:ASP:83>  (47) 
0

>  <hydroph_interaction:ASN:152>  (47) 
0

>  <halogenbond:TYR:150>  (47) 
0

>  <hbond:ASP:83>  (47) 
0

>  <hydroph_interaction:VAL:155>  (47) 
0

>  <pication:TYR:161>  (47) 
0

>  <hbond:PRO:131>  (47) 
0

>  <hbond:LEU:128>  (47) 
0

>  <saltbridge:ASP:129>  (47) 
0

>  <hbond:THR:134>  (47) 
0

>  <pication:HIS:51>  (47) 
0

>  <hbond:SER:81>  (47) 
0

>  <hbond:GLY:159>  (47) 
0

>  <hydroph_interaction:PRO:101>  (47) 
0

>  <hydroph_interaction:THR:134>  (47) 
0

>  <hbond:GLY:82>  (47) 
0

>  <hydroph_interaction:GLU:104>  (47) 
0

>  <hydroph_interaction:VAL:36>  (47) 
0

>  <hydroph_interaction:MET:49>  (47) 
0

>  <halogenbond:GLU:104>  (47) 
0

>  <hydroph_interaction:LYS:107>  (47) 
0

$$$$
Z750433262
     RDKit          3D

 53 56  0  0  0  0  0  0  0  0999 V2000
   -9.9176    4.0499  -16.6093 C   0  0  0  0  0  0  0  0  0  0  0  0
   -8.8806    5.0277  -16.2999 N   0  0  0  0  0  0  0  0  0  0  0  0
   -7.9331    5.5148  -17.2659 C   0  0  0  0  0  0  0  0  0  0  0  0
   -7.1435    6.4398  -16.9317 O   0  0  0  0  0  0  0  0  0  0  0  0
   -7.8627    4.9764  -18.6727 C   0  0  0  0  0  0  0  0  0  0  0  0
   -6.4788    4.4464  -18.9622 C   0  0  0  0  0  0  0  0  0  0  0  0
   -6.1156    3.1855  -18.4589 C   0  0  0  0  0  0  0  0  0  0  0  0
   -4.8235    2.6890  -18.6526 C   0  0  0  0  0  0  0  0  0  0  0  0
   -3.8784    3.4471  -19.3447 C   0  0  0  0  0  0  0  0  0  0  0  0
   -4.2225    4.7030  -19.8470 C   0  0  0  0  0  0  0  0  0  0  0  0
   -5.5168    5.2085  -19.6655 C   0  0  0  0  0  0  0  0  0  0  0  0
   -5.8352    6.4990  -20.1986 N   0  0  0  0  0  0  0  0  0  0  0  0
   -6.5324    6.6400  -21.4459 C   0  0  0  0  0  0  0  0  0  0  0  0
   -6.9685    5.6109  -22.0334 O   0  0  0  0  0  0  0  0  0  0  0  0
   -6.7629    7.9733  -22.0501 C   0  0  0  0  0  0  0  0  0  0  0  0
   -7.8479    8.1687  -22.9237 C   0  0  0  0  0  0  0  0  0  0  0  0
   -8.0704    9.4177  -23.5113 C   0  0  0  0  0  0  0  0  0  0  0  0
   -7.2065   10.4917  -23.2441 C   0  0  0  0  0  0  0  0  0  0  0  0
   -7.4158   11.8238  -23.9147 C   0  0  0  0  0  0  0  0  0  0  0  0
   -6.1679   12.1084  -25.2176 S   0  0  0  0  0  0  0  0  0  0  0  0
   -6.7636   10.7957  -26.2838 C   0  0  0  0  0  0  0  0  0  0  0  0
   -6.2674    9.5306  -26.2454 N   0  0  0  0  0  0  0  0  0  0  0  0
   -7.0167    8.8940  -27.1629 C   0  0  0  0  0  0  0  0  0  0  0  0
   -6.9600    7.5508  -27.5312 C   0  0  0  0  0  0  0  0  0  0  0  0
   -7.8659    7.1017  -28.5099 C   0  0  0  0  0  0  0  0  0  0  0  0
   -8.7970    7.9959  -29.0878 C   0  0  0  0  0  0  0  0  0  0  0  0
   -8.8283    9.3467  -28.6913 C   0  0  0  0  0  0  0  0  0  0  0  0
   -7.9149    9.7537  -27.7225 C   0  0  0  0  0  0  0  0  0  0  0  0
   -7.7663   10.9672  -27.1795 N   0  0  0  0  0  0  0  0  0  0  0  0
   -6.1173   10.2984  -22.3817 C   0  0  0  0  0  0  0  0  0  0  0  0
   -5.8951    9.0498  -21.7906 C   0  0  0  0  0  0  0  0  0  0  0  0
  -10.5690    3.8965  -15.7236 H   0  0  0  0  0  0  0  0  0  0  0  0
  -10.5442    4.4167  -17.4498 H   0  0  0  0  0  0  0  0  0  0  0  0
   -9.4529    3.0779  -16.8750 H   0  0  0  0  0  0  0  0  0  0  0  0
   -8.8576    5.4337  -15.3377 H   0  0  0  0  0  0  0  0  0  0  0  0
   -8.1443    5.7892  -19.3710 H   0  0  0  0  0  0  0  0  0  0  0  0
   -8.5969    4.1648  -18.8443 H   0  0  0  0  0  0  0  0  0  0  0  0
   -6.8330    2.5891  -17.9105 H   0  0  0  0  0  0  0  0  0  0  0  0
   -4.5554    1.7145  -18.2665 H   0  0  0  0  0  0  0  0  0  0  0  0
   -2.8775    3.0612  -19.4936 H   0  0  0  0  0  0  0  0  0  0  0  0
   -3.4831    5.2832  -20.3861 H   0  0  0  0  0  0  0  0  0  0  0  0
   -5.5821    7.3382  -19.6329 H   0  0  0  0  0  0  0  0  0  0  0  0
   -8.5277    7.3558  -23.1495 H   0  0  0  0  0  0  0  0  0  0  0  0
   -8.9096    9.5420  -24.1867 H   0  0  0  0  0  0  0  0  0  0  0  0
   -8.4336   11.8992  -24.3541 H   0  0  0  0  0  0  0  0  0  0  0  0
   -7.3242   12.6324  -23.1590 H   0  0  0  0  0  0  0  0  0  0  0  0
   -6.2471    6.8745  -27.0785 H   0  0  0  0  0  0  0  0  0  0  0  0
   -7.8520    6.0650  -28.8214 H   0  0  0  0  0  0  0  0  0  0  0  0
   -9.4909    7.6400  -29.8382 H   0  0  0  0  0  0  0  0  0  0  0  0
   -9.5381   10.0414  -29.1193 H   0  0  0  0  0  0  0  0  0  0  0  0
   -8.3089   11.8365  -27.3807 H   0  0  0  0  0  0  0  0  0  0  0  0
   -5.4322   11.1121  -22.1791 H   0  0  0  0  0  0  0  0  0  0  0  0
   -5.0250    8.9249  -21.1582 H   0  0  0  0  0  0  0  0  0  0  0  0
  1  2  1  0
  2  3  1  0
  3  4  2  0
  3  5  1  0
  5  6  1  0
  6  7  2  0
  7  8  1  0
  8  9  2  0
  9 10  1  0
 10 11  2  0
 11 12  1  0
 12 13  1  0
 13 14  2  0
 13 15  1  0
 15 16  2  0
 16 17  1  0
 17 18  2  0
 18 19  1  0
 19 20  1  0
 20 21  1  0
 21 22  2  0
 22 23  1  0
 23 24  2  0
 24 25  1  0
 25 26  2  0
 26 27  1  0
 27 28  2  0
 28 29  1  0
 18 30  1  0
 30 31  2  0
 11  6  1  0
 31 15  1  0
 29 21  1  0
 28 23  1  0
  1 32  1  0
  1 33  1  0
  1 34  1  0
  2 35  1  0
  5 36  1  0
  5 37  1  0
  7 38  1  0
  8 39  1  0
  9 40  1  0
 10 41  1  0
 12 42  1  0
 16 43  1  0
 17 44  1  0
 19 45  1  0
 19 46  1  0
 24 47  1  0
 25 48  1  0
 26 49  1  0
 27 50  1  0
 29 51  1  0
 30 52  1  0
 31 53  1  0
A    1
 C1 
A    2
 N1 
A    3
 C2 
A    4
 O1 
A    5
 C3 
A    6
 C4 
A    7
 C5 
A    8
 C6 
A    9
 C7 
A   10
 C8 
A   11
 C9 
A   12
 N2 
A   13
 C10
A   14
 O2 
A   15
 C11
A   16
 C12
A   17
 C13
A   18
 C14
A   19
 C15
A   20
 S1 
A   21
 C16
A   22
 N3 
A   23
 C17
A   24
 C18
A   25
 C19
A   26
 C20
A   27
 C21
A   28
 C22
A   29
 N4 
A   30
 C23
A   31
 C24
A   32
 H1 
A   33
 H2 
A   34
 H3 
A   35
 H4 
A   36
 H5 
A   37
 H6 
A   38
 H7 
A   39
 H8 
A   40
 H9 
A   41
 H10
A   42
 H11
A   43
 H12
A   44
 H13
A   45
 H14
A   46
 H15
A   47
 H16
A   48
 H17
A   49
 H18
A   50
 H19
A   51
 H20
A   52
 H21
A   53
 H22
M  END
>  <ref_pdb>  (48) 
x0051_0B

>  <ref_mols>  (48) 
x0465_0B,x0846_1B

>  <original SMILES>  (48) 
[H]c1c([H])c([H])c(C([H])([H])C(=O)N([H])C([H])([H])[H])c(N([H])C(=O)c2c([H])c([H])c(C([H])([H])Sc3nc4c([H])c([H])c([H])c([H])c4n3[H])c([H])c2[H])c1[H]

>  <index>  (48) 
89

>  <∆∆G>  (48) 
-12.244588

>  <∆G_bound>  (48) 
-10.566884

>  <∆G_unbound>  (48) 
1.677704

>  <comRMSD>  (48) 
0.817691

>  <N_constrained_atoms>  (48) 
31.0

>  <N_unconstrained_atoms>  (48) 
3.0

>  <runtime>  (48) 
71.005196

>  <LE>  (48) 
0.360135

>  <percent_hybrid>  (48) 
42.0

>  <dist>  (48) 
9.0

>  <ecfp4>  (48) 
0.267442

>  <daylight>  (48) 
0.403509

>  <topodist>  (48) 
5.0

>  <mces>  (48) 
33.0

>  <tdn>  (48) 
1.0

>  <tup>  (48) 
1.0

>  <rdn>  (48) 
1.0

>  <rup>  (48) 
0.0

>  <ldn>  (48) 
2.0

>  <lup>  (48) 
0.0

>  <mut>  (48) 
3.0

>  <maj>  (48) 
3.0

>  <min>  (48) 
0.0

>  <hyb>  (48) 
1.0

>  <sub>  (48) 
2.0

>  <query_index>  (48) 
127.0

>  <max_hit_Tanimoto>  (48) 
0.286199

>  <largest_ring>  (48) 
6

>  <N_interactions_kept>  (48) 
1.5

>  <N_interactions_lost>  (48) 
2.5

>  <interaction_uniqueness_metric>  (48) 
0.232355

>  <ad_hoc_penalty>  (48) 
-33.071309

>  <N_rotatable_bonds>  (48) 
8

>  <N_HA>  (48) 
31

>  <cluster>  (48) 
6135

>  <N_interactions>  (48) 
8

>  <Enamine>  (48) 
1

>  <Mcule>  (48) 
0

>  <N_PAINS>  (48) 
0

>  <UFF_Gibbs>  (48) 
146.055996

>  <strain_per_HA>  (48) 
4.295765

>  <saltbridge:HIS:51>  (48) 
0

>  <pistack:HIS:51>  (48) 
0

>  <hydroph_interaction:HIS:51>  (48) 
0

>  <hbond:ALA:132>  (48) 
0

>  <hbond:SER:135>  (48) 
0

>  <hydroph_interaction:TYR:150>  (48) 
0

>  <pistack:TYR:161>  (48) 
1

>  <hydroph_interaction:TYR:161>  (48) 
2

>  <hydroph_interaction:ASP:83>  (48) 
0

>  <hbond:TYR:130>  (48) 
1

>  <hydroph_interaction:ALA:132>  (48) 
0

>  <hbond:HIS:51>  (48) 
0

>  <hbond:ASP:129>  (48) 
1

>  <hbond:TYR:150>  (48) 
0

>  <hbond:GLY:151>  (48) 
1

>  <hbond:TYR:161>  (48) 
0

>  <hydroph_interaction:TYR:130>  (48) 
1

>  <hydroph_interaction:PRO:131>  (48) 
1

>  <hydroph_interaction:ASP:129>  (48) 
0

>  <saltbridge:ASP:75>  (48) 
0

>  <saltbridge:ASP:83>  (48) 
0

>  <hydroph_interaction:ASN:152>  (48) 
0

>  <halogenbond:TYR:150>  (48) 
0

>  <hbond:ASP:83>  (48) 
0

>  <hydroph_interaction:VAL:155>  (48) 
0

>  <pication:TYR:161>  (48) 
0

>  <hbond:PRO:131>  (48) 
0

>  <hbond:LEU:128>  (48) 
0

>  <saltbridge:ASP:129>  (48) 
0

>  <hbond:THR:134>  (48) 
0

>  <pication:HIS:51>  (48) 
0

>  <hbond:SER:81>  (48) 
0

>  <hbond:GLY:159>  (48) 
0

>  <hydroph_interaction:PRO:101>  (48) 
0

>  <hydroph_interaction:THR:134>  (48) 
0

>  <hbond:GLY:82>  (48) 
0

>  <hydroph_interaction:GLU:104>  (48) 
0

>  <hydroph_interaction:VAL:36>  (48) 
0

>  <hydroph_interaction:MET:49>  (48) 
0

>  <halogenbond:GLU:104>  (48) 
0

>  <hydroph_interaction:LYS:107>  (48) 
0

$$$$
Z3559502619
     RDKit          3D

 39 41  0  0  0  0  0  0  0  0999 V2000
   -8.5477    4.9721  -19.0960 C   0  0  0  0  0  0  0  0  0  0  0  0
   -8.5092    4.6140  -17.6445 C   0  0  0  0  0  0  0  0  0  0  0  0
   -9.5114    5.0671  -16.7769 C   0  0  0  0  0  0  0  0  0  0  0  0
   -9.4645    4.7285  -15.4165 C   0  0  0  0  0  0  0  0  0  0  0  0
  -10.5054    5.2013  -14.5382 N   0  0  0  0  0  0  0  0  0  0  0  0
  -10.5038    5.0368  -13.0843 C   0  0  0  0  0  0  0  0  0  0  0  0
   -9.4956    5.9900  -12.4368 C   0  0  0  0  0  0  0  0  0  0  0  0
   -9.4421    5.7726  -10.9551 C   0  0  0  0  0  0  0  0  0  0  0  0
   -8.7069    4.8339  -10.2599 C   0  0  0  0  0  0  0  0  0  0  0  0
   -7.7825    3.7878  -10.8103 C   0  0  0  0  0  0  0  0  0  0  0  0
   -6.9390    3.1732   -9.6822 C   0  0  0  0  0  0  0  0  0  0  0  0
   -7.8032    2.8349   -8.4560 C   0  0  0  0  0  0  0  0  0  0  0  0
   -8.4697    4.0995   -7.8893 C   0  0  0  0  0  0  0  0  0  0  0  0
   -9.0589    4.8967   -8.9635 N   0  0  0  0  0  0  0  0  0  0  0  0
   -9.9620    5.8480   -8.7845 N   0  0  0  0  0  0  0  0  0  0  0  0
  -10.2234    6.3908   -9.9928 C   0  0  0  0  0  0  0  0  0  0  0  0
   -8.4046    3.9254  -14.9559 C   0  0  0  0  0  0  0  0  0  0  0  0
   -7.4247    3.4938  -15.8526 C   0  0  0  0  0  0  0  0  0  0  0  0
   -6.3991    2.7225  -15.4171 F   0  0  0  0  0  0  0  0  0  0  0  0
   -7.4968    3.8435  -17.1633 N   0  0  0  0  0  0  0  0  0  0  0  0
   -8.5180    6.0761  -19.2108 H   0  0  0  0  0  0  0  0  0  0  0  0
   -7.6773    4.5345  -19.6296 H   0  0  0  0  0  0  0  0  0  0  0  0
   -9.4804    4.5810  -19.5541 H   0  0  0  0  0  0  0  0  0  0  0  0
  -10.3189    5.6814  -17.1574 H   0  0  0  0  0  0  0  0  0  0  0  0
  -11.3309    5.6844  -14.9607 H   0  0  0  0  0  0  0  0  0  0  0  0
  -11.5180    5.2735  -12.6934 H   0  0  0  0  0  0  0  0  0  0  0  0
  -10.2910    3.9794  -12.8191 H   0  0  0  0  0  0  0  0  0  0  0  0
   -8.4835    5.8389  -12.8659 H   0  0  0  0  0  0  0  0  0  0  0  0
   -9.7951    7.0400  -12.6446 H   0  0  0  0  0  0  0  0  0  0  0  0
   -7.1104    4.2352  -11.5729 H   0  0  0  0  0  0  0  0  0  0  0  0
   -8.3899    2.9928  -11.2932 H   0  0  0  0  0  0  0  0  0  0  0  0
   -6.1411    3.8886   -9.3839 H   0  0  0  0  0  0  0  0  0  0  0  0
   -6.4468    2.2492  -10.0546 H   0  0  0  0  0  0  0  0  0  0  0  0
   -8.5872    2.1022   -8.7482 H   0  0  0  0  0  0  0  0  0  0  0  0
   -7.1700    2.3681   -7.6711 H   0  0  0  0  0  0  0  0  0  0  0  0
   -9.2574    3.8094   -7.1612 H   0  0  0  0  0  0  0  0  0  0  0  0
   -7.7094    4.7134   -7.3602 H   0  0  0  0  0  0  0  0  0  0  0  0
  -10.9484    7.1753  -10.1638 H   0  0  0  0  0  0  0  0  0  0  0  0
   -8.3269    3.6272  -13.9207 H   0  0  0  0  0  0  0  0  0  0  0  0
  1  2  1  0
  2  3  2  0
  3  4  1  0
  4  5  1  0
  5  6  1  0
  6  7  1  0
  7  8  1  0
  8  9  2  0
  9 10  1  0
 10 11  1  0
 11 12  1  0
 12 13  1  0
 13 14  1  0
 14 15  1  0
 15 16  2  0
  4 17  2  0
 17 18  1  0
 18 19  1  0
 18 20  2  0
 20  2  1  0
 16  8  1  0
 14  9  1  0
  1 21  1  0
  1 22  1  0
  1 23  1  0
  3 24  1  0
  5 25  1  0
  6 26  1  0
  6 27  1  0
  7 28  1  0
  7 29  1  0
 10 30  1  0
 10 31  1  0
 11 32  1  0
 11 33  1  0
 12 34  1  0
 12 35  1  0
 13 36  1  0
 13 37  1  0
 16 38  1  0
 17 39  1  0
A    1
 C1 
A    2
 C2 
A    3
 C3 
A    4
 C4 
A    5
 N1 
A    6
 C5 
A    7
 C6 
A    8
 C7 
A    9
 C8 
A   10
 C9 
A   11
 C10
A   12
 C11
A   13
 C12
A   14
 N2 
A   15
 N3 
A   16
 C13
A   17
 C14
A   18
 C15
A   19
 F1 
A   20
 N4 
A   21
 H1 
A   22
 H2 
A   23
 H3 
A   24
 H4 
A   25
 H5 
A   26
 H6 
A   27
 H7 
A   28
 H8 
A   29
 H9 
A   30
 H10
A   31
 H11
A   32
 H12
A   33
 H13
A   34
 H14
A   35
 H15
A   36
 H16
A   37
 H17
A   38
 H18
A   39
 H19
M  END
>  <ref_pdb>  (49) 
x0051_0B

>  <ref_mols>  (49) 
x0589_0B,x0969_1B

>  <original SMILES>  (49) 
[H]c1nn2c(c1C([H])([H])C([H])([H])N([H])c1c([H])c(F)nc(C([H])([H])[H])c1[H])C([H])([H])C([H])([H])C([H])([H])C2([H])[H]

>  <index>  (49) 
80

>  <∆∆G>  (49) 
-7.116332

>  <∆G_bound>  (49) 
-6.782741

>  <∆G_unbound>  (49) 
0.333591

>  <comRMSD>  (49) 
0.698714

>  <N_constrained_atoms>  (49) 
17.0

>  <N_unconstrained_atoms>  (49) 
4.0

>  <runtime>  (49) 
46.686468

>  <LE>  (49) 
0.338873

>  <percent_hybrid>  (49) 
42.0

>  <dist>  (49) 
4.0

>  <ecfp4>  (49) 
0.310811

>  <daylight>  (49) 
0.265734

>  <topodist>  (49) 
0.0

>  <mces>  (49) 
22.0

>  <tdn>  (49) 
0.0

>  <tup>  (49) 
0.0

>  <rdn>  (49) 
0.0

>  <rup>  (49) 
0.0

>  <ldn>  (49) 
0.0

>  <lup>  (49) 
0.0

>  <mut>  (49) 
4.0

>  <maj>  (49) 
3.0

>  <min>  (49) 
1.0

>  <hyb>  (49) 
0.0

>  <sub>  (49) 
0.0

>  <query_index>  (49) 
379.0

>  <max_hit_Tanimoto>  (49) 
0.332629

>  <largest_ring>  (49) 
6

>  <N_interactions_kept>  (49) 
1.5

>  <N_interactions_lost>  (49) 
1.0

>  <interaction_uniqueness_metric>  (49) 
0.218358

>  <ad_hoc_penalty>  (49) 
-33.063432

>  <N_rotatable_bonds>  (49) 
5

>  <N_HA>  (49) 
20

>  <cluster>  (49) 
6144

>  <N_interactions>  (49) 
7

>  <Enamine>  (49) 
1

>  <Mcule>  (49) 
0

>  <N_PAINS>  (49) 
0

>  <UFF_Gibbs>  (49) 
92.092294

>  <strain_per_HA>  (49) 
4.385347

>  <saltbridge:HIS:51>  (49) 
0

>  <pistack:HIS:51>  (49) 
1

>  <hydroph_interaction:HIS:51>  (49) 
0

>  <hbond:ALA:132>  (49) 
0

>  <hbond:SER:135>  (49) 
2

>  <hydroph_interaction:TYR:150>  (49) 
1

>  <pistack:TYR:161>  (49) 
1

>  <hydroph_interaction:TYR:161>  (49) 
1

>  <hydroph_interaction:ASP:83>  (49) 
1

>  <hbond:TYR:130>  (49) 
0

>  <hydroph_interaction:ALA:132>  (49) 
0

>  <hbond:HIS:51>  (49) 
0

>  <hbond:ASP:129>  (49) 
0

>  <hbond:TYR:150>  (49) 
0

>  <hbond:GLY:151>  (49) 
0

>  <hbond:TYR:161>  (49) 
0

>  <hydroph_interaction:TYR:130>  (49) 
0

>  <hydroph_interaction:PRO:131>  (49) 
0

>  <hydroph_interaction:ASP:129>  (49) 
0

>  <saltbridge:ASP:75>  (49) 
0

>  <saltbridge:ASP:83>  (49) 
0

>  <hydroph_interaction:ASN:152>  (49) 
0

>  <halogenbond:TYR:150>  (49) 
0

>  <hbond:ASP:83>  (49) 
0

>  <hydroph_interaction:VAL:155>  (49) 
0

>  <pication:TYR:161>  (49) 
0

>  <hbond:PRO:131>  (49) 
0

>  <hbond:LEU:128>  (49) 
0

>  <saltbridge:ASP:129>  (49) 
0

>  <hbond:THR:134>  (49) 
0

>  <pication:HIS:51>  (49) 
0

>  <hbond:SER:81>  (49) 
0

>  <hbond:GLY:159>  (49) 
0

>  <hydroph_interaction:PRO:101>  (49) 
0

>  <hydroph_interaction:THR:134>  (49) 
0

>  <hbond:GLY:82>  (49) 
0

>  <hydroph_interaction:GLU:104>  (49) 
0

>  <hydroph_interaction:VAL:36>  (49) 
0

>  <hydroph_interaction:MET:49>  (49) 
0

>  <halogenbond:GLU:104>  (49) 
0

>  <hydroph_interaction:LYS:107>  (49) 
0

$$$$
AGPUGISCRBNNNN-UHFFFAOYSA-N
     RDKit          3D

 47 50  0  0  0  0  0  0  0  0999 V2000
   -7.9900    7.3060  -13.1504 N   0  0  0  0  0  0  0  0  0  0  0  0
   -7.9537    7.6712  -14.5745 C   0  0  0  0  0  0  0  0  0  0  0  0
   -7.5038    6.5205  -15.4348 C   0  0  0  0  0  0  0  0  0  0  0  0
   -8.2912    5.6349  -16.1500 C   0  0  0  0  0  0  0  0  0  0  0  0
   -7.4460    4.6975  -16.6943 C   0  0  0  0  0  0  0  0  0  0  0  0
   -7.9366    3.6298  -17.4533 C   0  0  0  0  0  0  0  0  0  0  0  0
   -9.3281    3.5431  -17.6509 C   0  0  0  0  0  0  0  0  0  0  0  0
  -10.1934    4.5081  -17.0904 C   0  0  0  0  0  0  0  0  0  0  0  0
   -9.6762    5.5688  -16.3248 C   0  0  0  0  0  0  0  0  0  0  0  0
   -6.1647    4.9573  -16.3501 N   0  0  0  0  0  0  0  0  0  0  0  0
   -4.9763    4.1530  -16.6394 C   0  0  0  0  0  0  0  0  0  0  0  0
   -4.8687    2.9926  -15.6570 C   0  0  0  0  0  0  0  0  0  0  0  0
   -6.1965    6.0630  -15.5685 C   0  0  0  0  0  0  0  0  0  0  0  0
   -9.1653    6.4860  -12.8334 C   0  0  0  0  0  0  0  0  0  0  0  0
   -9.1674    6.1441  -11.3764 C   0  0  0  0  0  0  0  0  0  0  0  0
   -8.6368    5.0240  -10.7704 C   0  0  0  0  0  0  0  0  0  0  0  0
   -8.8161    5.1375   -9.4423 N   0  0  0  0  0  0  0  0  0  0  0  0
   -8.3497    4.1777   -8.4432 C   0  0  0  0  0  0  0  0  0  0  0  0
   -8.0937    2.8054   -9.0892 C   0  0  0  0  0  0  0  0  0  0  0  0
   -7.2893    2.9563  -10.3920 C   0  0  0  0  0  0  0  0  0  0  0  0
   -8.0468    3.8103  -11.4241 C   0  0  0  0  0  0  0  0  0  0  0  0
   -9.3862    6.3016   -9.1597 N   0  0  0  0  0  0  0  0  0  0  0  0
   -9.6118    6.9375  -10.3296 C   0  0  0  0  0  0  0  0  0  0  0  0
   -7.1212    6.7713  -12.9096 H   0  0  0  0  0  0  0  0  0  0  0  0
   -7.2345    8.5075  -14.7042 H   0  0  0  0  0  0  0  0  0  0  0  0
   -8.9425    8.0519  -14.9122 H   0  0  0  0  0  0  0  0  0  0  0  0
   -7.2754    2.8831  -17.8728 H   0  0  0  0  0  0  0  0  0  0  0  0
   -9.7389    2.7260  -18.2296 H   0  0  0  0  0  0  0  0  0  0  0  0
  -11.2631    4.4260  -17.2421 H   0  0  0  0  0  0  0  0  0  0  0  0
  -10.3380    6.3002  -15.8793 H   0  0  0  0  0  0  0  0  0  0  0  0
   -5.0212    3.7632  -17.6782 H   0  0  0  0  0  0  0  0  0  0  0  0
   -4.0659    4.7858  -16.5591 H   0  0  0  0  0  0  0  0  0  0  0  0
   -3.9273    2.4326  -15.8394 H   0  0  0  0  0  0  0  0  0  0  0  0
   -5.7267    2.3005  -15.7866 H   0  0  0  0  0  0  0  0  0  0  0  0
   -4.8659    3.3722  -14.6143 H   0  0  0  0  0  0  0  0  0  0  0  0
   -5.3243    6.4990  -15.0949 H   0  0  0  0  0  0  0  0  0  0  0  0
   -9.1630    5.5461  -13.4263 H   0  0  0  0  0  0  0  0  0  0  0  0
  -10.0957    7.0485  -13.0671 H   0  0  0  0  0  0  0  0  0  0  0  0
   -9.1089    4.0761   -7.6386 H   0  0  0  0  0  0  0  0  0  0  0  0
   -7.4065    4.5555   -7.9919 H   0  0  0  0  0  0  0  0  0  0  0  0
   -7.5327    2.1620   -8.3786 H   0  0  0  0  0  0  0  0  0  0  0  0
   -9.0654    2.3118   -9.3104 H   0  0  0  0  0  0  0  0  0  0  0  0
   -6.3065    3.4326  -10.1663 H   0  0  0  0  0  0  0  0  0  0  0  0
   -7.0887    1.9495  -10.8235 H   0  0  0  0  0  0  0  0  0  0  0  0
   -8.8696    3.2122  -11.8701 H   0  0  0  0  0  0  0  0  0  0  0  0
   -7.3509    4.1163  -12.2346 H   0  0  0  0  0  0  0  0  0  0  0  0
  -10.0619    7.9199  -10.4137 H   0  0  0  0  0  0  0  0  0  0  0  0
  1  2  1  0
  2  3  1  0
  3  4  1  0
  4  5  1  0
  5  6  2  0
  6  7  1  0
  7  8  2  0
  8  9  1  0
  5 10  1  0
 10 11  1  0
 11 12  1  0
 10 13  1  0
  1 14  1  0
 14 15  1  0
 15 16  2  0
 16 17  1  0
 17 18  1  0
 18 19  1  0
 19 20  1  0
 20 21  1  0
 17 22  1  0
 22 23  2  0
  3 13  2  0
  9  4  2  0
 23 15  1  0
 21 16  1  0
  1 24  1  0
  2 25  1  0
  2 26  1  0
  6 27  1  0
  7 28  1  0
  8 29  1  0
  9 30  1  0
 11 31  1  0
 11 32  1  0
 12 33  1  0
 12 34  1  0
 12 35  1  0
 13 36  1  0
 14 37  1  0
 14 38  1  0
 18 39  1  0
 18 40  1  0
 19 41  1  0
 19 42  1  0
 20 43  1  0
 20 44  1  0
 21 45  1  0
 21 46  1  0
 23 47  1  0
A    1
 N1 
A    2
 C1 
A    3
 C2 
A    4
 C3 
A    5
 C4 
A    6
 C5 
A    7
 C6 
A    8
 C7 
A    9
 C8 
A   10
 N2 
A   11
 C9 
A   12
 C10
A   13
 C11
A   14
 C12
A   15
 C13
A   16
 C14
A   17
 N3 
A   18
 C15
A   19
 C16
A   20
 C17
A   21
 C18
A   22
 N4 
A   23
 C19
A   24
 H1 
A   25
 H2 
A   26
 H3 
A   27
 H4 
A   28
 H5 
A   29
 H6 
A   30
 H7 
A   31
 H8 
A   32
 H9 
A   33
 H10
A   34
 H11
A   35
 H12
A   36
 H13
A   37
 H14
A   38
 H15
A   39
 H16
A   40
 H17
A   41
 H18
A   42
 H19
A   43
 H20
A   44
 H21
A   45
 H22
A   46
 H23
A   47
 H24
M  END
>  <ref_pdb>  (50) 
x0051_0B

>  <ref_mols>  (50) 
x0472_0B,x0969_1B

>  <original SMILES>  (50) 
[H]c1nn2c(c1C([H])([H])N([H])C([H])([H])c1c([H])n(C([H])([H])C([H])([H])[H])c3c([H])c([H])c([H])c([H])c13)C([H])([H])C([H])([H])C([H])([H])C2([H])[H]

>  <index>  (50) 
66

>  <∆∆G>  (50) 
-8.075928

>  <∆G_bound>  (50) 
-7.916641

>  <∆G_unbound>  (50) 
0.159288

>  <comRMSD>  (50) 
0.819232

>  <N_constrained_atoms>  (50) 
23.0

>  <N_unconstrained_atoms>  (50) 
3.0

>  <runtime>  (50) 
47.401785

>  <LE>  (50) 
0.310613

>  <percent_hybrid>  (50) 
44.0

>  <dist>  (50) 
11.0

>  <ecfp4>  (50) 
0.208791

>  <daylight>  (50) 
0.274788

>  <topodist>  (50) 
4.0

>  <mces>  (50) 
25.0

>  <tdn>  (50) 
2.0

>  <tup>  (50) 
0.0

>  <rdn>  (50) 
1.0

>  <rup>  (50) 
1.0

>  <ldn>  (50) 
0.0

>  <lup>  (50) 
0.0

>  <mut>  (50) 
4.0

>  <maj>  (50) 
4.0

>  <min>  (50) 
0.0

>  <hyb>  (50) 
3.0

>  <sub>  (50) 
2.0

>  <query_index>  (50) 
24.0

>  <max_hit_Tanimoto>  (50) 
0.324171

>  <largest_ring>  (50) 
6

>  <N_interactions_kept>  (50) 
2.0

>  <N_interactions_lost>  (50) 
1.5

>  <interaction_uniqueness_metric>  (50) 
0.164319

>  <ad_hoc_penalty>  (50) 
-32.962704

>  <N_rotatable_bonds>  (50) 
6

>  <N_HA>  (50) 
23

>  <cluster>  (50) 
6158

>  <N_interactions>  (50) 
8

>  <Enamine>  (50) 
0

>  <Mcule>  (50) 
1

>  <N_PAINS>  (50) 
0

>  <UFF_Gibbs>  (50) 
129.366425

>  <strain_per_HA>  (50) 
4.975632

>  <saltbridge:HIS:51>  (50) 
0

>  <pistack:HIS:51>  (50) 
1

>  <hydroph_interaction:HIS:51>  (50) 
1

>  <hbond:ALA:132>  (50) 
0

>  <hbond:SER:135>  (50) 
0

>  <hydroph_interaction:TYR:150>  (50) 
1

>  <pistack:TYR:161>  (50) 
2

>  <hydroph_interaction:TYR:161>  (50) 
1

>  <hydroph_interaction:ASP:83>  (50) 
0

>  <hbond:TYR:130>  (50) 
0

>  <hydroph_interaction:ALA:132>  (50) 
1

>  <hbond:HIS:51>  (50) 
0

>  <hbond:ASP:129>  (50) 
0

>  <hbond:TYR:150>  (50) 
0

>  <hbond:GLY:151>  (50) 
0

>  <hbond:TYR:161>  (50) 
0

>  <hydroph_interaction:TYR:130>  (50) 
0

>  <hydroph_interaction:PRO:131>  (50) 
0

>  <hydroph_interaction:ASP:129>  (50) 
0

>  <saltbridge:ASP:75>  (50) 
0

>  <saltbridge:ASP:83>  (50) 
0

>  <hydroph_interaction:ASN:152>  (50) 
0

>  <halogenbond:TYR:150>  (50) 
0

>  <hbond:ASP:83>  (50) 
0

>  <hydroph_interaction:VAL:155>  (50) 
1

>  <pication:TYR:161>  (50) 
0

>  <hbond:PRO:131>  (50) 
0

>  <hbond:LEU:128>  (50) 
0

>  <saltbridge:ASP:129>  (50) 
0

>  <hbond:THR:134>  (50) 
0

>  <pication:HIS:51>  (50) 
0

>  <hbond:SER:81>  (50) 
0

>  <hbond:GLY:159>  (50) 
0

>  <hydroph_interaction:PRO:101>  (50) 
0

>  <hydroph_interaction:THR:134>  (50) 
0

>  <hbond:GLY:82>  (50) 
0

>  <hydroph_interaction:GLU:104>  (50) 
0

>  <hydroph_interaction:VAL:36>  (50) 
0

>  <hydroph_interaction:MET:49>  (50) 
0

>  <halogenbond:GLU:104>  (50) 
0

>  <hydroph_interaction:LYS:107>  (50) 
0

$$$$
Z2928553930
     RDKit          3D

 46 49  0  0  0  0  0  0  0  0999 V2000
   -7.3429    6.6896  -20.3098 Cl  0  0  0  0  0  0  0  0  0  0  0  0
   -8.0449    5.7271  -19.0140 C   0  0  0  0  0  0  0  0  0  0  0  0
   -8.8779    4.6591  -19.3590 C   0  0  0  0  0  0  0  0  0  0  0  0
   -9.4680    3.8920  -18.3549 C   0  0  0  0  0  0  0  0  0  0  0  0
   -9.2394    4.1869  -17.0493 N   0  0  0  0  0  0  0  0  0  0  0  0
   -8.4276    5.2145  -16.6738 C   0  0  0  0  0  0  0  0  0  0  0  0
   -7.8001    6.0043  -17.6535 C   0  0  0  0  0  0  0  0  0  0  0  0
   -6.9375    7.1510  -17.1884 C   0  0  0  0  0  0  0  0  0  0  0  0
   -6.0259    6.7201  -16.0252 C   0  0  0  0  0  0  0  0  0  0  0  0
   -6.6975    5.7888  -14.9812 C   0  0  0  0  0  0  0  0  0  0  0  0
   -8.2108    5.5555  -15.2125 C   0  0  0  0  0  0  0  0  0  0  0  0
   -8.7234    4.4838  -14.3310 N   0  0  0  0  0  0  0  0  0  0  0  0
   -8.7235    4.8615  -12.9049 C   0  0  0  0  0  0  0  0  0  0  0  0
   -7.6965    4.0183  -12.1478 C   0  0  0  0  0  0  0  0  0  0  0  0
   -7.6626    4.4001  -10.6986 C   0  0  0  0  0  0  0  0  0  0  0  0
   -8.4757    3.9491   -9.6785 C   0  0  0  0  0  0  0  0  0  0  0  0
   -9.6059    2.9653   -9.7601 C   0  0  0  0  0  0  0  0  0  0  0  0
  -10.0268    2.5169   -8.3516 C   0  0  0  0  0  0  0  0  0  0  0  0
  -10.1471    3.7140   -7.3937 C   0  0  0  0  0  0  0  0  0  0  0  0
   -8.8006    4.4438   -7.2566 C   0  0  0  0  0  0  0  0  0  0  0  0
   -8.1930    4.6549   -8.5691 N   0  0  0  0  0  0  0  0  0  0  0  0
   -7.2196    5.5173   -8.8161 N   0  0  0  0  0  0  0  0  0  0  0  0
   -6.8866    5.3900  -10.1182 C   0  0  0  0  0  0  0  0  0  0  0  0
   -9.0729    4.4276  -20.3985 H   0  0  0  0  0  0  0  0  0  0  0  0
  -10.1169    3.0660  -18.6136 H   0  0  0  0  0  0  0  0  0  0  0  0
   -6.2982    7.5492  -18.0028 H   0  0  0  0  0  0  0  0  0  0  0  0
   -7.6016    7.9753  -16.8492 H   0  0  0  0  0  0  0  0  0  0  0  0
   -5.6469    7.6343  -15.5179 H   0  0  0  0  0  0  0  0  0  0  0  0
   -5.1393    6.1978  -16.4482 H   0  0  0  0  0  0  0  0  0  0  0  0
   -6.1814    4.8032  -15.0026 H   0  0  0  0  0  0  0  0  0  0  0  0
   -6.5328    6.2206  -13.9712 H   0  0  0  0  0  0  0  0  0  0  0  0
   -8.7616    6.5024  -15.0081 H   0  0  0  0  0  0  0  0  0  0  0  0
   -9.7211    4.2985  -14.5913 H   0  0  0  0  0  0  0  0  0  0  0  0
   -9.7282    4.6685  -12.4630 H   0  0  0  0  0  0  0  0  0  0  0  0
   -8.5157    5.9448  -12.7510 H   0  0  0  0  0  0  0  0  0  0  0  0
   -6.6862    4.1651  -12.5839 H   0  0  0  0  0  0  0  0  0  0  0  0
   -7.9529    2.9418  -12.2451 H   0  0  0  0  0  0  0  0  0  0  0  0
   -9.2978    2.0787  -10.3539 H   0  0  0  0  0  0  0  0  0  0  0  0
  -10.4670    3.4514  -10.2662 H   0  0  0  0  0  0  0  0  0  0  0  0
   -9.2771    1.7992   -7.9513 H   0  0  0  0  0  0  0  0  0  0  0  0
  -11.0040    1.9910   -8.4111 H   0  0  0  0  0  0  0  0  0  0  0  0
  -10.4780    3.3594   -6.3939 H   0  0  0  0  0  0  0  0  0  0  0  0
  -10.9138    4.4206   -7.7808 H   0  0  0  0  0  0  0  0  0  0  0  0
   -8.1106    3.8344   -6.6340 H   0  0  0  0  0  0  0  0  0  0  0  0
   -8.9580    5.4220   -6.7538 H   0  0  0  0  0  0  0  0  0  0  0  0
   -6.1382    5.9913  -10.6170 H   0  0  0  0  0  0  0  0  0  0  0  0
  1  2  1  0
  2  3  2  0
  3  4  1  0
  4  5  2  0
  5  6  1  0
  6  7  2  0
  7  8  1  0
  8  9  1  0
  9 10  1  0
 10 11  1  0
 11 12  1  0
 12 13  1  0
 13 14  1  0
 14 15  1  0
 15 16  2  0
 16 17  1  0
 17 18  1  0
 18 19  1  0
 19 20  1  0
 20 21  1  0
 21 22  1  0
 22 23  2  0
  7  2  1  0
 11  6  1  0
 23 15  1  0
 21 16  1  0
  3 24  1  0
  4 25  1  0
  8 26  1  0
  8 27  1  0
  9 28  1  0
  9 29  1  0
 10 30  1  0
 10 31  1  0
 11 32  1  0
 12 33  1  0
 13 34  1  0
 13 35  1  0
 14 36  1  0
 14 37  1  0
 17 38  1  0
 17 39  1  0
 18 40  1  0
 18 41  1  0
 19 42  1  0
 19 43  1  0
 20 44  1  0
 20 45  1  0
 23 46  1  0
A    1
CL1 
A    2
 C1 
A    3
 C2 
A    4
 C3 
A    5
 N1 
A    6
 C4 
A    7
 C5 
A    8
 C6 
A    9
 C7 
A   10
 C8 
A   11
 C9 
A   12
 N2 
A   13
 C10
A   14
 C11
A   15
 C12
A   16
 C13
A   17
 C14
A   18
 C15
A   19
 C16
A   20
 C17
A   21
 N3 
A   22
 N4 
A   23
 C18
A   24
 H1 
A   25
 H2 
A   26
 H3 
A   27
 H4 
A   28
 H5 
A   29
 H6 
A   30
 H7 
A   31
 H8 
A   32
 H9 
A   33
 H10
A   34
 H11
A   35
 H12
A   36
 H13
A   37
 H14
A   38
 H15
A   39
 H16
A   40
 H17
A   41
 H18
A   42
 H19
A   43
 H20
A   44
 H21
A   45
 H22
A   46
 H23
M  END
>  <ref_pdb>  (51) 
x0051_0B

>  <ref_mols>  (51) 
x0969_1B,x0455_0B

>  <original SMILES>  (51) 
[H]c1nc2c(c(Cl)c1[H])C([H])([H])C([H])([H])C([H])([H])C2([H])N([H])C([H])([H])C([H])([H])c1c([H])nn2c1C([H])([H])C([H])([H])C([H])([H])C2([H])[H]

>  <index>  (51) 
46

>  <∆∆G>  (51) 
-6.427274

>  <∆G_bound>  (51) 
-5.439526

>  <∆G_unbound>  (51) 
0.987748

>  <comRMSD>  (51) 
0.436915

>  <N_constrained_atoms>  (51) 
20.0

>  <N_unconstrained_atoms>  (51) 
3.0

>  <runtime>  (51) 
57.592115

>  <LE>  (51) 
0.279447

>  <percent_hybrid>  (51) 
50.0

>  <dist>  (51) 
5.0

>  <ecfp4>  (51) 
0.317073

>  <daylight>  (51) 
0.339726

>  <topodist>  (51) 
1.0

>  <mces>  (51) 
25.0

>  <tdn>  (51) 
0.0

>  <tup>  (51) 
1.0

>  <rdn>  (51) 
0.0

>  <rup>  (51) 
0.0

>  <ldn>  (51) 
0.0

>  <lup>  (51) 
0.0

>  <mut>  (51) 
4.0

>  <maj>  (51) 
4.0

>  <min>  (51) 
0.0

>  <hyb>  (51) 
0.0

>  <sub>  (51) 
1.0

>  <query_index>  (51) 
204.0

>  <max_hit_Tanimoto>  (51) 
0.311828

>  <largest_ring>  (51) 
6

>  <N_interactions_kept>  (51) 
1.5

>  <N_interactions_lost>  (51) 
1.0

>  <interaction_uniqueness_metric>  (51) 
0.210027

>  <ad_hoc_penalty>  (51) 
-32.930735

>  <N_rotatable_bonds>  (51) 
4

>  <N_HA>  (51) 
23

>  <cluster>  (51) 
6174

>  <N_interactions>  (51) 
7

>  <Enamine>  (51) 
1

>  <Mcule>  (51) 
0

>  <N_PAINS>  (51) 
0

>  <UFF_Gibbs>  (51) 
146.359562

>  <strain_per_HA>  (51) 
6.363459

>  <saltbridge:HIS:51>  (51) 
0

>  <pistack:HIS:51>  (51) 
1

>  <hydroph_interaction:HIS:51>  (51) 
0

>  <hbond:ALA:132>  (51) 
0

>  <hbond:SER:135>  (51) 
0

>  <hydroph_interaction:TYR:150>  (51) 
1

>  <pistack:TYR:161>  (51) 
1

>  <hydroph_interaction:TYR:161>  (51) 
1

>  <hydroph_interaction:ASP:83>  (51) 
1

>  <hbond:TYR:130>  (51) 
0

>  <hydroph_interaction:ALA:132>  (51) 
1

>  <hbond:HIS:51>  (51) 
0

>  <hbond:ASP:129>  (51) 
0

>  <hbond:TYR:150>  (51) 
0

>  <hbond:GLY:151>  (51) 
1

>  <hbond:TYR:161>  (51) 
0

>  <hydroph_interaction:TYR:130>  (51) 
0

>  <hydroph_interaction:PRO:131>  (51) 
0

>  <hydroph_interaction:ASP:129>  (51) 
0

>  <saltbridge:ASP:75>  (51) 
0

>  <saltbridge:ASP:83>  (51) 
0

>  <hydroph_interaction:ASN:152>  (51) 
0

>  <halogenbond:TYR:150>  (51) 
0

>  <hbond:ASP:83>  (51) 
0

>  <hydroph_interaction:VAL:155>  (51) 
0

>  <pication:TYR:161>  (51) 
0

>  <hbond:PRO:131>  (51) 
0

>  <hbond:LEU:128>  (51) 
0

>  <saltbridge:ASP:129>  (51) 
0

>  <hbond:THR:134>  (51) 
0

>  <pication:HIS:51>  (51) 
0

>  <hbond:SER:81>  (51) 
0

>  <hbond:GLY:159>  (51) 
0

>  <hydroph_interaction:PRO:101>  (51) 
0

>  <hydroph_interaction:THR:134>  (51) 
0

>  <hbond:GLY:82>  (51) 
0

>  <hydroph_interaction:GLU:104>  (51) 
0

>  <hydroph_interaction:VAL:36>  (51) 
0

>  <hydroph_interaction:MET:49>  (51) 
0

>  <halogenbond:GLU:104>  (51) 
0

>  <hydroph_interaction:LYS:107>  (51) 
0

$$$$
Z4385449583
     RDKit          3D

 42 45  0  0  0  0  0  0  0  0999 V2000
   -9.9257    5.2304  -17.9902 C   0  0  0  0  0  0  0  0  0  0  0  0
   -9.1721    5.7078  -16.8354 N   0  0  0  0  0  0  0  0  0  0  0  0
   -9.7319    6.0031  -15.6766 N   0  0  0  0  0  0  0  0  0  0  0  0
   -8.7186    6.3567  -14.8628 C   0  0  0  0  0  0  0  0  0  0  0  0
   -8.9004    6.7016  -13.4239 C   0  0  0  0  0  0  0  0  0  0  0  0
   -8.7962    5.5178  -12.6425 O   0  0  0  0  0  0  0  0  0  0  0  0
   -8.9206    5.5188  -11.2510 C   0  0  0  0  0  0  0  0  0  0  0  0
   -8.8350    4.4246  -10.4257 C   0  0  0  0  0  0  0  0  0  0  0  0
   -8.6708    2.9864  -10.8119 C   0  0  0  0  0  0  0  0  0  0  0  0
   -8.2839    2.1473   -9.5833 C   0  0  0  0  0  0  0  0  0  0  0  0
   -9.1522    2.5029   -8.3638 C   0  0  0  0  0  0  0  0  0  0  0  0
   -8.9796    3.9822   -7.9780 C   0  0  0  0  0  0  0  0  0  0  0  0
   -9.0483    4.8352   -9.1630 N   0  0  0  0  0  0  0  0  0  0  0  0
   -9.2242    6.1484   -9.1365 N   0  0  0  0  0  0  0  0  0  0  0  0
   -9.1584    6.5945  -10.4103 C   0  0  0  0  0  0  0  0  0  0  0  0
   -7.5115    6.2770  -15.4632 N   0  0  0  0  0  0  0  0  0  0  0  0
   -7.8379    5.8855  -16.7122 C   0  0  0  0  0  0  0  0  0  0  0  0
   -6.8267    5.6467  -17.7651 C   0  0  0  0  0  0  0  0  0  0  0  0
   -5.6015    5.0474  -17.4264 C   0  0  0  0  0  0  0  0  0  0  0  0
   -4.6265    4.8295  -18.4048 C   0  0  0  0  0  0  0  0  0  0  0  0
   -4.8600    5.2208  -19.7253 C   0  0  0  0  0  0  0  0  0  0  0  0
   -6.0656    5.8380  -20.0676 C   0  0  0  0  0  0  0  0  0  0  0  0
   -7.0437    6.0570  -19.0923 C   0  0  0  0  0  0  0  0  0  0  0  0
   -9.3420    4.4657  -18.5446 H   0  0  0  0  0  0  0  0  0  0  0  0
  -10.8757    4.7634  -17.6543 H   0  0  0  0  0  0  0  0  0  0  0  0
  -10.1676    6.0825  -18.6583 H   0  0  0  0  0  0  0  0  0  0  0  0
   -9.9003    7.1642  -13.2765 H   0  0  0  0  0  0  0  0  0  0  0  0
   -8.1168    7.4271  -13.1157 H   0  0  0  0  0  0  0  0  0  0  0  0
   -9.6330    2.6163  -11.2264 H   0  0  0  0  0  0  0  0  0  0  0  0
   -7.8865    2.8909  -11.5930 H   0  0  0  0  0  0  0  0  0  0  0  0
   -8.4058    1.0691   -9.8227 H   0  0  0  0  0  0  0  0  0  0  0  0
   -7.2136    2.3233   -9.3363 H   0  0  0  0  0  0  0  0  0  0  0  0
  -10.2203    2.3046   -8.6017 H   0  0  0  0  0  0  0  0  0  0  0  0
   -8.8659    1.8613   -7.5029 H   0  0  0  0  0  0  0  0  0  0  0  0
   -9.7747    4.2738   -7.2588 H   0  0  0  0  0  0  0  0  0  0  0  0
   -7.9920    4.1239   -7.4887 H   0  0  0  0  0  0  0  0  0  0  0  0
   -9.2771    7.6297  -10.7005 H   0  0  0  0  0  0  0  0  0  0  0  0
   -5.4050    4.7370  -16.4073 H   0  0  0  0  0  0  0  0  0  0  0  0
   -3.6892    4.3584  -18.1385 H   0  0  0  0  0  0  0  0  0  0  0  0
   -4.1037    5.0536  -20.4812 H   0  0  0  0  0  0  0  0  0  0  0  0
   -6.2390    6.1557  -21.0877 H   0  0  0  0  0  0  0  0  0  0  0  0
   -7.9526    6.5709  -19.3723 H   0  0  0  0  0  0  0  0  0  0  0  0
  1  2  1  0
  2  3  1  0
  3  4  2  0
  4  5  1  0
  5  6  1  0
  6  7  1  0
  7  8  2  0
  8  9  1  0
  9 10  1  0
 10 11  1  0
 11 12  1  0
 12 13  1  0
 13 14  1  0
 14 15  2  0
  4 16  1  0
 16 17  2  0
 17 18  1  0
 18 19  2  0
 19 20  1  0
 20 21  2  0
 21 22  1  0
 22 23  2  0
 17  2  1  0
 15  7  1  0
 13  8  1  0
 23 18  1  0
  1 24  1  0
  1 25  1  0
  1 26  1  0
  5 27  1  0
  5 28  1  0
  9 29  1  0
  9 30  1  0
 10 31  1  0
 10 32  1  0
 11 33  1  0
 11 34  1  0
 12 35  1  0
 12 36  1  0
 15 37  1  0
 19 38  1  0
 20 39  1  0
 21 40  1  0
 22 41  1  0
 23 42  1  0
A    1
 C1 
A    2
 N1 
A    3
 N2 
A    4
 C2 
A    5
 C3 
A    6
 O1 
A    7
 C4 
A    8
 C5 
A    9
 C6 
A   10
 C7 
A   11
 C8 
A   12
 C9 
A   13
 N3 
A   14
 N4 
A   15
 C10
A   16
 N5 
A   17
 C11
A   18
 C12
A   19
 C13
A   20
 C14
A   21
 C15
A   22
 C16
A   23
 C17
A   24
 H1 
A   25
 H2 
A   26
 H3 
A   27
 H4 
A   28
 H5 
A   29
 H6 
A   30
 H7 
A   31
 H8 
A   32
 H9 
A   33
 H10
A   34
 H11
A   35
 H12
A   36
 H13
A   37
 H14
A   38
 H15
A   39
 H16
A   40
 H17
A   41
 H18
A   42
 H19
M  END
>  <ref_pdb>  (52) 
x0051_0B

>  <ref_mols>  (52) 
x0969_1B,x0803_0B

>  <original SMILES>  (52) 
[H]c1nn2c(c1OC([H])([H])c1nc(-c3c([H])c([H])c([H])c([H])c3[H])n(C([H])([H])[H])n1)C([H])([H])C([H])([H])C([H])([H])C2([H])[H]

>  <index>  (52) 
98

>  <∆∆G>  (52) 
-7.87327

>  <∆G_bound>  (52) 
-7.761464

>  <∆G_unbound>  (52) 
0.111806

>  <comRMSD>  (52) 
0.628471

>  <N_constrained_atoms>  (52) 
22.0

>  <N_unconstrained_atoms>  (52) 
1.0

>  <runtime>  (52) 
83.598682

>  <LE>  (52) 
0.342316

>  <percent_hybrid>  (52) 
46.0

>  <dist>  (52) 
11.0

>  <ecfp4>  (52) 
0.192771

>  <daylight>  (52) 
0.257485

>  <topodist>  (52) 
1.0

>  <mces>  (52) 
26.0

>  <tdn>  (52) 
0.0

>  <tup>  (52) 
0.0

>  <rdn>  (52) 
0.0

>  <rup>  (52) 
0.0

>  <ldn>  (52) 
1.0

>  <lup>  (52) 
0.0

>  <mut>  (52) 
5.0

>  <maj>  (52) 
5.0

>  <min>  (52) 
0.0

>  <hyb>  (52) 
5.0

>  <sub>  (52) 
0.0

>  <query_index>  (52) 
360.0

>  <max_hit_Tanimoto>  (52) 
0.243197

>  <largest_ring>  (52) 
6

>  <N_interactions_kept>  (52) 
5.0

>  <N_interactions_lost>  (52) 
1.0

>  <interaction_uniqueness_metric>  (52) 
0.150876

>  <ad_hoc_penalty>  (52) 
-32.791587

>  <N_rotatable_bonds>  (52) 
5

>  <N_HA>  (52) 
23

>  <cluster>  (52) 
6126

>  <N_interactions>  (52) 
6

>  <Enamine>  (52) 
1

>  <Mcule>  (52) 
0

>  <N_PAINS>  (52) 
0

>  <UFF_Gibbs>  (52) 
68.745637

>  <strain_per_HA>  (52) 
2.988941

>  <saltbridge:HIS:51>  (52) 
0

>  <pistack:HIS:51>  (52) 
1

>  <hydroph_interaction:HIS:51>  (52) 
0

>  <hbond:ALA:132>  (52) 
0

>  <hbond:SER:135>  (52) 
0

>  <hydroph_interaction:TYR:150>  (52) 
0

>  <pistack:TYR:161>  (52) 
0

>  <hydroph_interaction:TYR:161>  (52) 
3

>  <hydroph_interaction:ASP:83>  (52) 
1

>  <hbond:TYR:130>  (52) 
0

>  <hydroph_interaction:ALA:132>  (52) 
1

>  <hbond:HIS:51>  (52) 
0

>  <hbond:ASP:129>  (52) 
0

>  <hbond:TYR:150>  (52) 
0

>  <hbond:GLY:151>  (52) 
0

>  <hbond:TYR:161>  (52) 
0

>  <hydroph_interaction:TYR:130>  (52) 
0

>  <hydroph_interaction:PRO:131>  (52) 
0

>  <hydroph_interaction:ASP:129>  (52) 
0

>  <saltbridge:ASP:75>  (52) 
0

>  <saltbridge:ASP:83>  (52) 
0

>  <hydroph_interaction:ASN:152>  (52) 
0

>  <halogenbond:TYR:150>  (52) 
0

>  <hbond:ASP:83>  (52) 
0

>  <hydroph_interaction:VAL:155>  (52) 
0

>  <pication:TYR:161>  (52) 
0

>  <hbond:PRO:131>  (52) 
0

>  <hbond:LEU:128>  (52) 
0

>  <saltbridge:ASP:129>  (52) 
0

>  <hbond:THR:134>  (52) 
0

>  <pication:HIS:51>  (52) 
0

>  <hbond:SER:81>  (52) 
0

>  <hbond:GLY:159>  (52) 
0

>  <hydroph_interaction:PRO:101>  (52) 
0

>  <hydroph_interaction:THR:134>  (52) 
0

>  <hbond:GLY:82>  (52) 
0

>  <hydroph_interaction:GLU:104>  (52) 
0

>  <hydroph_interaction:VAL:36>  (52) 
0

>  <hydroph_interaction:MET:49>  (52) 
0

>  <halogenbond:GLU:104>  (52) 
0

>  <hydroph_interaction:LYS:107>  (52) 
0

$$$$
HRTZYBSWNCYMCS-UHFFFAOYSA-N
     RDKit          3D

 39 41  0  0  0  0  0  0  0  0999 V2000
   -8.6442    6.1289  -14.2101 C   0  0  0  0  0  0  0  0  0  0  0  0
   -9.0520    5.3106  -15.3197 N   0  0  0  0  0  0  0  0  0  0  0  0
   -8.6581    5.5565  -16.6810 C   0  0  0  0  0  0  0  0  0  0  0  0
   -9.5109    5.1682  -17.7268 C   0  0  0  0  0  0  0  0  0  0  0  0
   -9.1394    5.3779  -19.0583 C   0  0  0  0  0  0  0  0  0  0  0  0
   -7.9072    5.9642  -19.3576 C   0  0  0  0  0  0  0  0  0  0  0  0
   -7.0410    6.3353  -18.3256 C   0  0  0  0  0  0  0  0  0  0  0  0
   -5.8378    6.8876  -18.6178 F   0  0  0  0  0  0  0  0  0  0  0  0
   -7.4096    6.1279  -16.9921 C   0  0  0  0  0  0  0  0  0  0  0  0
   -8.2724    7.3173  -14.4139 O   0  0  0  0  0  0  0  0  0  0  0  0
   -8.7032    5.6112  -12.8213 C   0  0  0  0  0  0  0  0  0  0  0  0
   -8.7050    6.5022  -11.7335 C   0  0  0  0  0  0  0  0  0  0  0  0
   -8.7543    6.0225  -10.4218 C   0  0  0  0  0  0  0  0  0  0  0  0
   -8.7933    4.6431  -10.1690 C   0  0  0  0  0  0  0  0  0  0  0  0
   -8.8486    4.1553   -8.8145 N   0  0  0  0  0  0  0  0  0  0  0  0
   -9.6920    3.0052   -8.4754 C   0  0  0  0  0  0  0  0  0  0  0  0
  -10.1239    3.0977   -7.0086 C   0  0  0  0  0  0  0  0  0  0  0  0
   -9.0020    3.2725   -6.1635 O   0  0  0  0  0  0  0  0  0  0  0  0
   -8.3870    4.5180   -6.4351 C   0  0  0  0  0  0  0  0  0  0  0  0
   -7.8104    4.5421   -7.8538 C   0  0  0  0  0  0  0  0  0  0  0  0
   -8.7868    3.7505  -11.2532 C   0  0  0  0  0  0  0  0  0  0  0  0
   -8.7375    4.2288  -12.5657 C   0  0  0  0  0  0  0  0  0  0  0  0
   -9.7634    4.5655  -15.1446 H   0  0  0  0  0  0  0  0  0  0  0  0
  -10.4679    4.7110  -17.5085 H   0  0  0  0  0  0  0  0  0  0  0  0
   -9.8063    5.0836  -19.8584 H   0  0  0  0  0  0  0  0  0  0  0  0
   -7.6213    6.1235  -20.3894 H   0  0  0  0  0  0  0  0  0  0  0  0
   -6.7112    6.3921  -16.2092 H   0  0  0  0  0  0  0  0  0  0  0  0
   -8.6819    7.5726  -11.8964 H   0  0  0  0  0  0  0  0  0  0  0  0
   -8.7806    6.7298   -9.6028 H   0  0  0  0  0  0  0  0  0  0  0  0
  -10.5988    2.9856   -9.1187 H   0  0  0  0  0  0  0  0  0  0  0  0
   -9.1173    2.0670   -8.6343 H   0  0  0  0  0  0  0  0  0  0  0  0
  -10.6345    2.1526   -6.7276 H   0  0  0  0  0  0  0  0  0  0  0  0
  -10.8620    3.9210   -6.8716 H   0  0  0  0  0  0  0  0  0  0  0  0
   -9.1029    5.3597   -6.2920 H   0  0  0  0  0  0  0  0  0  0  0  0
   -7.5585    4.6683   -5.7113 H   0  0  0  0  0  0  0  0  0  0  0  0
   -7.4189    5.5588   -8.0686 H   0  0  0  0  0  0  0  0  0  0  0  0
   -6.9659    3.8226   -7.9224 H   0  0  0  0  0  0  0  0  0  0  0  0
   -8.8014    2.6816  -11.0837 H   0  0  0  0  0  0  0  0  0  0  0  0
   -8.7052    3.5118  -13.3753 H   0  0  0  0  0  0  0  0  0  0  0  0
  1  2  1  0
  2  3  1  0
  3  4  2  0
  4  5  1  0
  5  6  2  0
  6  7  1  0
  7  8  1  0
  7  9  2  0
  1 10  2  0
  1 11  1  0
 11 12  2  0
 12 13  1  0
 13 14  2  0
 14 15  1  0
 15 16  1  0
 16 17  1  0
 17 18  1  0
 18 19  1  0
 19 20  1  0
 14 21  1  0
 21 22  2  0
  9  3  1  0
 22 11  1  0
 20 15  1  0
  2 23  1  0
  4 24  1  0
  5 25  1  0
  6 26  1  0
  9 27  1  0
 12 28  1  0
 13 29  1  0
 16 30  1  0
 16 31  1  0
 17 32  1  0
 17 33  1  0
 19 34  1  0
 19 35  1  0
 20 36  1  0
 20 37  1  0
 21 38  1  0
 22 39  1  0
A    1
 C1 
A    2
 N1 
A    3
 C2 
A    4
 C3 
A    5
 C4 
A    6
 C5 
A    7
 C6 
A    8
 F1 
A    9
 C7 
A   10
 O1 
A   11
 C8 
A   12
 C9 
A   13
 C10
A   14
 C11
A   15
 N2 
A   16
 C12
A   17
 C13
A   18
 O2 
A   19
 C14
A   20
 C15
A   21
 C16
A   22
 C17
A   23
 H1 
A   24
 H2 
A   25
 H3 
A   26
 H4 
A   27
 H5 
A   28
 H6 
A   29
 H7 
A   30
 H8 
A   31
 H9 
A   32
 H10
A   33
 H11
A   34
 H12
A   35
 H13
A   36
 H14
A   37
 H15
A   38
 H16
A   39
 H17
M  END
>  <ref_pdb>  (53) 
x0051_0B

>  <ref_mols>  (53) 
x0589_0B,x0404_0B

>  <original SMILES>  (53) 
[H]c1c([H])c(F)c([H])c(N([H])C(=O)c2c([H])c([H])c(N3C([H])([H])C([H])([H])OC([H])([H])C3([H])[H])c([H])c2[H])c1[H]

>  <index>  (53) 
64

>  <∆∆G>  (53) 
-6.462391

>  <∆G_bound>  (53) 
-6.079571

>  <∆G_unbound>  (53) 
0.38282

>  <comRMSD>  (53) 
0.535944

>  <N_constrained_atoms>  (53) 
23.0

>  <N_unconstrained_atoms>  (53) 
0.0

>  <runtime>  (53) 
70.229324

>  <LE>  (53) 
0.280974

>  <percent_hybrid>  (53) 
35.0

>  <dist>  (53) 
7.0

>  <ecfp4>  (53) 
0.2

>  <daylight>  (53) 
0.205263

>  <topodist>  (53) 
3.0

>  <mces>  (53) 
24.0

>  <tdn>  (53) 
2.0

>  <tup>  (53) 
0.0

>  <rdn>  (53) 
0.0

>  <rup>  (53) 
0.0

>  <ldn>  (53) 
1.0

>  <lup>  (53) 
0.0

>  <mut>  (53) 
3.0

>  <maj>  (53) 
2.0

>  <min>  (53) 
1.0

>  <hyb>  (53) 
1.0

>  <sub>  (53) 
1.0

>  <query_index>  (53) 
29.0

>  <max_hit_Tanimoto>  (53) 
0.258958

>  <largest_ring>  (53) 
6

>  <N_interactions_kept>  (53) 
2.5

>  <N_interactions_lost>  (53) 
1.0

>  <interaction_uniqueness_metric>  (53) 
0.116623

>  <ad_hoc_penalty>  (53) 
-32.733274

>  <N_rotatable_bonds>  (53) 
3

>  <N_HA>  (53) 
22

>  <cluster>  (53) 
531

>  <N_interactions>  (53) 
6

>  <Enamine>  (53) 
0

>  <Mcule>  (53) 
1

>  <N_PAINS>  (53) 
0

>  <UFF_Gibbs>  (53) 
111.442331

>  <strain_per_HA>  (53) 
4.845319

>  <saltbridge:HIS:51>  (53) 
0

>  <pistack:HIS:51>  (53) 
1

>  <hydroph_interaction:HIS:51>  (53) 
0

>  <hbond:ALA:132>  (53) 
0

>  <hbond:SER:135>  (53) 
0

>  <hydroph_interaction:TYR:150>  (53) 
1

>  <pistack:TYR:161>  (53) 
0

>  <hydroph_interaction:TYR:161>  (53) 
2

>  <hydroph_interaction:ASP:83>  (53) 
0

>  <hbond:TYR:130>  (53) 
0

>  <hydroph_interaction:ALA:132>  (53) 
1

>  <hbond:HIS:51>  (53) 
0

>  <hbond:ASP:129>  (53) 
0

>  <hbond:TYR:150>  (53) 
0

>  <hbond:GLY:151>  (53) 
1

>  <hbond:TYR:161>  (53) 
0

>  <hydroph_interaction:TYR:130>  (53) 
0

>  <hydroph_interaction:PRO:131>  (53) 
0

>  <hydroph_interaction:ASP:129>  (53) 
0

>  <saltbridge:ASP:75>  (53) 
0

>  <saltbridge:ASP:83>  (53) 
0

>  <hydroph_interaction:ASN:152>  (53) 
0

>  <halogenbond:TYR:150>  (53) 
0

>  <hbond:ASP:83>  (53) 
0

>  <hydroph_interaction:VAL:155>  (53) 
0

>  <pication:TYR:161>  (53) 
0

>  <hbond:PRO:131>  (53) 
0

>  <hbond:LEU:128>  (53) 
0

>  <saltbridge:ASP:129>  (53) 
0

>  <hbond:THR:134>  (53) 
0

>  <pication:HIS:51>  (53) 
0

>  <hbond:SER:81>  (53) 
0

>  <hbond:GLY:159>  (53) 
0

>  <hydroph_interaction:PRO:101>  (53) 
0

>  <hydroph_interaction:THR:134>  (53) 
0

>  <hbond:GLY:82>  (53) 
0

>  <hydroph_interaction:GLU:104>  (53) 
0

>  <hydroph_interaction:VAL:36>  (53) 
0

>  <hydroph_interaction:MET:49>  (53) 
0

>  <halogenbond:GLU:104>  (53) 
0

>  <hydroph_interaction:LYS:107>  (53) 
0

$$$$
CSSB00011808445
     RDKit          3D

 27 28  0  0  0  0  0  0  0  0999 V2000
   -3.2540    6.0863  -18.6916 C   0  0  0  0  0  0  0  0  0  0  0  0
   -4.4418    5.5625  -17.8904 C   0  0  0  0  0  0  0  0  0  0  0  0
   -5.5403    6.6215  -17.7714 C   0  0  0  0  0  0  0  0  0  0  0  0
   -6.6633    6.0970  -16.9973 N   0  0  0  0  0  0  0  0  0  0  0  0
   -6.8049    6.2818  -15.6895 N   0  0  0  0  0  0  0  0  0  0  0  0
   -7.9158    5.6202  -15.2834 C   0  0  0  0  0  0  0  0  0  0  0  0
   -8.3876    5.6020  -13.8864 C   0  0  0  0  0  0  0  0  0  0  0  0
   -7.6910    6.2878  -12.8945 O   0  0  0  0  0  0  0  0  0  0  0  0
   -9.4271    4.9660  -13.5725 O   0  0  0  0  0  0  0  0  0  0  0  0
   -8.4805    4.9894  -16.3827 C   0  0  0  0  0  0  0  0  0  0  0  0
   -9.6028    4.1741  -16.5440 C   0  0  0  0  0  0  0  0  0  0  0  0
   -9.8742    3.6824  -17.8343 C   0  0  0  0  0  0  0  0  0  0  0  0
   -9.0296    4.0082  -18.9188 C   0  0  0  0  0  0  0  0  0  0  0  0
   -7.9052    4.8312  -18.7255 C   0  0  0  0  0  0  0  0  0  0  0  0
   -7.6642    5.3083  -17.4350 C   0  0  0  0  0  0  0  0  0  0  0  0
   -3.5734    6.3605  -19.7197 H   0  0  0  0  0  0  0  0  0  0  0  0
   -2.8152    6.9770  -18.1934 H   0  0  0  0  0  0  0  0  0  0  0  0
   -2.4752    5.2978  -18.7600 H   0  0  0  0  0  0  0  0  0  0  0  0
   -4.0956    5.2723  -16.8746 H   0  0  0  0  0  0  0  0  0  0  0  0
   -4.8471    4.6585  -18.3943 H   0  0  0  0  0  0  0  0  0  0  0  0
   -5.1351    7.5245  -17.2644 H   0  0  0  0  0  0  0  0  0  0  0  0
   -5.8896    6.9290  -18.7809 H   0  0  0  0  0  0  0  0  0  0  0  0
   -6.8498    6.8128  -13.1012 H   0  0  0  0  0  0  0  0  0  0  0  0
  -10.2480    3.9189  -15.7153 H   0  0  0  0  0  0  0  0  0  0  0  0
  -10.7353    3.0473  -17.9964 H   0  0  0  0  0  0  0  0  0  0  0  0
   -9.2481    3.6209  -19.9054 H   0  0  0  0  0  0  0  0  0  0  0  0
   -7.2544    5.0788  -19.5533 H   0  0  0  0  0  0  0  0  0  0  0  0
  1  2  1  0
  2  3  1  0
  3  4  1  0
  4  5  1  0
  5  6  2  0
  6  7  1  0
  7  8  1  0
  7  9  2  0
  6 10  1  0
 10 11  2  0
 11 12  1  0
 12 13  2  0
 13 14  1  0
 14 15  2  0
 15  4  1  0
 15 10  1  0
  1 16  1  0
  1 17  1  0
  1 18  1  0
  2 19  1  0
  2 20  1  0
  3 21  1  0
  3 22  1  0
  8 23  1  0
 11 24  1  0
 12 25  1  0
 13 26  1  0
 14 27  1  0
A    1
 C1 
A    2
 C2 
A    3
 C3 
A    4
 N1 
A    5
 N2 
A    6
 C4 
A    7
 C5 
A    8
 O1 
A    9
 O2 
A   10
 C6 
A   11
 C7 
A   12
 C8 
A   13
 C9 
A   14
 C10
A   15
 C11
A   16
 H1 
A   17
 H2 
A   18
 H3 
A   19
 H4 
A   20
 H5 
A   21
 H6 
A   22
 H7 
A   23
 H8 
A   24
 H9 
A   25
 H10
A   26
 H11
A   27
 H12
M  END
>  <ref_pdb>  (54) 
x0051_0B

>  <ref_mols>  (54) 
x0951_0B,x0800_0B

>  <original SMILES>  (54) 
[H]OC(=O)c1nn(C([H])([H])C([H])([H])C([H])([H])[H])c2c([H])c([H])c([H])c([H])c12

>  <index>  (54) 
65

>  <∆∆G>  (54) 
-6.158311

>  <∆G_bound>  (54) 
-5.918086

>  <∆G_unbound>  (54) 
0.240225

>  <comRMSD>  (54) 
0.602813

>  <N_constrained_atoms>  (54) 
17.0

>  <N_unconstrained_atoms>  (54) 
1.0

>  <runtime>  (54) 
19.346815

>  <LE>  (54) 
0.342128

>  <percent_hybrid>  (54) 
50.0

>  <dist>  (54) 
4.0

>  <ecfp4>  (54) 
0.104478

>  <daylight>  (54) 
0.165877

>  <topodist>  (54) 
0.0

>  <mces>  (54) 
16.0

>  <tdn>  (54) 
0.0

>  <tup>  (54) 
0.0

>  <rdn>  (54) 
0.0

>  <rup>  (54) 
0.0

>  <ldn>  (54) 
0.0

>  <lup>  (54) 
0.0

>  <mut>  (54) 
4.0

>  <maj>  (54) 
4.0

>  <min>  (54) 
0.0

>  <hyb>  (54) 
0.0

>  <sub>  (54) 
0.0

>  <query_index>  (54) 
116.0

>  <max_hit_Tanimoto>  (54) 
0.162955

>  <largest_ring>  (54) 
6

>  <N_interactions_kept>  (54) 
2.0

>  <N_interactions_lost>  (54) 
1.5

>  <interaction_uniqueness_metric>  (54) 
0.182402

>  <ad_hoc_penalty>  (54) 
-32.714079

>  <N_rotatable_bonds>  (54) 
4

>  <N_HA>  (54) 
15

>  <cluster>  (54) 
6159

>  <N_interactions>  (54) 
8

>  <Enamine>  (54) 
1

>  <Mcule>  (54) 
0

>  <N_PAINS>  (54) 
0

>  <UFF_Gibbs>  (54) 
98.493149

>  <strain_per_HA>  (54) 
5.471842

>  <saltbridge:HIS:51>  (54) 
1

>  <pistack:HIS:51>  (54) 
0

>  <hydroph_interaction:HIS:51>  (54) 
0

>  <hbond:ALA:132>  (54) 
0

>  <hbond:SER:135>  (54) 
0

>  <hydroph_interaction:TYR:150>  (54) 
1

>  <pistack:TYR:161>  (54) 
0

>  <hydroph_interaction:TYR:161>  (54) 
4

>  <hydroph_interaction:ASP:83>  (54) 
0

>  <hbond:TYR:130>  (54) 
0

>  <hydroph_interaction:ALA:132>  (54) 
0

>  <hbond:HIS:51>  (54) 
0

>  <hbond:ASP:129>  (54) 
0

>  <hbond:TYR:150>  (54) 
0

>  <hbond:GLY:151>  (54) 
0

>  <hbond:TYR:161>  (54) 
2

>  <hydroph_interaction:TYR:130>  (54) 
0

>  <hydroph_interaction:PRO:131>  (54) 
0

>  <hydroph_interaction:ASP:129>  (54) 
0

>  <saltbridge:ASP:75>  (54) 
0

>  <saltbridge:ASP:83>  (54) 
0

>  <hydroph_interaction:ASN:152>  (54) 
0

>  <halogenbond:TYR:150>  (54) 
0

>  <hbond:ASP:83>  (54) 
0

>  <hydroph_interaction:VAL:155>  (54) 
0

>  <pication:TYR:161>  (54) 
0

>  <hbond:PRO:131>  (54) 
0

>  <hbond:LEU:128>  (54) 
0

>  <saltbridge:ASP:129>  (54) 
0

>  <hbond:THR:134>  (54) 
0

>  <pication:HIS:51>  (54) 
0

>  <hbond:SER:81>  (54) 
0

>  <hbond:GLY:159>  (54) 
0

>  <hydroph_interaction:PRO:101>  (54) 
0

>  <hydroph_interaction:THR:134>  (54) 
0

>  <hbond:GLY:82>  (54) 
0

>  <hydroph_interaction:GLU:104>  (54) 
0

>  <hydroph_interaction:VAL:36>  (54) 
0

>  <hydroph_interaction:MET:49>  (54) 
0

>  <halogenbond:GLU:104>  (54) 
0

>  <hydroph_interaction:LYS:107>  (54) 
0

$$$$
Z3537468943
     RDKit          3D

 43 46  0  0  0  0  0  0  0  0999 V2000
   -8.7428    4.4990  -13.4893 O   0  0  0  0  0  0  0  0  0  0  0  0
   -8.2416    5.6541  -13.5782 C   0  0  0  0  0  0  0  0  0  0  0  0
   -8.7145    6.7002  -12.7780 O   0  0  0  0  0  0  0  0  0  0  0  0
   -9.7414    6.5367  -11.8031 C   0  0  0  0  0  0  0  0  0  0  0  0
   -9.2361    5.7330  -10.6434 C   0  0  0  0  0  0  0  0  0  0  0  0
   -9.6656    4.4977  -10.2016 C   0  0  0  0  0  0  0  0  0  0  0  0
  -10.8135    3.6751  -10.7108 C   0  0  0  0  0  0  0  0  0  0  0  0
  -10.7303    2.2419  -10.1617 C   0  0  0  0  0  0  0  0  0  0  0  0
  -10.4129    2.2350   -8.6571 C   0  0  0  0  0  0  0  0  0  0  0  0
   -9.0570    2.9052   -8.3818 C   0  0  0  0  0  0  0  0  0  0  0  0
   -8.9472    4.1656   -9.1139 N   0  0  0  0  0  0  0  0  0  0  0  0
   -8.0472    5.1031   -8.8615 N   0  0  0  0  0  0  0  0  0  0  0  0
   -8.2088    6.0779   -9.7812 C   0  0  0  0  0  0  0  0  0  0  0  0
   -7.1185    5.9156  -14.5460 C   0  0  0  0  0  0  0  0  0  0  0  0
   -5.8668    5.1310  -14.0963 C   0  0  0  0  0  0  0  0  0  0  0  0
   -4.7788    5.1698  -15.1327 C   0  0  0  0  0  0  0  0  0  0  0  0
   -5.0708    5.1366  -16.4346 C   0  0  0  0  0  0  0  0  0  0  0  0
   -6.4703    5.2299  -16.8966 C   0  0  0  0  0  0  0  0  0  0  0  0
   -6.7781    5.0083  -18.2467 C   0  0  0  0  0  0  0  0  0  0  0  0
   -8.0914    5.1475  -18.7001 C   0  0  0  0  0  0  0  0  0  0  0  0
   -9.1006    5.5297  -17.8149 C   0  0  0  0  0  0  0  0  0  0  0  0
   -8.8040    5.7623  -16.4693 C   0  0  0  0  0  0  0  0  0  0  0  0
   -7.4927    5.5813  -15.9852 C   0  0  0  0  0  0  0  0  0  0  0  0
  -10.0448    7.5385  -11.4345 H   0  0  0  0  0  0  0  0  0  0  0  0
  -10.6330    6.0615  -12.2649 H   0  0  0  0  0  0  0  0  0  0  0  0
  -11.7637    4.1454  -10.3784 H   0  0  0  0  0  0  0  0  0  0  0  0
  -10.8010    3.6445  -11.8206 H   0  0  0  0  0  0  0  0  0  0  0  0
  -11.6974    1.7242  -10.3390 H   0  0  0  0  0  0  0  0  0  0  0  0
   -9.9384    1.6815  -10.7069 H   0  0  0  0  0  0  0  0  0  0  0  0
  -10.3892    1.1878   -8.2858 H   0  0  0  0  0  0  0  0  0  0  0  0
  -11.2135    2.7783   -8.1085 H   0  0  0  0  0  0  0  0  0  0  0  0
   -8.9496    3.0931   -7.2920 H   0  0  0  0  0  0  0  0  0  0  0  0
   -8.2373    2.2280   -8.7052 H   0  0  0  0  0  0  0  0  0  0  0  0
   -7.6149    6.9812   -9.8221 H   0  0  0  0  0  0  0  0  0  0  0  0
   -6.8739    7.0004  -14.5134 H   0  0  0  0  0  0  0  0  0  0  0  0
   -5.4804    5.5510  -13.1423 H   0  0  0  0  0  0  0  0  0  0  0  0
   -6.1282    4.0639  -13.9221 H   0  0  0  0  0  0  0  0  0  0  0  0
   -3.7444    5.1324  -14.8158 H   0  0  0  0  0  0  0  0  0  0  0  0
   -4.2662    5.0717  -17.1571 H   0  0  0  0  0  0  0  0  0  0  0  0
   -6.0007    4.7344  -18.9495 H   0  0  0  0  0  0  0  0  0  0  0  0
   -8.3243    4.9752  -19.7430 H   0  0  0  0  0  0  0  0  0  0  0  0
  -10.1134    5.6591  -18.1747 H   0  0  0  0  0  0  0  0  0  0  0  0
   -9.5989    6.0903  -15.8120 H   0  0  0  0  0  0  0  0  0  0  0  0
  1  2  2  0
  2  3  1  0
  3  4  1  0
  4  5  1  0
  5  6  2  0
  6  7  1  0
  7  8  1  0
  8  9  1  0
  9 10  1  0
 10 11  1  0
 11 12  1  0
 12 13  2  0
  2 14  1  0
 14 15  1  0
 15 16  1  0
 16 17  2  0
 17 18  1  0
 18 19  2  0
 19 20  1  0
 20 21  2  0
 21 22  1  0
 22 23  2  0
 13  5  1  0
 11  6  1  0
 23 14  1  0
 23 18  1  0
  4 24  1  0
  4 25  1  0
  7 26  1  0
  7 27  1  0
  8 28  1  0
  8 29  1  0
  9 30  1  0
  9 31  1  0
 10 32  1  0
 10 33  1  0
 13 34  1  0
 14 35  1  0
 15 36  1  0
 15 37  1  0
 16 38  1  0
 17 39  1  0
 19 40  1  0
 20 41  1  0
 21 42  1  0
 22 43  1  0
A    1
 O1 
A    2
 C1 
A    3
 O2 
A    4
 C2 
A    5
 C3 
A    6
 C4 
A    7
 C5 
A    8
 C6 
A    9
 C7 
A   10
 C8 
A   11
 N1 
A   12
 N2 
A   13
 C9 
A   14
 C10
A   15
 C11
A   16
 C12
A   17
 C13
A   18
 C14
A   19
 C15
A   20
 C16
A   21
 C17
A   22
 C18
A   23
 C19
A   24
 H1 
A   25
 H2 
A   26
 H3 
A   27
 H4 
A   28
 H5 
A   29
 H6 
A   30
 H7 
A   31
 H8 
A   32
 H9 
A   33
 H10
A   34
 H11
A   35
 H12
A   36
 H13
A   37
 H14
A   38
 H15
A   39
 H16
A   40
 H17
A   41
 H18
A   42
 H19
A   43
 H20
M  END
>  <ref_pdb>  (55) 
x0051_0B

>  <ref_mols>  (55) 
x0969_1B,x0455_0B

>  <original SMILES>  (55) 
[H]C1=C([H])C([H])([H])C([H])(C(=O)OC([H])([H])c2c([H])nn3c2C([H])([H])C([H])([H])C([H])([H])C3([H])[H])c2c([H])c([H])c([H])c([H])c21

>  <index>  (55) 
49

>  <∆∆G>  (55) 
-7.088228

>  <∆G_bound>  (55) 
-5.73358

>  <∆G_unbound>  (55) 
1.354648

>  <comRMSD>  (55) 
0.4074

>  <N_constrained_atoms>  (55) 
20.0

>  <N_unconstrained_atoms>  (55) 
3.0

>  <runtime>  (55) 
55.641556

>  <LE>  (55) 
0.308184

>  <percent_hybrid>  (55) 
50.0

>  <dist>  (55) 
6.0

>  <ecfp4>  (55) 
0.26506

>  <daylight>  (55) 
0.349711

>  <topodist>  (55) 
1.0

>  <mces>  (55) 
25.0

>  <tdn>  (55) 
0.0

>  <tup>  (55) 
1.0

>  <rdn>  (55) 
0.0

>  <rup>  (55) 
0.0

>  <ldn>  (55) 
0.0

>  <lup>  (55) 
0.0

>  <mut>  (55) 
3.0

>  <maj>  (55) 
3.0

>  <min>  (55) 
0.0

>  <hyb>  (55) 
2.0

>  <sub>  (55) 
0.0

>  <query_index>  (55) 
204.0

>  <max_hit_Tanimoto>  (55) 
0.305654

>  <largest_ring>  (55) 
6

>  <N_interactions_kept>  (55) 
1.0

>  <N_interactions_lost>  (55) 
1.5

>  <interaction_uniqueness_metric>  (55) 
0.215508

>  <ad_hoc_penalty>  (55) 
-32.68423

>  <N_rotatable_bonds>  (55) 
3

>  <N_HA>  (55) 
23

>  <cluster>  (55) 
6172

>  <N_interactions>  (55) 
7

>  <Enamine>  (55) 
1

>  <Mcule>  (55) 
0

>  <N_PAINS>  (55) 
0

>  <UFF_Gibbs>  (55) 
154.014227

>  <strain_per_HA>  (55) 
6.696271

>  <saltbridge:HIS:51>  (55) 
1

>  <pistack:HIS:51>  (55) 
0

>  <hydroph_interaction:HIS:51>  (55) 
1

>  <hbond:ALA:132>  (55) 
0

>  <hbond:SER:135>  (55) 
1

>  <hydroph_interaction:TYR:150>  (55) 
1

>  <pistack:TYR:161>  (55) 
1

>  <hydroph_interaction:TYR:161>  (55) 
2

>  <hydroph_interaction:ASP:83>  (55) 
0

>  <hbond:TYR:130>  (55) 
0

>  <hydroph_interaction:ALA:132>  (55) 
0

>  <hbond:HIS:51>  (55) 
0

>  <hbond:ASP:129>  (55) 
0

>  <hbond:TYR:150>  (55) 
0

>  <hbond:GLY:151>  (55) 
0

>  <hbond:TYR:161>  (55) 
0

>  <hydroph_interaction:TYR:130>  (55) 
0

>  <hydroph_interaction:PRO:131>  (55) 
0

>  <hydroph_interaction:ASP:129>  (55) 
0

>  <saltbridge:ASP:75>  (55) 
0

>  <saltbridge:ASP:83>  (55) 
0

>  <hydroph_interaction:ASN:152>  (55) 
0

>  <halogenbond:TYR:150>  (55) 
0

>  <hbond:ASP:83>  (55) 
0

>  <hydroph_interaction:VAL:155>  (55) 
0

>  <pication:TYR:161>  (55) 
0

>  <hbond:PRO:131>  (55) 
0

>  <hbond:LEU:128>  (55) 
0

>  <saltbridge:ASP:129>  (55) 
0

>  <hbond:THR:134>  (55) 
0

>  <pication:HIS:51>  (55) 
0

>  <hbond:SER:81>  (55) 
0

>  <hbond:GLY:159>  (55) 
0

>  <hydroph_interaction:PRO:101>  (55) 
0

>  <hydroph_interaction:THR:134>  (55) 
0

>  <hbond:GLY:82>  (55) 
0

>  <hydroph_interaction:GLU:104>  (55) 
0

>  <hydroph_interaction:VAL:36>  (55) 
0

>  <hydroph_interaction:MET:49>  (55) 
0

>  <halogenbond:GLU:104>  (55) 
0

>  <hydroph_interaction:LYS:107>  (55) 
0

$$$$
MCULE-8608536621
     RDKit          3D

 49 52  0  0  0  0  0  0  0  0999 V2000
   -4.5012    6.4686  -18.5763 N   0  0  0  0  0  0  0  0  0  0  0  0
   -4.3884    5.8143  -17.4591 C   0  0  0  0  0  0  0  0  0  0  0  0
   -3.2198    6.0409  -16.5134 C   0  0  0  0  0  0  0  0  0  0  0  0
   -1.9146    5.6366  -17.2247 C   0  0  0  0  0  0  0  0  0  0  0  0
   -3.3684    5.2045  -15.2248 C   0  0  0  0  0  0  0  0  0  0  0  0
   -3.1569    7.5336  -16.1311 C   0  0  0  0  0  0  0  0  0  0  0  0
   -5.5181    4.8339  -17.2416 C   0  0  0  0  0  0  0  0  0  0  0  0
   -6.2970    5.0880  -18.4769 C   0  0  0  0  0  0  0  0  0  0  0  0
   -7.4129    4.5721  -18.7487 O   0  0  0  0  0  0  0  0  0  0  0  0
   -5.6455    6.0676  -19.2677 N   0  0  0  0  0  0  0  0  0  0  0  0
   -6.0796    6.6540  -20.5071 C   0  0  0  0  0  0  0  0  0  0  0  0
   -6.8811    5.9360  -21.4100 C   0  0  0  0  0  0  0  0  0  0  0  0
   -7.2876    6.5167  -22.6151 C   0  0  0  0  0  0  0  0  0  0  0  0
   -6.8948    7.8256  -22.9452 C   0  0  0  0  0  0  0  0  0  0  0  0
   -6.0935    8.5425  -22.0389 C   0  0  0  0  0  0  0  0  0  0  0  0
   -5.6828    7.9582  -20.8381 C   0  0  0  0  0  0  0  0  0  0  0  0
   -7.3288    8.4571  -24.2150 C   0  0  0  0  0  0  0  0  0  0  0  0
   -7.6815    7.6554  -25.3558 N   0  0  0  0  0  0  0  0  0  0  0  0
   -8.3746    8.1700  -26.5015 C   0  0  0  0  0  0  0  0  0  0  0  0
   -8.6112    7.4204  -27.6063 N   0  0  0  0  0  0  0  0  0  0  0  0
   -9.2857    8.2484  -28.4127 C   0  0  0  0  0  0  0  0  0  0  0  0
   -9.7679    8.0048  -29.6972 C   0  0  0  0  0  0  0  0  0  0  0  0
  -10.4312    9.0595  -30.3523 C   0  0  0  0  0  0  0  0  0  0  0  0
  -10.5920   10.3116  -29.7131 C   0  0  0  0  0  0  0  0  0  0  0  0
  -10.0923   10.5183  -28.4127 C   0  0  0  0  0  0  0  0  0  0  0  0
   -9.4394    9.4545  -27.7947 C   0  0  0  0  0  0  0  0  0  0  0  0
   -8.8739    9.4336  -26.5737 N   0  0  0  0  0  0  0  0  0  0  0  0
   -7.3598    9.7158  -24.2973 O   0  0  0  0  0  0  0  0  0  0  0  0
   -1.7542    6.2529  -18.1351 H   0  0  0  0  0  0  0  0  0  0  0  0
   -1.0410    5.7800  -16.5521 H   0  0  0  0  0  0  0  0  0  0  0  0
   -1.9517    4.5680  -17.5290 H   0  0  0  0  0  0  0  0  0  0  0  0
   -2.5026    5.3724  -14.5471 H   0  0  0  0  0  0  0  0  0  0  0  0
   -4.2927    5.4901  -14.6761 H   0  0  0  0  0  0  0  0  0  0  0  0
   -3.4141    4.1187  -15.4600 H   0  0  0  0  0  0  0  0  0  0  0  0
   -3.0034    8.1674  -17.0318 H   0  0  0  0  0  0  0  0  0  0  0  0
   -2.3157    7.7248  -15.4293 H   0  0  0  0  0  0  0  0  0  0  0  0
   -4.1024    7.8503  -15.6393 H   0  0  0  0  0  0  0  0  0  0  0  0
   -6.1107    5.0961  -16.3405 H   0  0  0  0  0  0  0  0  0  0  0  0
   -5.1480    3.7881  -17.2177 H   0  0  0  0  0  0  0  0  0  0  0  0
   -7.1778    4.9185  -21.2002 H   0  0  0  0  0  0  0  0  0  0  0  0
   -7.9227    5.9420  -23.2764 H   0  0  0  0  0  0  0  0  0  0  0  0
   -5.7749    9.5526  -22.2641 H   0  0  0  0  0  0  0  0  0  0  0  0
   -5.0623    8.5301  -20.1603 H   0  0  0  0  0  0  0  0  0  0  0  0
   -7.3922    6.6531  -25.3810 H   0  0  0  0  0  0  0  0  0  0  0  0
   -8.3302    6.4305  -27.7869 H   0  0  0  0  0  0  0  0  0  0  0  0
   -9.6336    7.0428  -30.1754 H   0  0  0  0  0  0  0  0  0  0  0  0
  -10.8179    8.9118  -31.3519 H   0  0  0  0  0  0  0  0  0  0  0  0
  -11.1009   11.1172  -30.2273 H   0  0  0  0  0  0  0  0  0  0  0  0
  -10.2041   11.4732  -27.9156 H   0  0  0  0  0  0  0  0  0  0  0  0
  1  2  2  0
  2  3  1  0
  3  4  1  0
  3  5  1  0
  3  6  1  0
  2  7  1  0
  7  8  1  0
  8  9  2  0
  8 10  1  0
 10 11  1  0
 11 12  2  0
 12 13  1  0
 13 14  2  0
 14 15  1  0
 15 16  2  0
 14 17  1  0
 17 18  1  0
 18 19  1  0
 19 20  1  0
 20 21  1  0
 21 22  2  0
 22 23  1  0
 23 24  2  0
 24 25  1  0
 25 26  2  0
 26 27  1  0
 17 28  2  0
 10  1  1  0
 11 16  1  0
 19 27  2  0
 26 21  1  0
  4 29  1  0
  4 30  1  0
  4 31  1  0
  5 32  1  0
  5 33  1  0
  5 34  1  0
  6 35  1  0
  6 36  1  0
  6 37  1  0
  7 38  1  0
  7 39  1  0
 12 40  1  0
 13 41  1  0
 15 42  1  0
 16 43  1  0
 18 44  1  0
 20 45  1  0
 22 46  1  0
 23 47  1  0
 24 48  1  0
 25 49  1  0
A    1
 N1 
A    2
 C1 
A    3
 C2 
A    4
 C3 
A    5
 C4 
A    6
 C5 
A    7
 C6 
A    8
 C7 
A    9
 O1 
A   10
 N2 
A   11
 C8 
A   12
 C9 
A   13
 C10
A   14
 C11
A   15
 C12
A   16
 C13
A   17
 C14
A   18
 N3 
A   19
 C15
A   20
 N4 
A   21
 C16
A   22
 C17
A   23
 C18
A   24
 C19
A   25
 C20
A   26
 C21
A   27
 N5 
A   28
 O2 
A   29
 H1 
A   30
 H2 
A   31
 H3 
A   32
 H4 
A   33
 H5 
A   34
 H6 
A   35
 H7 
A   36
 H8 
A   37
 H9 
A   38
 H10
A   39
 H11
A   40
 H12
A   41
 H13
A   42
 H14
A   43
 H15
A   44
 H16
A   45
 H17
A   46
 H18
A   47
 H19
A   48
 H20
A   49
 H21
M  END
>  <ref_pdb>  (56) 
x0051_0B

>  <ref_mols>  (56) 
x0846_1B,x0425_0B

>  <original SMILES>  (56) 
[H]c1c([H])c(N2N=C(C(C([H])([H])[H])(C([H])([H])[H])C([H])([H])[H])C([H])([H])C2=O)c([H])c([H])c1C(=O)N([H])c1nc2c([H])c([H])c([H])c([H])c2n1[H]

>  <index>  (56) 
70

>  <∆∆G>  (56) 
-8.12405

>  <∆G_bound>  (56) 
-7.575921

>  <∆G_unbound>  (56) 
0.548129

>  <comRMSD>  (56) 
0.880331

>  <N_constrained_atoms>  (56) 
26.0

>  <N_unconstrained_atoms>  (56) 
3.0

>  <runtime>  (56) 
64.462032

>  <LE>  (56) 
0.28014

>  <percent_hybrid>  (56) 
31.0

>  <dist>  (56) 
11.0

>  <ecfp4>  (56) 
0.23913

>  <daylight>  (56) 
0.33871

>  <topodist>  (56) 
6.0

>  <mces>  (56) 
29.0

>  <tdn>  (56) 
2.0

>  <tup>  (56) 
2.0

>  <rdn>  (56) 
0.0

>  <rup>  (56) 
0.0

>  <ldn>  (56) 
2.0

>  <lup>  (56) 
0.0

>  <mut>  (56) 
3.0

>  <maj>  (56) 
3.0

>  <min>  (56) 
0.0

>  <hyb>  (56) 
2.0

>  <sub>  (56) 
1.0

>  <query_index>  (56) 
25.0

>  <max_hit_Tanimoto>  (56) 
0.386813

>  <largest_ring>  (56) 
6

>  <N_interactions_kept>  (56) 
1.0

>  <N_interactions_lost>  (56) 
1.5

>  <interaction_uniqueness_metric>  (56) 
0.154571

>  <ad_hoc_penalty>  (56) 
-32.675832

>  <N_rotatable_bonds>  (56) 
3

>  <N_HA>  (56) 
28

>  <cluster>  (56) 
6154

>  <N_interactions>  (56) 
6

>  <Enamine>  (56) 
0

>  <Mcule>  (56) 
1

>  <N_PAINS>  (56) 
0

>  <UFF_Gibbs>  (56) 
141.361836

>  <strain_per_HA>  (56) 
4.874546

>  <saltbridge:HIS:51>  (56) 
0

>  <pistack:HIS:51>  (56) 
0

>  <hydroph_interaction:HIS:51>  (56) 
0

>  <hbond:ALA:132>  (56) 
0

>  <hbond:SER:135>  (56) 
0

>  <hydroph_interaction:TYR:150>  (56) 
0

>  <pistack:TYR:161>  (56) 
0

>  <hydroph_interaction:TYR:161>  (56) 
3

>  <hydroph_interaction:ASP:83>  (56) 
0

>  <hbond:TYR:130>  (56) 
0

>  <hydroph_interaction:ALA:132>  (56) 
0

>  <hbond:HIS:51>  (56) 
0

>  <hbond:ASP:129>  (56) 
0

>  <hbond:TYR:150>  (56) 
0

>  <hbond:GLY:151>  (56) 
0

>  <hbond:TYR:161>  (56) 
0

>  <hydroph_interaction:TYR:130>  (56) 
1

>  <hydroph_interaction:PRO:131>  (56) 
1

>  <hydroph_interaction:ASP:129>  (56) 
0

>  <saltbridge:ASP:75>  (56) 
0

>  <saltbridge:ASP:83>  (56) 
0

>  <hydroph_interaction:ASN:152>  (56) 
0

>  <halogenbond:TYR:150>  (56) 
0

>  <hbond:ASP:83>  (56) 
0

>  <hydroph_interaction:VAL:155>  (56) 
1

>  <pication:TYR:161>  (56) 
0

>  <hbond:PRO:131>  (56) 
0

>  <hbond:LEU:128>  (56) 
0

>  <saltbridge:ASP:129>  (56) 
0

>  <hbond:THR:134>  (56) 
0

>  <pication:HIS:51>  (56) 
0

>  <hbond:SER:81>  (56) 
0

>  <hbond:GLY:159>  (56) 
0

>  <hydroph_interaction:PRO:101>  (56) 
0

>  <hydroph_interaction:THR:134>  (56) 
0

>  <hbond:GLY:82>  (56) 
0

>  <hydroph_interaction:GLU:104>  (56) 
0

>  <hydroph_interaction:VAL:36>  (56) 
0

>  <hydroph_interaction:MET:49>  (56) 
0

>  <halogenbond:GLU:104>  (56) 
0

>  <hydroph_interaction:LYS:107>  (56) 
0

$$$$
MCULE-4548987726
     RDKit          3D

 33 34  0  0  0  0  0  0  0  0999 V2000
   -7.5399    5.6675  -17.8922 C   0  0  0  0  0  0  0  0  0  0  0  0
   -8.1514    5.6882  -19.1636 C   0  0  0  0  0  0  0  0  0  0  0  0
   -9.4525    5.2225  -19.3478 C   0  0  0  0  0  0  0  0  0  0  0  0
  -10.1742    4.7234  -18.2693 C   0  0  0  0  0  0  0  0  0  0  0  0
   -9.5949    4.6789  -17.0030 C   0  0  0  0  0  0  0  0  0  0  0  0
   -8.2763    5.1238  -16.7926 C   0  0  0  0  0  0  0  0  0  0  0  0
   -7.7561    5.0640  -15.3775 C   0  0  0  0  0  0  0  0  0  0  0  0
   -6.1052    6.1932  -17.8042 C   0  0  0  0  0  0  0  0  0  0  0  0
   -5.0750    5.0999  -17.5549 C   0  0  0  0  0  0  0  0  0  0  0  0
   -4.0926    5.7290  -16.5683 C   0  0  0  0  0  0  0  0  0  0  0  0
   -3.4751    4.7059  -15.5994 C   0  0  0  0  0  0  0  0  0  0  0  0
   -2.5727    3.7032  -16.3173 C   0  0  0  0  0  0  0  0  0  0  0  0
   -4.8370    6.7409  -15.8181 N   0  0  0  0  0  0  0  0  0  0  0  0
   -5.8671    7.2521  -16.7227 C   0  0  0  0  0  0  0  0  0  0  0  0
   -7.6199    6.0705  -20.0264 H   0  0  0  0  0  0  0  0  0  0  0  0
   -9.9033    5.2523  -20.3314 H   0  0  0  0  0  0  0  0  0  0  0  0
  -11.1871    4.3700  -18.4138 H   0  0  0  0  0  0  0  0  0  0  0  0
  -10.1816    4.2917  -16.1785 H   0  0  0  0  0  0  0  0  0  0  0  0
   -8.0308    5.9944  -14.8391 H   0  0  0  0  0  0  0  0  0  0  0  0
   -6.6649    4.9206  -15.3292 H   0  0  0  0  0  0  0  0  0  0  0  0
   -8.2055    4.2062  -14.8328 H   0  0  0  0  0  0  0  0  0  0  0  0
   -5.8317    6.6737  -18.7723 H   0  0  0  0  0  0  0  0  0  0  0  0
   -4.5568    4.8173  -18.4979 H   0  0  0  0  0  0  0  0  0  0  0  0
   -5.5431    4.1823  -17.1375 H   0  0  0  0  0  0  0  0  0  0  0  0
   -3.2766    6.2276  -17.1439 H   0  0  0  0  0  0  0  0  0  0  0  0
   -2.8636    5.2480  -14.8457 H   0  0  0  0  0  0  0  0  0  0  0  0
   -4.2750    4.1588  -15.0547 H   0  0  0  0  0  0  0  0  0  0  0  0
   -2.1096    3.0225  -15.5723 H   0  0  0  0  0  0  0  0  0  0  0  0
   -3.1601    3.0911  -17.0335 H   0  0  0  0  0  0  0  0  0  0  0  0
   -1.7639    4.2332  -16.8638 H   0  0  0  0  0  0  0  0  0  0  0  0
   -4.1896    7.5208  -15.5536 H   0  0  0  0  0  0  0  0  0  0  0  0
   -5.5190    8.1994  -17.1963 H   0  0  0  0  0  0  0  0  0  0  0  0
   -6.7847    7.4971  -16.1512 H   0  0  0  0  0  0  0  0  0  0  0  0
  1  2  2  0
  2  3  1  0
  3  4  2  0
  4  5  1  0
  5  6  2  0
  6  7  1  0
  1  8  1  0
  8  9  1  0
  9 10  1  0
 10 11  1  0
 11 12  1  0
 10 13  1  0
 13 14  1  0
  1  6  1  0
 14  8  1  0
  2 15  1  0
  3 16  1  0
  4 17  1  0
  5 18  1  0
  7 19  1  0
  7 20  1  0
  7 21  1  0
  8 22  1  0
  9 23  1  0
  9 24  1  0
 10 25  1  0
 11 26  1  0
 11 27  1  0
 12 28  1  0
 12 29  1  0
 12 30  1  0
 13 31  1  0
 14 32  1  0
 14 33  1  0
A    1
 C1 
A    2
 C2 
A    3
 C3 
A    4
 C4 
A    5
 C5 
A    6
 C6 
A    7
 C7 
A    8
 C8 
A    9
 C9 
A   10
 C10
A   11
 C11
A   12
 C12
A   13
 N1 
A   14
 C13
A   15
 H1 
A   16
 H2 
A   17
 H3 
A   18
 H4 
A   19
 H5 
A   20
 H6 
A   21
 H7 
A   22
 H8 
A   23
 H9 
A   24
 H10
A   25
 H11
A   26
 H12
A   27
 H13
A   28
 H14
A   29
 H15
A   30
 H16
A   31
 H17
A   32
 H18
A   33
 H19
M  END
>  <ref_pdb>  (57) 
x0051_0B

>  <ref_mols>  (57) 
x0227_0B,x0693_0B

>  <original SMILES>  (57) 
[H]c1c([H])c([H])c(C2([H])C([H])([H])N([H])C([H])(C([H])([H])C([H])([H])[H])C2([H])[H])c(C([H])([H])[H])c1[H]

>  <index>  (57) 
106

>  <∆∆G>  (57) 
-7.474274

>  <∆G_bound>  (57) 
-7.358124

>  <∆G_unbound>  (57) 
0.11615

>  <comRMSD>  (57) 
0.660588

>  <N_constrained_atoms>  (57) 
15.0

>  <N_unconstrained_atoms>  (57) 
2.0

>  <runtime>  (57) 
23.295746

>  <LE>  (57) 
0.439663

>  <percent_hybrid>  (57) 
38.0

>  <dist>  (57) 
4.0

>  <ecfp4>  (57) 
0.226415

>  <daylight>  (57) 
0.383333

>  <topodist>  (57) 
3.0

>  <mces>  (57) 
14.0

>  <tdn>  (57) 
1.0

>  <tup>  (57) 
0.0

>  <rdn>  (57) 
1.0

>  <rup>  (57) 
1.0

>  <ldn>  (57) 
0.0

>  <lup>  (57) 
0.0

>  <mut>  (57) 
1.0

>  <maj>  (57) 
1.0

>  <min>  (57) 
0.0

>  <hyb>  (57) 
0.0

>  <sub>  (57) 
3.0

>  <query_index>  (57) 
291.0

>  <max_hit_Tanimoto>  (57) 
0.269289

>  <largest_ring>  (57) 
6

>  <N_interactions_kept>  (57) 
4.0

>  <N_interactions_lost>  (57) 
2.0

>  <interaction_uniqueness_metric>  (57) 
0.091664

>  <ad_hoc_penalty>  (57) 
-32.576649

>  <N_rotatable_bonds>  (57) 
4

>  <N_HA>  (57) 
14

>  <cluster>  (57) 
6120

>  <N_interactions>  (57) 
8

>  <Enamine>  (57) 
0

>  <Mcule>  (57) 
1

>  <N_PAINS>  (57) 
0

>  <UFF_Gibbs>  (57) 
33.128584

>  <strain_per_HA>  (57) 
1.94874

>  <saltbridge:HIS:51>  (57) 
0

>  <pistack:HIS:51>  (57) 
0

>  <hydroph_interaction:HIS:51>  (57) 
0

>  <hbond:ALA:132>  (57) 
0

>  <hbond:SER:135>  (57) 
0

>  <hydroph_interaction:TYR:150>  (57) 
1

>  <pistack:TYR:161>  (57) 
0

>  <hydroph_interaction:TYR:161>  (57) 
5

>  <hydroph_interaction:ASP:83>  (57) 
0

>  <hbond:TYR:130>  (57) 
0

>  <hydroph_interaction:ALA:132>  (57) 
1

>  <hbond:HIS:51>  (57) 
0

>  <hbond:ASP:129>  (57) 
0

>  <hbond:TYR:150>  (57) 
0

>  <hbond:GLY:151>  (57) 
0

>  <hbond:TYR:161>  (57) 
0

>  <hydroph_interaction:TYR:130>  (57) 
0

>  <hydroph_interaction:PRO:131>  (57) 
0

>  <hydroph_interaction:ASP:129>  (57) 
0

>  <saltbridge:ASP:75>  (57) 
0

>  <saltbridge:ASP:83>  (57) 
0

>  <hydroph_interaction:ASN:152>  (57) 
0

>  <halogenbond:TYR:150>  (57) 
0

>  <hbond:ASP:83>  (57) 
0

>  <hydroph_interaction:VAL:155>  (57) 
1

>  <pication:TYR:161>  (57) 
0

>  <hbond:PRO:131>  (57) 
0

>  <hbond:LEU:128>  (57) 
0

>  <saltbridge:ASP:129>  (57) 
0

>  <hbond:THR:134>  (57) 
0

>  <pication:HIS:51>  (57) 
0

>  <hbond:SER:81>  (57) 
0

>  <hbond:GLY:159>  (57) 
0

>  <hydroph_interaction:PRO:101>  (57) 
0

>  <hydroph_interaction:THR:134>  (57) 
0

>  <hbond:GLY:82>  (57) 
0

>  <hydroph_interaction:GLU:104>  (57) 
0

>  <hydroph_interaction:VAL:36>  (57) 
0

>  <hydroph_interaction:MET:49>  (57) 
0

>  <halogenbond:GLU:104>  (57) 
0

>  <hydroph_interaction:LYS:107>  (57) 
0

$$$$
NDACBRIAZDQKRJ-UHFFFAOYSA-N
     RDKit          3D

 45 47  0  0  0  0  0  0  0  0999 V2000
   -8.5509    5.9951  -13.9594 C   0  0  0  0  0  0  0  0  0  0  0  0
   -8.8362    5.1911  -15.1167 N   0  0  0  0  0  0  0  0  0  0  0  0
   -8.4045    5.5251  -16.4474 C   0  0  0  0  0  0  0  0  0  0  0  0
   -7.2020    6.2144  -16.6774 C   0  0  0  0  0  0  0  0  0  0  0  0
   -6.8088    6.4959  -17.9883 C   0  0  0  0  0  0  0  0  0  0  0  0
   -5.1817    7.4331  -18.3232 Br  0  0  0  0  0  0  0  0  0  0  0  0
   -7.5796    6.0935  -19.0326 N   0  0  0  0  0  0  0  0  0  0  0  0
   -8.7420    5.4118  -18.8453 C   0  0  0  0  0  0  0  0  0  0  0  0
   -9.5490    4.9768  -20.0268 C   0  0  0  0  0  0  0  0  0  0  0  0
   -9.1679    5.1068  -17.5460 C   0  0  0  0  0  0  0  0  0  0  0  0
   -8.2765    7.2184  -14.1009 O   0  0  0  0  0  0  0  0  0  0  0  0
   -8.6250    5.4173  -12.5952 C   0  0  0  0  0  0  0  0  0  0  0  0
   -8.7545    6.2590  -11.4765 C   0  0  0  0  0  0  0  0  0  0  0  0
   -8.8190    5.7232  -10.1874 C   0  0  0  0  0  0  0  0  0  0  0  0
   -8.7433    4.3356   -9.9880 C   0  0  0  0  0  0  0  0  0  0  0  0
   -8.8253    3.7819   -8.6601 N   0  0  0  0  0  0  0  0  0  0  0  0
   -9.6817    2.6203   -8.3964 C   0  0  0  0  0  0  0  0  0  0  0  0
   -9.9999    2.5078   -6.8953 C   0  0  0  0  0  0  0  0  0  0  0  0
  -10.2060    3.8349   -6.2758 N   0  0  0  0  0  0  0  0  0  0  0  0
  -11.4327    4.4851   -6.7692 C   0  0  0  0  0  0  0  0  0  0  0  0
   -9.0228    4.7282   -6.3896 C   0  0  0  0  0  0  0  0  0  0  0  0
   -8.0717    4.3623   -7.5449 C   0  0  0  0  0  0  0  0  0  0  0  0
   -8.6138    3.4932  -11.1033 C   0  0  0  0  0  0  0  0  0  0  0  0
   -8.5488    4.0278  -12.3932 C   0  0  0  0  0  0  0  0  0  0  0  0
   -9.4866    4.3811  -15.0035 H   0  0  0  0  0  0  0  0  0  0  0  0
   -6.5637    6.5103  -15.8556 H   0  0  0  0  0  0  0  0  0  0  0  0
   -9.1008    5.3601  -20.9682 H   0  0  0  0  0  0  0  0  0  0  0  0
  -10.5845    5.3690  -19.9407 H   0  0  0  0  0  0  0  0  0  0  0  0
   -9.5796    3.8677  -20.0705 H   0  0  0  0  0  0  0  0  0  0  0  0
  -10.0892    4.5579  -17.3909 H   0  0  0  0  0  0  0  0  0  0  0  0
   -8.8211    7.3331  -11.5982 H   0  0  0  0  0  0  0  0  0  0  0  0
   -8.9494    6.3920   -9.3463 H   0  0  0  0  0  0  0  0  0  0  0  0
   -9.1771    1.6928   -8.7413 H   0  0  0  0  0  0  0  0  0  0  0  0
  -10.6357    2.7281   -8.9576 H   0  0  0  0  0  0  0  0  0  0  0  0
  -10.8956    1.8657   -6.7464 H   0  0  0  0  0  0  0  0  0  0  0  0
   -9.1574    1.9963   -6.3799 H   0  0  0  0  0  0  0  0  0  0  0  0
  -12.2972    3.7898   -6.7047 H   0  0  0  0  0  0  0  0  0  0  0  0
  -11.6713    5.3646   -6.1340 H   0  0  0  0  0  0  0  0  0  0  0  0
  -11.3148    4.8264   -7.8209 H   0  0  0  0  0  0  0  0  0  0  0  0
   -9.3288    5.7930   -6.5052 H   0  0  0  0  0  0  0  0  0  0  0  0
   -8.4533    4.6772   -5.4373 H   0  0  0  0  0  0  0  0  0  0  0  0
   -7.3345    3.6105   -7.1879 H   0  0  0  0  0  0  0  0  0  0  0  0
   -7.4905    5.2557   -7.8591 H   0  0  0  0  0  0  0  0  0  0  0  0
   -8.5444    2.4210  -10.9751 H   0  0  0  0  0  0  0  0  0  0  0  0
   -8.4188    3.3502  -13.2266 H   0  0  0  0  0  0  0  0  0  0  0  0
  1  2  1  0
  2  3  1  0
  3  4  2  0
  4  5  1  0
  5  6  1  0
  5  7  2  0
  7  8  1  0
  8  9  1  0
  8 10  2  0
  1 11  2  0
  1 12  1  0
 12 13  2  0
 13 14  1  0
 14 15  2  0
 15 16  1  0
 16 17  1  0
 17 18  1  0
 18 19  1  0
 19 20  1  0
 19 21  1  0
 21 22  1  0
 15 23  1  0
 23 24  2  0
  3 10  1  0
 24 12  1  0
 22 16  1  0
  2 25  1  0
  4 26  1  0
  9 27  1  0
  9 28  1  0
  9 29  1  0
 10 30  1  0
 13 31  1  0
 14 32  1  0
 17 33  1  0
 17 34  1  0
 18 35  1  0
 18 36  1  0
 20 37  1  0
 20 38  1  0
 20 39  1  0
 21 40  1  0
 21 41  1  0
 22 42  1  0
 22 43  1  0
 23 44  1  0
 24 45  1  0
A    1
 C1 
A    2
 N1 
A    3
 C2 
A    4
 C3 
A    5
 C4 
A    6
BR1 
A    7
 N2 
A    8
 C5 
A    9
 C6 
A   10
 C7 
A   11
 O1 
A   12
 C8 
A   13
 C9 
A   14
 C10
A   15
 C11
A   16
 N3 
A   17
 C12
A   18
 C13
A   19
 N4 
A   20
 C14
A   21
 C15
A   22
 C16
A   23
 C17
A   24
 C18
A   25
 H1 
A   26
 H2 
A   27
 H3 
A   28
 H4 
A   29
 H5 
A   30
 H6 
A   31
 H7 
A   32
 H8 
A   33
 H9 
A   34
 H10
A   35
 H11
A   36
 H12
A   37
 H13
A   38
 H14
A   39
 H15
A   40
 H16
A   41
 H17
A   42
 H18
A   43
 H19
A   44
 H20
A   45
 H21
M  END
>  <ref_pdb>  (58) 
x0051_0B

>  <ref_mols>  (58) 
x0589_0B,x0404_0B

>  <original SMILES>  (58) 
[H]c1c([H])c(N2C([H])([H])C([H])([H])N(C([H])([H])[H])C([H])([H])C2([H])[H])c([H])c([H])c1C(=O)N([H])c1c([H])c(Br)nc(C([H])([H])[H])c1[H]

>  <index>  (58) 
96

>  <∆∆G>  (58) 
-7.651295

>  <∆G_bound>  (58) 
-7.209461

>  <∆G_unbound>  (58) 
0.441834

>  <comRMSD>  (58) 
0.724039

>  <N_constrained_atoms>  (58) 
21.0

>  <N_unconstrained_atoms>  (58) 
4.0

>  <runtime>  (58) 
73.311122

>  <LE>  (58) 
0.306052

>  <percent_hybrid>  (58) 
34.0

>  <dist>  (58) 
6.0

>  <ecfp4>  (58) 
0.227848

>  <daylight>  (58) 
0.295

>  <topodist>  (58) 
3.0

>  <mces>  (58) 
25.0

>  <tdn>  (58) 
1.0

>  <tup>  (58) 
1.0

>  <rdn>  (58) 
0.0

>  <rup>  (58) 
0.0

>  <ldn>  (58) 
1.0

>  <lup>  (58) 
0.0

>  <mut>  (58) 
2.0

>  <maj>  (58) 
2.0

>  <min>  (58) 
0.0

>  <hyb>  (58) 
1.0

>  <sub>  (58) 
1.0

>  <query_index>  (58) 
29.0

>  <max_hit_Tanimoto>  (58) 
0.295105

>  <largest_ring>  (58) 
6

>  <N_interactions_kept>  (58) 
1.0

>  <N_interactions_lost>  (58) 
2.5

>  <interaction_uniqueness_metric>  (58) 
0.436357

>  <ad_hoc_penalty>  (58) 
-32.532885

>  <N_rotatable_bonds>  (58) 
5

>  <N_HA>  (58) 
24

>  <cluster>  (58) 
6128

>  <N_interactions>  (58) 
9

>  <Enamine>  (58) 
0

>  <Mcule>  (58) 
1

>  <N_PAINS>  (58) 
0

>  <UFF_Gibbs>  (58) 
166.081001

>  <strain_per_HA>  (58) 
6.64324

>  <saltbridge:HIS:51>  (58) 
0

>  <pistack:HIS:51>  (58) 
1

>  <hydroph_interaction:HIS:51>  (58) 
1

>  <hbond:ALA:132>  (58) 
0

>  <hbond:SER:135>  (58) 
0

>  <hydroph_interaction:TYR:150>  (58) 
1

>  <pistack:TYR:161>  (58) 
1

>  <hydroph_interaction:TYR:161>  (58) 
1

>  <hydroph_interaction:ASP:83>  (58) 
0

>  <hbond:TYR:130>  (58) 
0

>  <hydroph_interaction:ALA:132>  (58) 
1

>  <hbond:HIS:51>  (58) 
1

>  <hbond:ASP:129>  (58) 
0

>  <hbond:TYR:150>  (58) 
0

>  <hbond:GLY:151>  (58) 
0

>  <hbond:TYR:161>  (58) 
0

>  <hydroph_interaction:TYR:130>  (58) 
0

>  <hydroph_interaction:PRO:131>  (58) 
0

>  <hydroph_interaction:ASP:129>  (58) 
0

>  <saltbridge:ASP:75>  (58) 
1

>  <saltbridge:ASP:83>  (58) 
1

>  <hydroph_interaction:ASN:152>  (58) 
0

>  <halogenbond:TYR:150>  (58) 
0

>  <hbond:ASP:83>  (58) 
0

>  <hydroph_interaction:VAL:155>  (58) 
0

>  <pication:TYR:161>  (58) 
0

>  <hbond:PRO:131>  (58) 
0

>  <hbond:LEU:128>  (58) 
0

>  <saltbridge:ASP:129>  (58) 
0

>  <hbond:THR:134>  (58) 
0

>  <pication:HIS:51>  (58) 
0

>  <hbond:SER:81>  (58) 
0

>  <hbond:GLY:159>  (58) 
0

>  <hydroph_interaction:PRO:101>  (58) 
0

>  <hydroph_interaction:THR:134>  (58) 
0

>  <hbond:GLY:82>  (58) 
0

>  <hydroph_interaction:GLU:104>  (58) 
0

>  <hydroph_interaction:VAL:36>  (58) 
0

>  <hydroph_interaction:MET:49>  (58) 
0

>  <halogenbond:GLU:104>  (58) 
0

>  <hydroph_interaction:LYS:107>  (58) 
0

$$$$
CSSB02495339813
     RDKit          3D

 31 33  0  0  0  0  0  0  0  0999 V2000
   -4.4865    6.5248  -19.9183 N   0  0  0  0  0  0  0  0  0  0  0  0
   -3.8650    6.0822  -18.6710 C   0  0  2  0  0  0  0  0  0  0  0  0
   -4.5670    4.8450  -18.0746 C   0  0  0  0  0  0  0  0  0  0  0  0
   -4.9603    5.3184  -16.6584 C   0  0  1  0  0  0  0  0  0  0  0  0
   -3.8068    6.2408  -16.3209 C   0  0  0  0  0  0  0  0  0  0  0  0
   -3.9984    7.1223  -17.5371 C   0  0  2  0  0  0  0  0  0  0  0  0
   -5.4717    7.5655  -17.3770 C   0  0  0  0  0  0  0  0  0  0  0  0
   -6.1296    6.3277  -16.7200 C   0  0  1  0  0  0  0  0  0  0  0  0
   -7.4079    5.7756  -17.3421 C   0  0  0  0  0  0  0  0  0  0  0  0
   -8.2953    5.0629  -16.5128 C   0  0  0  0  0  0  0  0  0  0  0  0
   -9.4714    4.5123  -17.0292 C   0  0  0  0  0  0  0  0  0  0  0  0
   -9.7742    4.6536  -18.3838 C   0  0  0  0  0  0  0  0  0  0  0  0
   -8.8975    5.3398  -19.2251 C   0  0  0  0  0  0  0  0  0  0  0  0
   -7.7196    5.8936  -18.7141 C   0  0  0  0  0  0  0  0  0  0  0  0
   -4.3376    5.7783  -20.6354 H   0  0  0  0  0  0  0  0  0  0  0  0
   -3.9661    7.3669  -20.2557 H   0  0  0  0  0  0  0  0  0  0  0  0
   -2.7867    5.8599  -18.8492 H   0  0  0  0  0  0  0  0  0  0  0  0
   -3.8473    4.0001  -17.9998 H   0  0  0  0  0  0  0  0  0  0  0  0
   -5.4351    4.5009  -18.6727 H   0  0  0  0  0  0  0  0  0  0  0  0
   -5.1125    4.4930  -15.9300 H   0  0  0  0  0  0  0  0  0  0  0  0
   -2.8209    5.7197  -16.3065 H   0  0  0  0  0  0  0  0  0  0  0  0
   -3.9461    6.7883  -15.3597 H   0  0  0  0  0  0  0  0  0  0  0  0
   -3.2773    7.9645  -17.6102 H   0  0  0  0  0  0  0  0  0  0  0  0
   -5.5195    8.4325  -16.6810 H   0  0  0  0  0  0  0  0  0  0  0  0
   -5.9238    7.8956  -18.3309 H   0  0  0  0  0  0  0  0  0  0  0  0
   -6.3772    6.6145  -15.6705 H   0  0  0  0  0  0  0  0  0  0  0  0
   -8.0754    4.9323  -15.4602 H   0  0  0  0  0  0  0  0  0  0  0  0
  -10.1467    3.9720  -16.3784 H   0  0  0  0  0  0  0  0  0  0  0  0
  -10.6841    4.2247  -18.7832 H   0  0  0  0  0  0  0  0  0  0  0  0
   -9.1269    5.4366  -20.2785 H   0  0  0  0  0  0  0  0  0  0  0  0
   -7.0584    6.3888  -19.4058 H   0  0  0  0  0  0  0  0  0  0  0  0
  1  2  1  0
  2  3  1  0
  3  4  1  0
  4  5  1  0
  5  6  1  0
  6  7  1  0
  7  8  1  0
  8  9  1  0
  9 10  2  0
 10 11  1  0
 11 12  2  0
 12 13  1  0
 13 14  2  0
  6  2  1  0
  8  4  1  0
 14  9  1  0
  1 15  1  0
  1 16  1  0
  2 17  1  6
  3 18  1  0
  3 19  1  0
  4 20  1  1
  5 21  1  0
  5 22  1  0
  6 23  1  6
  7 24  1  0
  7 25  1  0
  8 26  1  1
 10 27  1  0
 11 28  1  0
 12 29  1  0
 13 30  1  0
 14 31  1  0
A    1
 N1 
A    2
 C1 
A    3
 C2 
A    4
 C3 
A    5
 C4 
A    6
 C5 
A    7
 C6 
A    8
 C7 
A    9
 C8 
A   10
 C9 
A   11
 C10
A   12
 C11
A   13
 C12
A   14
 C13
A   15
 H1 
A   16
 H2 
A   17
 H3 
A   18
 H4 
A   19
 H5 
A   20
 H6 
A   21
 H7 
A   22
 H8 
A   23
 H9 
A   24
 H10
A   25
 H11
A   26
 H12
A   27
 H13
A   28
 H14
A   29
 H15
A   30
 H16
A   31
 H17
M  END
>  <ref_pdb>  (59) 
x0051_0B

>  <ref_mols>  (59) 
x0227_0B,x0472_0B

>  <original SMILES>  (59) 
[H]c1c([H])c([H])c([C@]2([H])C([H])([H])[C@@]3([H])C([H])([H])[C@]2([H])C([H])([H])[C@@]3([H])N([H])[H])c([H])c1[H]

>  <index>  (59) 
93

>  <∆∆G>  (59) 
-5.830488

>  <∆G_bound>  (59) 
-5.644722

>  <∆G_unbound>  (59) 
0.185767

>  <comRMSD>  (59) 
0.978135

>  <N_constrained_atoms>  (59) 
17.0

>  <N_unconstrained_atoms>  (59) 
2.0

>  <runtime>  (59) 
19.069865

>  <LE>  (59) 
0.306868

>  <percent_hybrid>  (59) 
45.0

>  <dist>  (59) 
5.0

>  <ecfp4>  (59) 
0.160714

>  <daylight>  (59) 
0.453488

>  <topodist>  (59) 
4.0

>  <mces>  (59) 
15.0

>  <tdn>  (59) 
3.0

>  <tup>  (59) 
0.0

>  <rdn>  (59) 
0.0

>  <rup>  (59) 
1.0

>  <ldn>  (59) 
0.0

>  <lup>  (59) 
0.0

>  <mut>  (59) 
1.0

>  <maj>  (59) 
1.0

>  <min>  (59) 
0.0

>  <hyb>  (59) 
0.0

>  <sub>  (59) 
4.0

>  <query_index>  (59) 
191.0

>  <max_hit_Tanimoto>  (59) 
0.266026

>  <largest_ring>  (59) 
6

>  <N_interactions_kept>  (59) 
4.0

>  <N_interactions_lost>  (59) 
1.0

>  <interaction_uniqueness_metric>  (59) 
0.056279

>  <ad_hoc_penalty>  (59) 
-32.307489

>  <N_rotatable_bonds>  (59) 
2

>  <N_HA>  (59) 
14

>  <cluster>  (59) 
6131

>  <N_interactions>  (59) 
6

>  <Enamine>  (59) 
1

>  <Mcule>  (59) 
0

>  <N_PAINS>  (59) 
0

>  <UFF_Gibbs>  (59) 
56.536084

>  <strain_per_HA>  (59) 
2.975583

>  <saltbridge:HIS:51>  (59) 
0

>  <pistack:HIS:51>  (59) 
0

>  <hydroph_interaction:HIS:51>  (59) 
0

>  <hbond:ALA:132>  (59) 
0

>  <hbond:SER:135>  (59) 
0

>  <hydroph_interaction:TYR:150>  (59) 
1

>  <pistack:TYR:161>  (59) 
0

>  <hydroph_interaction:TYR:161>  (59) 
4

>  <hydroph_interaction:ASP:83>  (59) 
0

>  <hbond:TYR:130>  (59) 
0

>  <hydroph_interaction:ALA:132>  (59) 
1

>  <hbond:HIS:51>  (59) 
0

>  <hbond:ASP:129>  (59) 
0

>  <hbond:TYR:150>  (59) 
0

>  <hbond:GLY:151>  (59) 
0

>  <hbond:TYR:161>  (59) 
0

>  <hydroph_interaction:TYR:130>  (59) 
0

>  <hydroph_interaction:PRO:131>  (59) 
0

>  <hydroph_interaction:ASP:129>  (59) 
0

>  <saltbridge:ASP:75>  (59) 
0

>  <saltbridge:ASP:83>  (59) 
0

>  <hydroph_interaction:ASN:152>  (59) 
0

>  <halogenbond:TYR:150>  (59) 
0

>  <hbond:ASP:83>  (59) 
0

>  <hydroph_interaction:VAL:155>  (59) 
0

>  <pication:TYR:161>  (59) 
0

>  <hbond:PRO:131>  (59) 
0

>  <hbond:LEU:128>  (59) 
0

>  <saltbridge:ASP:129>  (59) 
0

>  <hbond:THR:134>  (59) 
0

>  <pication:HIS:51>  (59) 
0

>  <hbond:SER:81>  (59) 
0

>  <hbond:GLY:159>  (59) 
0

>  <hydroph_interaction:PRO:101>  (59) 
0

>  <hydroph_interaction:THR:134>  (59) 
0

>  <hbond:GLY:82>  (59) 
0

>  <hydroph_interaction:GLU:104>  (59) 
0

>  <hydroph_interaction:VAL:36>  (59) 
0

>  <hydroph_interaction:MET:49>  (59) 
0

>  <halogenbond:GLU:104>  (59) 
0

>  <hydroph_interaction:LYS:107>  (59) 
0

$$$$
Z2691848836
     RDKit          3D

 46 49  0  0  0  0  0  0  0  0999 V2000
   -8.4230    7.6006  -12.4121 O   0  0  0  0  0  0  0  0  0  0  0  0
   -8.9393    6.5191  -12.0203 C   0  0  0  0  0  0  0  0  0  0  0  0
   -9.6285    5.6764  -12.9558 N   0  0  0  0  0  0  0  0  0  0  0  0
   -9.4761    5.8067  -14.4049 C   0  0  0  0  0  0  0  0  0  0  0  0
   -8.6261    4.6508  -14.9736 C   0  0  0  0  0  0  0  0  0  0  0  0
   -7.1765    4.6587  -14.4390 C   0  0  0  0  0  0  0  0  0  0  0  0
   -6.3261    5.7296  -15.1259 C   0  0  0  0  0  0  0  0  0  0  0  0
   -6.2314    5.4613  -16.6295 C   0  0  0  0  0  0  0  0  0  0  0  0
   -7.5693    5.1468  -17.2539 C   0  0  0  0  0  0  0  0  0  0  0  0
   -7.6984    5.1952  -18.6492 C   0  0  0  0  0  0  0  0  0  0  0  0
   -8.8954    4.8192  -19.2577 C   0  0  0  0  0  0  0  0  0  0  0  0
   -9.9557    4.3817  -18.4660 C   0  0  0  0  0  0  0  0  0  0  0  0
   -9.8194    4.3280  -17.1156 N   0  0  0  0  0  0  0  0  0  0  0  0
   -8.6647    4.6856  -16.4863 C   0  0  0  0  0  0  0  0  0  0  0  0
   -8.8475    6.1635  -10.5899 C   0  0  0  0  0  0  0  0  0  0  0  0
   -8.8472    4.9037   -9.9996 C   0  0  0  0  0  0  0  0  0  0  0  0
   -8.9768    3.5626  -10.6691 C   0  0  0  0  0  0  0  0  0  0  0  0
   -8.4521    2.4473   -9.7536 C   0  0  0  0  0  0  0  0  0  0  0  0
   -9.0007    2.5999   -8.3275 C   0  0  0  0  0  0  0  0  0  0  0  0
   -8.5467    3.9316   -7.7114 C   0  0  0  0  0  0  0  0  0  0  0  0
   -8.7131    5.0308   -8.6636 N   0  0  0  0  0  0  0  0  0  0  0  0
   -8.5830    6.3418   -8.3900 C   0  0  0  0  0  0  0  0  0  0  0  0
   -8.6614    7.0723   -9.5594 C   0  0  0  0  0  0  0  0  0  0  0  0
  -10.2588    4.9239  -12.6042 H   0  0  0  0  0  0  0  0  0  0  0  0
  -10.4906    5.7755  -14.8589 H   0  0  0  0  0  0  0  0  0  0  0  0
   -9.0397    6.7902  -14.6777 H   0  0  0  0  0  0  0  0  0  0  0  0
   -9.0951    3.6960  -14.6461 H   0  0  0  0  0  0  0  0  0  0  0  0
   -6.7174    3.6620  -14.6227 H   0  0  0  0  0  0  0  0  0  0  0  0
   -7.1575    4.8208  -13.3417 H   0  0  0  0  0  0  0  0  0  0  0  0
   -5.3036    5.7200  -14.6903 H   0  0  0  0  0  0  0  0  0  0  0  0
   -6.7536    6.7389  -14.9479 H   0  0  0  0  0  0  0  0  0  0  0  0
   -5.7835    6.3513  -17.1229 H   0  0  0  0  0  0  0  0  0  0  0  0
   -5.5531    4.5976  -16.8017 H   0  0  0  0  0  0  0  0  0  0  0  0
   -6.8677    5.5157  -19.2660 H   0  0  0  0  0  0  0  0  0  0  0  0
   -8.9975    4.8588  -20.3345 H   0  0  0  0  0  0  0  0  0  0  0  0
  -10.8897    4.0857  -18.9246 H   0  0  0  0  0  0  0  0  0  0  0  0
   -8.4049    3.5497  -11.6204 H   0  0  0  0  0  0  0  0  0  0  0  0
  -10.0493    3.3725  -10.8864 H   0  0  0  0  0  0  0  0  0  0  0  0
   -7.3404    2.4776   -9.7286 H   0  0  0  0  0  0  0  0  0  0  0  0
   -8.7581    1.4612  -10.1644 H   0  0  0  0  0  0  0  0  0  0  0  0
  -10.1120    2.5614   -8.3519 H   0  0  0  0  0  0  0  0  0  0  0  0
   -8.6399    1.7590   -7.6970 H   0  0  0  0  0  0  0  0  0  0  0  0
   -7.4740    3.8583   -7.4291 H   0  0  0  0  0  0  0  0  0  0  0  0
   -9.1385    4.1358   -6.7931 H   0  0  0  0  0  0  0  0  0  0  0  0
   -8.4133    6.7474   -7.4009 H   0  0  0  0  0  0  0  0  0  0  0  0
   -8.5807    8.1478   -9.6492 H   0  0  0  0  0  0  0  0  0  0  0  0
  1  2  2  0
  2  3  1  0
  3  4  1  0
  4  5  1  0
  5  6  1  0
  6  7  1  0
  7  8  1  0
  8  9  1  0
  9 10  2  0
 10 11  1  0
 11 12  2  0
 12 13  1  0
 13 14  2  0
  2 15  1  0
 15 16  2  0
 16 17  1  0
 17 18  1  0
 18 19  1  0
 19 20  1  0
 20 21  1  0
 21 22  1  0
 22 23  2  0
 14  5  1  0
 14  9  1  0
 23 15  1  0
 21 16  1  0
  3 24  1  0
  4 25  1  0
  4 26  1  0
  5 27  1  0
  6 28  1  0
  6 29  1  0
  7 30  1  0
  7 31  1  0
  8 32  1  0
  8 33  1  0
 10 34  1  0
 11 35  1  0
 12 36  1  0
 17 37  1  0
 17 38  1  0
 18 39  1  0
 18 40  1  0
 19 41  1  0
 19 42  1  0
 20 43  1  0
 20 44  1  0
 22 45  1  0
 23 46  1  0
A    1
 O1 
A    2
 C1 
A    3
 N1 
A    4
 C2 
A    5
 C3 
A    6
 C4 
A    7
 C5 
A    8
 C6 
A    9
 C7 
A   10
 C8 
A   11
 C9 
A   12
 C10
A   13
 N2 
A   14
 C11
A   15
 C12
A   16
 C13
A   17
 C14
A   18
 C15
A   19
 C16
A   20
 C17
A   21
 N3 
A   22
 C18
A   23
 C19
A   24
 H1 
A   25
 H2 
A   26
 H3 
A   27
 H4 
A   28
 H5 
A   29
 H6 
A   30
 H7 
A   31
 H8 
A   32
 H9 
A   33
 H10
A   34
 H11
A   35
 H12
A   36
 H13
A   37
 H14
A   38
 H15
A   39
 H16
A   40
 H17
A   41
 H18
A   42
 H19
A   43
 H20
A   44
 H21
A   45
 H22
A   46
 H23
M  END
>  <ref_pdb>  (60) 
x0051_0B

>  <ref_mols>  (60) 
x0969_1B,x0455_0B

>  <original SMILES>  (60) 
[H]c1nc2c(c([H])c1[H])C([H])([H])C([H])([H])C([H])([H])C2([H])C([H])([H])N([H])C(=O)c1c([H])c([H])n2c1C([H])([H])C([H])([H])C([H])([H])C2([H])[H]

>  <index>  (60) 
103

>  <∆∆G>  (60) 
-7.660761

>  <∆G_bound>  (60) 
-5.938911

>  <∆G_unbound>  (60) 
1.72185

>  <comRMSD>  (60) 
0.325776

>  <N_constrained_atoms>  (60) 
20.0

>  <N_unconstrained_atoms>  (60) 
3.0

>  <runtime>  (60) 
41.303773

>  <LE>  (60) 
0.333077

>  <percent_hybrid>  (60) 
50.0

>  <dist>  (60) 
6.0

>  <ecfp4>  (60) 
0.241379

>  <daylight>  (60) 
0.284553

>  <topodist>  (60) 
1.0

>  <mces>  (60) 
25.0

>  <tdn>  (60) 
0.0

>  <tup>  (60) 
1.0

>  <rdn>  (60) 
0.0

>  <rup>  (60) 
0.0

>  <ldn>  (60) 
0.0

>  <lup>  (60) 
0.0

>  <mut>  (60) 
4.0

>  <maj>  (60) 
4.0

>  <min>  (60) 
0.0

>  <hyb>  (60) 
1.0

>  <sub>  (60) 
0.0

>  <query_index>  (60) 
204.0

>  <max_hit_Tanimoto>  (60) 
0.237592

>  <largest_ring>  (60) 
6

>  <N_interactions_kept>  (60) 
1.5

>  <N_interactions_lost>  (60) 
1.0

>  <interaction_uniqueness_metric>  (60) 
0.202929

>  <ad_hoc_penalty>  (60) 
-32.274557

>  <N_rotatable_bonds>  (60) 
3

>  <N_HA>  (60) 
23

>  <cluster>  (60) 
6122

>  <N_interactions>  (60) 
5

>  <Enamine>  (60) 
1

>  <Mcule>  (60) 
0

>  <N_PAINS>  (60) 
0

>  <UFF_Gibbs>  (60) 
80.589604

>  <strain_per_HA>  (60) 
3.503896

>  <saltbridge:HIS:51>  (60) 
0

>  <pistack:HIS:51>  (60) 
1

>  <hydroph_interaction:HIS:51>  (60) 
1

>  <hbond:ALA:132>  (60) 
0

>  <hbond:SER:135>  (60) 
0

>  <hydroph_interaction:TYR:150>  (60) 
1

>  <pistack:TYR:161>  (60) 
0

>  <hydroph_interaction:TYR:161>  (60) 
0

>  <hydroph_interaction:ASP:83>  (60) 
1

>  <hbond:TYR:130>  (60) 
0

>  <hydroph_interaction:ALA:132>  (60) 
0

>  <hbond:HIS:51>  (60) 
0

>  <hbond:ASP:129>  (60) 
0

>  <hbond:TYR:150>  (60) 
0

>  <hbond:GLY:151>  (60) 
1

>  <hbond:TYR:161>  (60) 
0

>  <hydroph_interaction:TYR:130>  (60) 
0

>  <hydroph_interaction:PRO:131>  (60) 
0

>  <hydroph_interaction:ASP:129>  (60) 
0

>  <saltbridge:ASP:75>  (60) 
0

>  <saltbridge:ASP:83>  (60) 
0

>  <hydroph_interaction:ASN:152>  (60) 
0

>  <halogenbond:TYR:150>  (60) 
0

>  <hbond:ASP:83>  (60) 
0

>  <hydroph_interaction:VAL:155>  (60) 
0

>  <pication:TYR:161>  (60) 
0

>  <hbond:PRO:131>  (60) 
0

>  <hbond:LEU:128>  (60) 
0

>  <saltbridge:ASP:129>  (60) 
0

>  <hbond:THR:134>  (60) 
0

>  <pication:HIS:51>  (60) 
0

>  <hbond:SER:81>  (60) 
0

>  <hbond:GLY:159>  (60) 
0

>  <hydroph_interaction:PRO:101>  (60) 
0

>  <hydroph_interaction:THR:134>  (60) 
0

>  <hbond:GLY:82>  (60) 
0

>  <hydroph_interaction:GLU:104>  (60) 
0

>  <hydroph_interaction:VAL:36>  (60) 
0

>  <hydroph_interaction:MET:49>  (60) 
0

>  <halogenbond:GLU:104>  (60) 
0

>  <hydroph_interaction:LYS:107>  (60) 
0

$$$$
NGNAXSUMRCYTPD-UHFFFAOYSA-N
     RDKit          3D

 45 48  0  0  0  0  0  0  0  0999 V2000
   -9.1423    5.9583  -14.1995 C   0  0  0  0  0  0  0  0  0  0  0  0
   -8.2302    5.4272  -15.1753 N   0  0  0  0  0  0  0  0  0  0  0  0
   -8.4386    5.5173  -16.5956 C   0  0  0  0  0  0  0  0  0  0  0  0
   -7.3453    5.6375  -17.4692 C   0  0  0  0  0  0  0  0  0  0  0  0
   -7.5341    5.7094  -18.8280 C   0  0  0  0  0  0  0  0  0  0  0  0
   -6.2549    5.8560  -19.4749 C   0  0  0  0  0  0  0  0  0  0  0  0
   -5.1598    5.8856  -18.4626 C   0  0  0  0  0  0  0  0  0  0  0  0
   -5.8920    5.7321  -17.1084 C   0  0  0  0  0  0  0  0  0  0  0  0
   -6.0835    5.9491  -20.7190 O   0  0  0  0  0  0  0  0  0  0  0  0
   -8.8032    5.6492  -19.4017 C   0  0  0  0  0  0  0  0  0  0  0  0
   -9.9098    5.5055  -18.5535 C   0  0  0  0  0  0  0  0  0  0  0  0
   -9.7317    5.4346  -17.1595 C   0  0  0  0  0  0  0  0  0  0  0  0
  -10.0221    6.7910  -14.5494 O   0  0  0  0  0  0  0  0  0  0  0  0
   -9.0411    5.5413  -12.7798 C   0  0  0  0  0  0  0  0  0  0  0  0
   -9.3285    6.4242  -11.7125 C   0  0  0  0  0  0  0  0  0  0  0  0
   -9.7557    8.1134  -11.9732 Cl  0  0  0  0  0  0  0  0  0  0  0  0
   -9.2339    5.9760  -10.3892 C   0  0  0  0  0  0  0  0  0  0  0  0
   -8.8532    4.6573  -10.1020 C   0  0  0  0  0  0  0  0  0  0  0  0
   -8.7646    4.2102   -8.7355 N   0  0  0  0  0  0  0  0  0  0  0  0
   -9.2315    2.8716   -8.3624 C   0  0  0  0  0  0  0  0  0  0  0  0
   -9.6748    2.8710   -6.8961 C   0  0  0  0  0  0  0  0  0  0  0  0
   -8.6564    3.3913   -6.0621 O   0  0  0  0  0  0  0  0  0  0  0  0
   -8.4356    4.7553   -6.3691 C   0  0  0  0  0  0  0  0  0  0  0  0
   -7.8886    4.9110   -7.7911 C   0  0  0  0  0  0  0  0  0  0  0  0
   -8.5711    3.7826  -11.1611 C   0  0  0  0  0  0  0  0  0  0  0  0
   -8.6613    4.2206  -12.4836 C   0  0  0  0  0  0  0  0  0  0  0  0
   -7.3246    5.0352  -14.8322 H   0  0  0  0  0  0  0  0  0  0  0  0
   -4.4576    5.0415  -18.6329 H   0  0  0  0  0  0  0  0  0  0  0  0
   -4.6181    6.8544  -18.5133 H   0  0  0  0  0  0  0  0  0  0  0  0
   -5.7147    6.6176  -16.4608 H   0  0  0  0  0  0  0  0  0  0  0  0
   -5.5643    4.8055  -16.5900 H   0  0  0  0  0  0  0  0  0  0  0  0
   -8.9335    5.7063  -20.4747 H   0  0  0  0  0  0  0  0  0  0  0  0
  -10.9052    5.4423  -18.9736 H   0  0  0  0  0  0  0  0  0  0  0  0
  -10.5998    5.2926  -16.5298 H   0  0  0  0  0  0  0  0  0  0  0  0
   -9.4691    6.6567   -9.5807 H   0  0  0  0  0  0  0  0  0  0  0  0
  -10.0906    2.5684   -9.0001 H   0  0  0  0  0  0  0  0  0  0  0  0
   -8.4050    2.1411   -8.5003 H   0  0  0  0  0  0  0  0  0  0  0  0
  -10.6233    3.4431   -6.7762 H   0  0  0  0  0  0  0  0  0  0  0  0
   -9.8842    1.8251   -6.5880 H   0  0  0  0  0  0  0  0  0  0  0  0
   -7.6899    5.1622   -5.6541 H   0  0  0  0  0  0  0  0  0  0  0  0
   -9.3683    5.3517   -6.2438 H   0  0  0  0  0  0  0  0  0  0  0  0
   -6.8694    4.4709   -7.8461 H   0  0  0  0  0  0  0  0  0  0  0  0
   -7.8139    5.9919   -8.0347 H   0  0  0  0  0  0  0  0  0  0  0  0
   -8.2714    2.7613  -10.9648 H   0  0  0  0  0  0  0  0  0  0  0  0
   -8.4497    3.5162  -13.2786 H   0  0  0  0  0  0  0  0  0  0  0  0
  1  2  1  0
  2  3  1  0
  3  4  1  0
  4  5  2  0
  5  6  1  0
  6  7  1  0
  7  8  1  0
  6  9  2  0
  5 10  1  0
 10 11  2  0
 11 12  1  0
  1 13  2  0
  1 14  1  0
 14 15  2  0
 15 16  1  0
 15 17  1  0
 17 18  2  0
 18 19  1  0
 19 20  1  0
 20 21  1  0
 21 22  1  0
 22 23  1  0
 23 24  1  0
 18 25  1  0
 25 26  2  0
 12  3  2  0
  8  4  1  0
 26 14  1  0
 24 19  1  0
  2 27  1  0
  7 28  1  0
  7 29  1  0
  8 30  1  0
  8 31  1  0
 10 32  1  0
 11 33  1  0
 12 34  1  0
 17 35  1  0
 20 36  1  0
 20 37  1  0
 21 38  1  0
 21 39  1  0
 23 40  1  0
 23 41  1  0
 24 42  1  0
 24 43  1  0
 25 44  1  0
 26 45  1  0
A    1
 C1 
A    2
 N1 
A    3
 C2 
A    4
 C3 
A    5
 C4 
A    6
 C5 
A    7
 C6 
A    8
 C7 
A    9
 O1 
A   10
 C8 
A   11
 C9 
A   12
 C10
A   13
 O2 
A   14
 C11
A   15
 C12
A   16
CL1 
A   17
 C13
A   18
 C14
A   19
 N2 
A   20
 C15
A   21
 C16
A   22
 O3 
A   23
 C17
A   24
 C18
A   25
 C19
A   26
 C20
A   27
 H1 
A   28
 H2 
A   29
 H3 
A   30
 H4 
A   31
 H5 
A   32
 H6 
A   33
 H7 
A   34
 H8 
A   35
 H9 
A   36
 H10
A   37
 H11
A   38
 H12
A   39
 H13
A   40
 H14
A   41
 H15
A   42
 H16
A   43
 H17
A   44
 H18
A   45
 H19
M  END
>  <ref_pdb>  (61) 
x0051_0B

>  <ref_mols>  (61) 
x0435_0B,x0404_0B

>  <original SMILES>  (61) 
[H]c1c([H])c2c(c(N([H])C(=O)c3c([H])c([H])c(N4C([H])([H])C([H])([H])OC([H])([H])C4([H])[H])c([H])c3Cl)c1[H])C([H])([H])C([H])([H])C2=O

>  <index>  (61) 
97

>  <∆∆G>  (61) 
-7.62368

>  <∆G_bound>  (61) 
-6.748519

>  <∆G_unbound>  (61) 
0.87516

>  <comRMSD>  (61) 
0.502044

>  <N_constrained_atoms>  (61) 
25.0

>  <N_unconstrained_atoms>  (61) 
1.0

>  <runtime>  (61) 
79.669917

>  <LE>  (61) 
0.293218

>  <percent_hybrid>  (61) 
40.0

>  <dist>  (61) 
10.0

>  <ecfp4>  (61) 
0.150538

>  <daylight>  (61) 
0.193878

>  <topodist>  (61) 
3.0

>  <mces>  (61) 
28.0

>  <tdn>  (61) 
1.0

>  <tup>  (61) 
1.0

>  <rdn>  (61) 
0.0

>  <rup>  (61) 
0.0

>  <ldn>  (61) 
1.0

>  <lup>  (61) 
0.0

>  <mut>  (61) 
6.0

>  <maj>  (61) 
6.0

>  <min>  (61) 
0.0

>  <hyb>  (61) 
1.0

>  <sub>  (61) 
1.0

>  <query_index>  (61) 
26.0

>  <max_hit_Tanimoto>  (61) 
0.202595

>  <largest_ring>  (61) 
6

>  <N_interactions_kept>  (61) 
3.0

>  <N_interactions_lost>  (61) 
1.5

>  <interaction_uniqueness_metric>  (61) 
0.104006

>  <ad_hoc_penalty>  (61) 
-32.245883

>  <N_rotatable_bonds>  (61) 
3

>  <N_HA>  (61) 
26

>  <cluster>  (61) 
6127

>  <N_interactions>  (61) 
6

>  <Enamine>  (61) 
0

>  <Mcule>  (61) 
1

>  <N_PAINS>  (61) 
0

>  <UFF_Gibbs>  (61) 
88.604896

>  <strain_per_HA>  (61) 
3.407881

>  <saltbridge:HIS:51>  (61) 
0

>  <pistack:HIS:51>  (61) 
1

>  <hydroph_interaction:HIS:51>  (61) 
1

>  <hbond:ALA:132>  (61) 
0

>  <hbond:SER:135>  (61) 
0

>  <hydroph_interaction:TYR:150>  (61) 
0

>  <pistack:TYR:161>  (61) 
0

>  <hydroph_interaction:TYR:161>  (61) 
3

>  <hydroph_interaction:ASP:83>  (61) 
0

>  <hbond:TYR:130>  (61) 
0

>  <hydroph_interaction:ALA:132>  (61) 
1

>  <hbond:HIS:51>  (61) 
0

>  <hbond:ASP:129>  (61) 
0

>  <hbond:TYR:150>  (61) 
0

>  <hbond:GLY:151>  (61) 
0

>  <hbond:TYR:161>  (61) 
0

>  <hydroph_interaction:TYR:130>  (61) 
0

>  <hydroph_interaction:PRO:131>  (61) 
0

>  <hydroph_interaction:ASP:129>  (61) 
0

>  <saltbridge:ASP:75>  (61) 
0

>  <saltbridge:ASP:83>  (61) 
0

>  <hydroph_interaction:ASN:152>  (61) 
0

>  <halogenbond:TYR:150>  (61) 
0

>  <hbond:ASP:83>  (61) 
0

>  <hydroph_interaction:VAL:155>  (61) 
0

>  <pication:TYR:161>  (61) 
0

>  <hbond:PRO:131>  (61) 
0

>  <hbond:LEU:128>  (61) 
0

>  <saltbridge:ASP:129>  (61) 
0

>  <hbond:THR:134>  (61) 
0

>  <pication:HIS:51>  (61) 
0

>  <hbond:SER:81>  (61) 
0

>  <hbond:GLY:159>  (61) 
0

>  <hydroph_interaction:PRO:101>  (61) 
0

>  <hydroph_interaction:THR:134>  (61) 
0

>  <hbond:GLY:82>  (61) 
0

>  <hydroph_interaction:GLU:104>  (61) 
0

>  <hydroph_interaction:VAL:36>  (61) 
0

>  <hydroph_interaction:MET:49>  (61) 
0

>  <halogenbond:GLU:104>  (61) 
0

>  <hydroph_interaction:LYS:107>  (61) 
0

$$$$
Z1472555402
     RDKit          3D

 38 39  0  0  0  0  0  0  0  0999 V2000
   -2.0822    4.9638  -19.2129 C   0  0  0  0  0  0  0  0  0  0  0  0
   -2.8419    6.1843  -19.7428 C   0  0  0  0  0  0  0  0  0  0  0  0
   -2.7447    7.3756  -18.7840 C   0  0  0  0  0  0  0  0  0  0  0  0
   -4.2413    5.8526  -20.0397 N   0  0  0  0  0  0  0  0  0  0  0  0
   -5.2100    5.4297  -19.0658 C   0  0  0  0  0  0  0  0  0  0  0  0
   -4.8784    5.2838  -17.8582 O   0  0  0  0  0  0  0  0  0  0  0  0
   -6.5511    5.1355  -19.4862 N   0  0  0  0  0  0  0  0  0  0  0  0
   -7.6494    4.9230  -18.5825 C   0  0  0  0  0  0  0  0  0  0  0  0
   -8.6669    4.0292  -18.9382 C   0  0  0  0  0  0  0  0  0  0  0  0
   -9.7656    3.8422  -18.0999 C   0  0  0  0  0  0  0  0  0  0  0  0
   -9.8579    4.5412  -16.8949 C   0  0  0  0  0  0  0  0  0  0  0  0
   -8.8351    5.4250  -16.4957 C   0  0  0  0  0  0  0  0  0  0  0  0
   -8.9765    6.2555  -15.2231 C   0  0  0  0  0  0  0  0  0  0  0  0
   -9.7691    5.5580  -14.0864 C   0  0  0  0  0  0  0  0  0  0  0  0
   -9.1812    6.0356  -12.8513 N   0  0  0  0  0  0  0  0  0  0  0  0
   -7.9421    6.6435  -13.1358 C   0  0  0  0  0  0  0  0  0  0  0  0
   -7.1706    7.0751  -12.2394 O   0  0  0  0  0  0  0  0  0  0  0  0
   -7.6316    6.6672  -14.5787 C   0  0  0  0  0  0  0  0  0  0  0  0
   -7.7591    5.6458  -17.3808 C   0  0  0  0  0  0  0  0  0  0  0  0
   -2.2086    4.1086  -19.9102 H   0  0  0  0  0  0  0  0  0  0  0  0
   -2.4447    4.6648  -18.2079 H   0  0  0  0  0  0  0  0  0  0  0  0
   -0.9986    5.1969  -19.1385 H   0  0  0  0  0  0  0  0  0  0  0  0
   -2.3515    6.4882  -20.6946 H   0  0  0  0  0  0  0  0  0  0  0  0
   -3.1200    7.1146  -17.7731 H   0  0  0  0  0  0  0  0  0  0  0  0
   -1.6864    7.7001  -18.6912 H   0  0  0  0  0  0  0  0  0  0  0  0
   -3.3381    8.2273  -19.1790 H   0  0  0  0  0  0  0  0  0  0  0  0
   -4.5567    5.9441  -21.0318 H   0  0  0  0  0  0  0  0  0  0  0  0
   -6.7174    4.9847  -20.5069 H   0  0  0  0  0  0  0  0  0  0  0  0
   -8.6102    3.4816  -19.8706 H   0  0  0  0  0  0  0  0  0  0  0  0
  -10.5552    3.1610  -18.3903 H   0  0  0  0  0  0  0  0  0  0  0  0
  -10.7403    4.3981  -16.2854 H   0  0  0  0  0  0  0  0  0  0  0  0
   -9.5226    7.1875  -15.4923 H   0  0  0  0  0  0  0  0  0  0  0  0
   -9.6481    4.4535  -14.1273 H   0  0  0  0  0  0  0  0  0  0  0  0
  -10.8472    5.8236  -14.1264 H   0  0  0  0  0  0  0  0  0  0  0  0
   -9.5248    5.7992  -11.8940 H   0  0  0  0  0  0  0  0  0  0  0  0
   -7.3164    7.6821  -14.9039 H   0  0  0  0  0  0  0  0  0  0  0  0
   -6.8314    5.9217  -14.7776 H   0  0  0  0  0  0  0  0  0  0  0  0
   -7.0222    6.4036  -17.1529 H   0  0  0  0  0  0  0  0  0  0  0  0
  1  2  1  0
  2  3  1  0
  2  4  1  0
  4  5  1  0
  5  6  2  0
  5  7  1  0
  7  8  1  0
  8  9  2  0
  9 10  1  0
 10 11  2  0
 11 12  1  0
 12 13  1  0
 13 14  1  0
 14 15  1  0
 15 16  1  0
 16 17  2  0
 16 18  1  0
 12 19  2  0
 19  8  1  0
 18 13  1  0
  1 20  1  0
  1 21  1  0
  1 22  1  0
  2 23  1  0
  3 24  1  0
  3 25  1  0
  3 26  1  0
  4 27  1  0
  7 28  1  0
  9 29  1  0
 10 30  1  0
 11 31  1  0
 13 32  1  0
 14 33  1  0
 14 34  1  0
 15 35  1  0
 18 36  1  0
 18 37  1  0
 19 38  1  0
A    1
 C1 
A    2
 C2 
A    3
 C3 
A    4
 N1 
A    5
 C4 
A    6
 O1 
A    7
 N2 
A    8
 C5 
A    9
 C6 
A   10
 C7 
A   11
 C8 
A   12
 C9 
A   13
 C10
A   14
 C11
A   15
 N3 
A   16
 C12
A   17
 O2 
A   18
 C13
A   19
 C14
A   20
 H1 
A   21
 H2 
A   22
 H3 
A   23
 H4 
A   24
 H5 
A   25
 H6 
A   26
 H7 
A   27
 H8 
A   28
 H9 
A   29
 H10
A   30
 H11
A   31
 H12
A   32
 H13
A   33
 H14
A   34
 H15
A   35
 H16
A   36
 H17
A   37
 H18
A   38
 H19
M  END
>  <ref_pdb>  (62) 
x0051_0B

>  <ref_mols>  (62) 
x0089_0B,x0951_0B

>  <original SMILES>  (62) 
[H]c1c([H])c(N([H])C(=O)N([H])C([H])(C([H])([H])[H])C([H])([H])[H])c([H])c(C2([H])C([H])([H])C(=O)N([H])C2([H])[H])c1[H]

>  <index>  (62) 
82

>  <∆∆G>  (62) 
-6.668067

>  <∆G_bound>  (62) 
-6.310454

>  <∆G_unbound>  (62) 
0.357613

>  <comRMSD>  (62) 
0.891653

>  <N_constrained_atoms>  (62) 
19.0

>  <N_unconstrained_atoms>  (62) 
1.0

>  <runtime>  (62) 
60.369216

>  <LE>  (62) 
0.333403

>  <percent_hybrid>  (62) 
47.0

>  <dist>  (62) 
6.0

>  <ecfp4>  (62) 
0.28125

>  <daylight>  (62) 
0.544

>  <topodist>  (62) 
1.0

>  <mces>  (62) 
19.0

>  <tdn>  (62) 
0.0

>  <tup>  (62) 
0.0

>  <rdn>  (62) 
0.0

>  <rup>  (62) 
1.0

>  <ldn>  (62) 
0.0

>  <lup>  (62) 
0.0

>  <mut>  (62) 
4.0

>  <maj>  (62) 
4.0

>  <min>  (62) 
0.0

>  <hyb>  (62) 
1.0

>  <sub>  (62) 
1.0

>  <query_index>  (62) 
292.0

>  <max_hit_Tanimoto>  (62) 
0.136038

>  <largest_ring>  (62) 
6

>  <N_interactions_kept>  (62) 
2.0

>  <N_interactions_lost>  (62) 
1.5

>  <interaction_uniqueness_metric>  (62) 
0.185013

>  <ad_hoc_penalty>  (62) 
-32.229949

>  <N_rotatable_bonds>  (62) 
5

>  <N_HA>  (62) 
19

>  <cluster>  (62) 
6142

>  <N_interactions>  (62) 
8

>  <Enamine>  (62) 
1

>  <Mcule>  (62) 
0

>  <N_PAINS>  (62) 
0

>  <UFF_Gibbs>  (62) 
98.21096

>  <strain_per_HA>  (62) 
4.910548

>  <saltbridge:HIS:51>  (62) 
0

>  <pistack:HIS:51>  (62) 
0

>  <hydroph_interaction:HIS:51>  (62) 
0

>  <hbond:ALA:132>  (62) 
0

>  <hbond:SER:135>  (62) 
0

>  <hydroph_interaction:TYR:150>  (62) 
1

>  <pistack:TYR:161>  (62) 
0

>  <hydroph_interaction:TYR:161>  (62) 
3

>  <hydroph_interaction:ASP:83>  (62) 
0

>  <hbond:TYR:130>  (62) 
1

>  <hydroph_interaction:ALA:132>  (62) 
1

>  <hbond:HIS:51>  (62) 
1

>  <hbond:ASP:129>  (62) 
0

>  <hbond:TYR:150>  (62) 
0

>  <hbond:GLY:151>  (62) 
0

>  <hbond:TYR:161>  (62) 
0

>  <hydroph_interaction:TYR:130>  (62) 
0

>  <hydroph_interaction:PRO:131>  (62) 
0

>  <hydroph_interaction:ASP:129>  (62) 
0

>  <saltbridge:ASP:75>  (62) 
0

>  <saltbridge:ASP:83>  (62) 
0

>  <hydroph_interaction:ASN:152>  (62) 
0

>  <halogenbond:TYR:150>  (62) 
0

>  <hbond:ASP:83>  (62) 
0

>  <hydroph_interaction:VAL:155>  (62) 
1

>  <pication:TYR:161>  (62) 
0

>  <hbond:PRO:131>  (62) 
0

>  <hbond:LEU:128>  (62) 
0

>  <saltbridge:ASP:129>  (62) 
0

>  <hbond:THR:134>  (62) 
0

>  <pication:HIS:51>  (62) 
0

>  <hbond:SER:81>  (62) 
0

>  <hbond:GLY:159>  (62) 
0

>  <hydroph_interaction:PRO:101>  (62) 
0

>  <hydroph_interaction:THR:134>  (62) 
0

>  <hbond:GLY:82>  (62) 
0

>  <hydroph_interaction:GLU:104>  (62) 
0

>  <hydroph_interaction:VAL:36>  (62) 
0

>  <hydroph_interaction:MET:49>  (62) 
0

>  <halogenbond:GLU:104>  (62) 
0

>  <hydroph_interaction:LYS:107>  (62) 
0

$$$$
XQLHBAQCEZUXGO-UHFFFAOYSA-N
     RDKit          3D

 38 41  0  0  0  0  0  0  0  0999 V2000
   -7.7424    5.5848  -13.2381 O   0  0  0  0  0  0  0  0  0  0  0  0
   -8.4528    6.4953  -12.4459 C   0  0  0  0  0  0  0  0  0  0  0  0
   -8.6927    7.6621  -12.8600 O   0  0  0  0  0  0  0  0  0  0  0  0
   -8.9259    6.0817  -11.1206 C   0  0  0  0  0  0  0  0  0  0  0  0
   -8.7691    4.8612  -10.5097 C   0  0  0  0  0  0  0  0  0  0  0  0
   -9.3590    4.8879   -9.3106 N   0  0  0  0  0  0  0  0  0  0  0  0
   -9.3528    3.7672   -8.3748 C   0  0  0  0  0  0  0  0  0  0  0  0
   -9.0925    2.4491   -9.1332 C   0  0  0  0  0  0  0  0  0  0  0  0
   -7.9253    2.6047  -10.1312 C   0  0  0  0  0  0  0  0  0  0  0  0
   -8.1349    3.7221  -11.0000 O   0  0  0  0  0  0  0  0  0  0  0  0
   -9.8789    6.0849   -9.0910 N   0  0  0  0  0  0  0  0  0  0  0  0
   -9.6323    6.8348  -10.1909 C   0  0  0  0  0  0  0  0  0  0  0  0
   -7.2664    5.8687  -14.5561 C   0  0  0  0  0  0  0  0  0  0  0  0
   -8.2182    5.3173  -15.6041 C   0  0  0  0  0  0  0  0  0  0  0  0
   -7.7035    4.7710  -16.8009 C   0  0  0  0  0  0  0  0  0  0  0  0
   -8.5728    4.2809  -17.7812 C   0  0  0  0  0  0  0  0  0  0  0  0
   -9.9548    4.3567  -17.5958 C   0  0  0  0  0  0  0  0  0  0  0  0
  -10.4736    4.9261  -16.4312 C   0  0  0  0  0  0  0  0  0  0  0  0
   -9.6128    5.4118  -15.4426 C   0  0  0  0  0  0  0  0  0  0  0  0
   -6.3221    4.6958  -17.0111 O   0  0  0  0  0  0  0  0  0  0  0  0
   -5.3893    5.3429  -16.1488 C   0  0  0  0  0  0  0  0  0  0  0  0
   -5.8653    5.2529  -14.6990 C   0  0  0  0  0  0  0  0  0  0  0  0
  -10.3298    3.7095   -7.8488 H   0  0  0  0  0  0  0  0  0  0  0  0
   -8.5513    3.9281   -7.6222 H   0  0  0  0  0  0  0  0  0  0  0  0
  -10.0093    2.1653   -9.6943 H   0  0  0  0  0  0  0  0  0  0  0  0
   -8.8630    1.6386   -8.4087 H   0  0  0  0  0  0  0  0  0  0  0  0
   -7.8216    1.6818  -10.7394 H   0  0  0  0  0  0  0  0  0  0  0  0
   -6.9805    2.7590   -9.5667 H   0  0  0  0  0  0  0  0  0  0  0  0
   -9.9442    7.8645  -10.3055 H   0  0  0  0  0  0  0  0  0  0  0  0
   -7.1713    6.9667  -14.7102 H   0  0  0  0  0  0  0  0  0  0  0  0
   -8.1756    3.8483  -18.6906 H   0  0  0  0  0  0  0  0  0  0  0  0
  -10.6243    3.9808  -18.3587 H   0  0  0  0  0  0  0  0  0  0  0  0
  -11.5452    4.9943  -16.2951 H   0  0  0  0  0  0  0  0  0  0  0  0
  -10.0411    5.8579  -14.5563 H   0  0  0  0  0  0  0  0  0  0  0  0
   -4.3963    4.8575  -16.2529 H   0  0  0  0  0  0  0  0  0  0  0  0
   -5.2935    6.4095  -16.4466 H   0  0  0  0  0  0  0  0  0  0  0  0
   -5.1510    5.7905  -14.0385 H   0  0  0  0  0  0  0  0  0  0  0  0
   -5.8905    4.1845  -14.3899 H   0  0  0  0  0  0  0  0  0  0  0  0
  1  2  1  0
  2  3  2  0
  2  4  1  0
  4  5  2  0
  5  6  1  0
  6  7  1  0
  7  8  1  0
  8  9  1  0
  9 10  1  0
  6 11  1  0
 11 12  2  0
  1 13  1  0
 13 14  1  0
 14 15  1  0
 15 16  2  0
 16 17  1  0
 17 18  2  0
 18 19  1  0
 15 20  1  0
 20 21  1  0
 21 22  1  0
 12  4  1  0
 10  5  1  0
 22 13  1  0
 19 14  2  0
  7 23  1  0
  7 24  1  0
  8 25  1  0
  8 26  1  0
  9 27  1  0
  9 28  1  0
 12 29  1  0
 13 30  1  0
 16 31  1  0
 17 32  1  0
 18 33  1  0
 19 34  1  0
 21 35  1  0
 21 36  1  0
 22 37  1  0
 22 38  1  0
A    1
 O1 
A    2
 C1 
A    3
 O2 
A    4
 C2 
A    5
 C3 
A    6
 N1 
A    7
 C4 
A    8
 C5 
A    9
 C6 
A   10
 O3 
A   11
 N2 
A   12
 C7 
A   13
 C8 
A   14
 C9 
A   15
 C10
A   16
 C11
A   17
 C12
A   18
 C13
A   19
 C14
A   20
 O4 
A   21
 C15
A   22
 C16
A   23
 H1 
A   24
 H2 
A   25
 H3 
A   26
 H4 
A   27
 H5 
A   28
 H6 
A   29
 H7 
A   30
 H8 
A   31
 H9 
A   32
 H10
A   33
 H11
A   34
 H12
A   35
 H13
A   36
 H14
A   37
 H15
A   38
 H16
M  END
>  <ref_pdb>  (63) 
x0051_0B

>  <ref_mols>  (63) 
x0969_1B,x0455_0B

>  <original SMILES>  (63) 
[H]c1nn2c(c1C(=O)OC1([H])c3c([H])c([H])c([H])c([H])c3OC([H])([H])C1([H])[H])OC([H])([H])C([H])([H])C2([H])[H]

>  <index>  (63) 
118

>  <∆∆G>  (63) 
-6.495939

>  <∆G_bound>  (63) 
-5.287713

>  <∆G_unbound>  (63) 
1.208227

>  <comRMSD>  (63) 
0.51774

>  <N_constrained_atoms>  (63) 
20.0

>  <N_unconstrained_atoms>  (63) 
2.0

>  <runtime>  (63) 
47.401294

>  <LE>  (63) 
0.29527

>  <percent_hybrid>  (63) 
50.0

>  <dist>  (63) 
7.0

>  <ecfp4>  (63) 
0.223529

>  <daylight>  (63) 
0.279133

>  <topodist>  (63) 
2.0

>  <mces>  (63) 
24.0

>  <tdn>  (63) 
0.0

>  <tup>  (63) 
1.0

>  <rdn>  (63) 
0.0

>  <rup>  (63) 
0.0

>  <ldn>  (63) 
1.0

>  <lup>  (63) 
0.0

>  <mut>  (63) 
4.0

>  <maj>  (63) 
4.0

>  <min>  (63) 
0.0

>  <hyb>  (63) 
1.0

>  <sub>  (63) 
0.0

>  <query_index>  (63) 
204.0

>  <max_hit_Tanimoto>  (63) 
0.232745

>  <largest_ring>  (63) 
6

>  <N_interactions_kept>  (63) 
1.5

>  <N_interactions_lost>  (63) 
1.0

>  <interaction_uniqueness_metric>  (63) 
0.145613

>  <ad_hoc_penalty>  (63) 
-32.228028

>  <N_rotatable_bonds>  (63) 
2

>  <N_HA>  (63) 
22

>  <cluster>  (63) 
6109

>  <N_interactions>  (63) 
5

>  <Enamine>  (63) 
0

>  <Mcule>  (63) 
1

>  <N_PAINS>  (63) 
0

>  <UFF_Gibbs>  (63) 
52.905605

>  <strain_per_HA>  (63) 
2.4048

>  <saltbridge:HIS:51>  (63) 
1

>  <pistack:HIS:51>  (63) 
1

>  <hydroph_interaction:HIS:51>  (63) 
0

>  <hbond:ALA:132>  (63) 
0

>  <hbond:SER:135>  (63) 
0

>  <hydroph_interaction:TYR:150>  (63) 
1

>  <pistack:TYR:161>  (63) 
0

>  <hydroph_interaction:TYR:161>  (63) 
2

>  <hydroph_interaction:ASP:83>  (63) 
0

>  <hbond:TYR:130>  (63) 
0

>  <hydroph_interaction:ALA:132>  (63) 
0

>  <hbond:HIS:51>  (63) 
0

>  <hbond:ASP:129>  (63) 
0

>  <hbond:TYR:150>  (63) 
0

>  <hbond:GLY:151>  (63) 
0

>  <hbond:TYR:161>  (63) 
0

>  <hydroph_interaction:TYR:130>  (63) 
0

>  <hydroph_interaction:PRO:131>  (63) 
0

>  <hydroph_interaction:ASP:129>  (63) 
0

>  <saltbridge:ASP:75>  (63) 
0

>  <saltbridge:ASP:83>  (63) 
0

>  <hydroph_interaction:ASN:152>  (63) 
0

>  <halogenbond:TYR:150>  (63) 
0

>  <hbond:ASP:83>  (63) 
0

>  <hydroph_interaction:VAL:155>  (63) 
0

>  <pication:TYR:161>  (63) 
0

>  <hbond:PRO:131>  (63) 
0

>  <hbond:LEU:128>  (63) 
0

>  <saltbridge:ASP:129>  (63) 
0

>  <hbond:THR:134>  (63) 
0

>  <pication:HIS:51>  (63) 
0

>  <hbond:SER:81>  (63) 
0

>  <hbond:GLY:159>  (63) 
0

>  <hydroph_interaction:PRO:101>  (63) 
0

>  <hydroph_interaction:THR:134>  (63) 
0

>  <hbond:GLY:82>  (63) 
0

>  <hydroph_interaction:GLU:104>  (63) 
0

>  <hydroph_interaction:VAL:36>  (63) 
0

>  <hydroph_interaction:MET:49>  (63) 
0

>  <halogenbond:GLU:104>  (63) 
0

>  <hydroph_interaction:LYS:107>  (63) 
0

$$$$
Z2312665400
     RDKit          3D

 37 39  0  0  0  0  0  0  0  0999 V2000
   -8.7934    5.9375  -18.4869 C   0  0  0  0  0  0  0  0  0  0  0  0
   -8.6120    4.9612  -17.3689 C   0  0  0  0  0  0  0  0  0  0  0  0
   -9.6459    4.7371  -16.4503 C   0  0  0  0  0  0  0  0  0  0  0  0
   -9.4592    3.8136  -15.4116 C   0  0  0  0  0  0  0  0  0  0  0  0
  -10.5399    3.5705  -14.3944 C   0  0  0  0  0  0  0  0  0  0  0  0
  -10.1236    4.0349  -13.1128 O   0  0  0  0  0  0  0  0  0  0  0  0
  -10.0150    5.3902  -12.7832 C   0  0  0  0  0  0  0  0  0  0  0  0
  -10.3864    6.2780  -13.5987 O   0  0  0  0  0  0  0  0  0  0  0  0
   -9.4732    5.7865  -11.4746 C   0  0  0  0  0  0  0  0  0  0  0  0
   -8.9345    4.9852  -10.4844 C   0  0  0  0  0  0  0  0  0  0  0  0
   -8.7973    3.4889  -10.4633 C   0  0  0  0  0  0  0  0  0  0  0  0
   -7.8687    3.0448   -9.3214 C   0  0  0  0  0  0  0  0  0  0  0  0
   -8.1767    3.7988   -8.0181 C   0  0  0  0  0  0  0  0  0  0  0  0
   -7.9748    5.3107   -8.2045 C   0  0  0  0  0  0  0  0  0  0  0  0
   -8.6160    5.7668   -9.4362 N   0  0  0  0  0  0  0  0  0  0  0  0
   -8.8794    7.0330   -9.7174 N   0  0  0  0  0  0  0  0  0  0  0  0
   -9.4100    7.0712  -10.9576 C   0  0  0  0  0  0  0  0  0  0  0  0
   -8.2374    3.1349  -15.3094 C   0  0  0  0  0  0  0  0  0  0  0  0
   -7.2317    3.3841  -16.2464 C   0  0  0  0  0  0  0  0  0  0  0  0
   -5.5609    2.4718  -16.1282 Br  0  0  0  0  0  0  0  0  0  0  0  0
   -7.4392    4.2814  -17.2460 N   0  0  0  0  0  0  0  0  0  0  0  0
   -9.6071    5.5894  -19.1579 H   0  0  0  0  0  0  0  0  0  0  0  0
   -9.0577    6.9352  -18.0766 H   0  0  0  0  0  0  0  0  0  0  0  0
   -7.8580    6.0321  -19.0787 H   0  0  0  0  0  0  0  0  0  0  0  0
  -10.5800    5.2785  -16.5426 H   0  0  0  0  0  0  0  0  0  0  0  0
  -11.4958    4.0599  -14.6840 H   0  0  0  0  0  0  0  0  0  0  0  0
  -10.7339    2.4791  -14.3303 H   0  0  0  0  0  0  0  0  0  0  0  0
   -8.3792    3.1309  -11.4280 H   0  0  0  0  0  0  0  0  0  0  0  0
   -9.8037    3.0401  -10.3199 H   0  0  0  0  0  0  0  0  0  0  0  0
   -7.9891    1.9528   -9.1545 H   0  0  0  0  0  0  0  0  0  0  0  0
   -6.8107    3.2302   -9.6112 H   0  0  0  0  0  0  0  0  0  0  0  0
   -7.5079    3.4338   -7.2092 H   0  0  0  0  0  0  0  0  0  0  0  0
   -9.2279    3.5988   -7.7150 H   0  0  0  0  0  0  0  0  0  0  0  0
   -8.4045    5.8523   -7.3346 H   0  0  0  0  0  0  0  0  0  0  0  0
   -6.8879    5.5360   -8.2585 H   0  0  0  0  0  0  0  0  0  0  0  0
   -9.7367    7.9776  -11.4499 H   0  0  0  0  0  0  0  0  0  0  0  0
   -8.0688    2.4242  -14.5094 H   0  0  0  0  0  0  0  0  0  0  0  0
  1  2  1  0
  2  3  2  0
  3  4  1  0
  4  5  1  0
  5  6  1  0
  6  7  1  0
  7  8  2  0
  7  9  1  0
  9 10  2  0
 10 11  1  0
 11 12  1  0
 12 13  1  0
 13 14  1  0
 14 15  1  0
 15 16  1  0
 16 17  2  0
  4 18  2  0
 18 19  1  0
 19 20  1  0
 19 21  2  0
 21  2  1  0
 17  9  1  0
 15 10  1  0
  1 22  1  0
  1 23  1  0
  1 24  1  0
  3 25  1  0
  5 26  1  0
  5 27  1  0
 11 28  1  0
 11 29  1  0
 12 30  1  0
 12 31  1  0
 13 32  1  0
 13 33  1  0
 14 34  1  0
 14 35  1  0
 17 36  1  0
 18 37  1  0
A    1
 C1 
A    2
 C2 
A    3
 C3 
A    4
 C4 
A    5
 C5 
A    6
 O1 
A    7
 C6 
A    8
 O2 
A    9
 C7 
A   10
 C8 
A   11
 C9 
A   12
 C10
A   13
 C11
A   14
 C12
A   15
 N1 
A   16
 N2 
A   17
 C13
A   18
 C14
A   19
 C15
A   20
BR1 
A   21
 N3 
A   22
 H1 
A   23
 H2 
A   24
 H3 
A   25
 H4 
A   26
 H5 
A   27
 H6 
A   28
 H7 
A   29
 H8 
A   30
 H9 
A   31
 H10
A   32
 H11
A   33
 H12
A   34
 H13
A   35
 H14
A   36
 H15
A   37
 H16
M  END
>  <ref_pdb>  (64) 
x0051_0B

>  <ref_mols>  (64) 
x0969_1B,x0589_0B

>  <original SMILES>  (64) 
[H]c1nn2c(c1C(=O)OC([H])([H])c1c([H])c(Br)nc(C([H])([H])[H])c1[H])C([H])([H])C([H])([H])C([H])([H])C2([H])[H]

>  <index>  (64) 
104

>  <∆∆G>  (64) 
-7.314185

>  <∆G_bound>  (64) 
-6.665988

>  <∆G_unbound>  (64) 
0.648197

>  <comRMSD>  (64) 
0.684716

>  <N_constrained_atoms>  (64) 
17.0

>  <N_unconstrained_atoms>  (64) 
5.0

>  <runtime>  (64) 
41.547318

>  <LE>  (64) 
0.332463

>  <percent_hybrid>  (64) 
42.0

>  <dist>  (64) 
4.0

>  <ecfp4>  (64) 
0.311688

>  <daylight>  (64) 
0.404412

>  <topodist>  (64) 
1.0

>  <mces>  (64) 
22.0

>  <tdn>  (64) 
0.0

>  <tup>  (64) 
1.0

>  <rdn>  (64) 
0.0

>  <rup>  (64) 
0.0

>  <ldn>  (64) 
0.0

>  <lup>  (64) 
0.0

>  <mut>  (64) 
2.0

>  <maj>  (64) 
2.0

>  <min>  (64) 
0.0

>  <hyb>  (64) 
1.0

>  <sub>  (64) 
0.0

>  <query_index>  (64) 
380.0

>  <max_hit_Tanimoto>  (64) 
0.31094

>  <largest_ring>  (64) 
6

>  <N_interactions_kept>  (64) 
1.5

>  <N_interactions_lost>  (64) 
1.0

>  <interaction_uniqueness_metric>  (64) 
0.239017

>  <ad_hoc_penalty>  (64) 
-32.155963

>  <N_rotatable_bonds>  (64) 
4

>  <N_HA>  (64) 
21

>  <cluster>  (64) 
530

>  <N_interactions>  (64) 
6

>  <Enamine>  (64) 
1

>  <Mcule>  (64) 
0

>  <N_PAINS>  (64) 
0

>  <UFF_Gibbs>  (64) 
83.113398

>  <strain_per_HA>  (64) 
3.777882

>  <saltbridge:HIS:51>  (64) 
1

>  <pistack:HIS:51>  (64) 
1

>  <hydroph_interaction:HIS:51>  (64) 
0

>  <hbond:ALA:132>  (64) 
0

>  <hbond:SER:135>  (64) 
0

>  <hydroph_interaction:TYR:150>  (64) 
1

>  <pistack:TYR:161>  (64) 
1

>  <hydroph_interaction:TYR:161>  (64) 
1

>  <hydroph_interaction:ASP:83>  (64) 
1

>  <hbond:TYR:130>  (64) 
0

>  <hydroph_interaction:ALA:132>  (64) 
0

>  <hbond:HIS:51>  (64) 
0

>  <hbond:ASP:129>  (64) 
0

>  <hbond:TYR:150>  (64) 
0

>  <hbond:GLY:151>  (64) 
0

>  <hbond:TYR:161>  (64) 
0

>  <hydroph_interaction:TYR:130>  (64) 
0

>  <hydroph_interaction:PRO:131>  (64) 
0

>  <hydroph_interaction:ASP:129>  (64) 
0

>  <saltbridge:ASP:75>  (64) 
0

>  <saltbridge:ASP:83>  (64) 
0

>  <hydroph_interaction:ASN:152>  (64) 
0

>  <halogenbond:TYR:150>  (64) 
0

>  <hbond:ASP:83>  (64) 
0

>  <hydroph_interaction:VAL:155>  (64) 
0

>  <pication:TYR:161>  (64) 
0

>  <hbond:PRO:131>  (64) 
0

>  <hbond:LEU:128>  (64) 
0

>  <saltbridge:ASP:129>  (64) 
0

>  <hbond:THR:134>  (64) 
0

>  <pication:HIS:51>  (64) 
0

>  <hbond:SER:81>  (64) 
0

>  <hbond:GLY:159>  (64) 
0

>  <hydroph_interaction:PRO:101>  (64) 
0

>  <hydroph_interaction:THR:134>  (64) 
0

>  <hbond:GLY:82>  (64) 
0

>  <hydroph_interaction:GLU:104>  (64) 
0

>  <hydroph_interaction:VAL:36>  (64) 
0

>  <hydroph_interaction:MET:49>  (64) 
0

>  <halogenbond:GLU:104>  (64) 
0

>  <hydroph_interaction:LYS:107>  (64) 
0

$$$$
Z1320305091
     RDKit          3D

 46 48  0  0  0  0  0  0  0  0999 V2000
   -5.0901    5.0832  -18.5461 C   0  0  0  0  0  0  0  0  0  0  0  0
   -6.5493    5.2180  -18.2252 C   0  0  0  0  0  0  0  0  0  0  0  0
   -7.5166    4.9029  -19.1904 C   0  0  0  0  0  0  0  0  0  0  0  0
   -8.8741    5.0563  -18.9004 C   0  0  0  0  0  0  0  0  0  0  0  0
   -9.2765    5.5433  -17.6540 C   0  0  0  0  0  0  0  0  0  0  0  0
   -8.3178    5.8959  -16.6875 C   0  0  0  0  0  0  0  0  0  0  0  0
   -8.7050    6.3936  -15.3962 N   0  0  0  0  0  0  0  0  0  0  0  0
   -9.9665    6.9712  -15.1609 N   0  0  0  0  0  0  0  0  0  0  0  0
  -10.4106    7.2885  -13.8348 C   0  0  0  0  0  0  0  0  0  0  0  0
  -11.1998    8.2579  -13.6728 O   0  0  0  0  0  0  0  0  0  0  0  0
   -9.9831    6.4960  -12.6585 C   0  0  0  0  0  0  0  0  0  0  0  0
   -9.8897    7.1041  -11.3956 C   0  0  0  0  0  0  0  0  0  0  0  0
   -9.4990    6.3607  -10.2783 C   0  0  0  0  0  0  0  0  0  0  0  0
   -9.2045    4.9944  -10.4006 C   0  0  0  0  0  0  0  0  0  0  0  0
   -8.8057    4.2342   -9.2443 N   0  0  0  0  0  0  0  0  0  0  0  0
   -9.3313    2.8797   -9.0285 C   0  0  0  0  0  0  0  0  0  0  0  0
   -9.5812    2.6398   -7.5362 C   0  0  0  0  0  0  0  0  0  0  0  0
   -8.3368    2.9817   -6.7093 C   0  0  0  0  0  0  0  0  0  0  0  0
   -7.8916    4.4252   -6.9681 C   0  0  0  0  0  0  0  0  0  0  0  0
   -7.6372    4.6552   -8.4600 C   0  0  0  0  0  0  0  0  0  0  0  0
   -9.3172    4.3803  -11.6585 C   0  0  0  0  0  0  0  0  0  0  0  0
   -9.7067    5.1232  -12.7764 C   0  0  0  0  0  0  0  0  0  0  0  0
   -6.9553    5.7237  -16.9802 C   0  0  0  0  0  0  0  0  0  0  0  0
   -4.5077    4.8494  -17.6294 H   0  0  0  0  0  0  0  0  0  0  0  0
   -4.9229    4.2632  -19.2767 H   0  0  0  0  0  0  0  0  0  0  0  0
   -4.7179    6.0351  -18.9787 H   0  0  0  0  0  0  0  0  0  0  0  0
   -7.2205    4.5321  -20.1640 H   0  0  0  0  0  0  0  0  0  0  0  0
   -9.6170    4.7939  -19.6426 H   0  0  0  0  0  0  0  0  0  0  0  0
  -10.3345    5.6256  -17.4462 H   0  0  0  0  0  0  0  0  0  0  0  0
   -7.9966    6.3899  -14.6273 H   0  0  0  0  0  0  0  0  0  0  0  0
  -10.5193    7.3475  -15.9633 H   0  0  0  0  0  0  0  0  0  0  0  0
  -10.1108    8.1574  -11.2744 H   0  0  0  0  0  0  0  0  0  0  0  0
   -9.4402    6.8475   -9.3130 H   0  0  0  0  0  0  0  0  0  0  0  0
   -8.6011    2.1349   -9.4134 H   0  0  0  0  0  0  0  0  0  0  0  0
  -10.2918    2.7422   -9.5720 H   0  0  0  0  0  0  0  0  0  0  0  0
   -9.8532    1.5748   -7.3732 H   0  0  0  0  0  0  0  0  0  0  0  0
  -10.4340    3.2695   -7.1996 H   0  0  0  0  0  0  0  0  0  0  0  0
   -7.5113    2.2824   -6.9678 H   0  0  0  0  0  0  0  0  0  0  0  0
   -8.5676    2.8565   -5.6295 H   0  0  0  0  0  0  0  0  0  0  0  0
   -6.9612    4.6339   -6.3975 H   0  0  0  0  0  0  0  0  0  0  0  0
   -8.6791    5.1270   -6.6155 H   0  0  0  0  0  0  0  0  0  0  0  0
   -7.4071    5.7297   -8.6243 H   0  0  0  0  0  0  0  0  0  0  0  0
   -6.7506    4.0674   -8.7831 H   0  0  0  0  0  0  0  0  0  0  0  0
   -9.0964    3.3271  -11.7761 H   0  0  0  0  0  0  0  0  0  0  0  0
   -9.8057    4.6192  -13.7294 H   0  0  0  0  0  0  0  0  0  0  0  0
   -6.2109    5.9899  -16.2392 H   0  0  0  0  0  0  0  0  0  0  0  0
  1  2  1  0
  2  3  2  0
  3  4  1  0
  4  5  2  0
  5  6  1  0
  6  7  1  0
  7  8  1  0
  8  9  1  0
  9 10  2  0
  9 11  1  0
 11 12  2  0
 12 13  1  0
 13 14  2  0
 14 15  1  0
 15 16  1  0
 16 17  1  0
 17 18  1  0
 18 19  1  0
 19 20  1  0
 14 21  1  0
 21 22  2  0
  6 23  2  0
 23  2  1  0
 22 11  1  0
 20 15  1  0
  1 24  1  0
  1 25  1  0
  1 26  1  0
  3 27  1  0
  4 28  1  0
  5 29  1  0
  7 30  1  0
  8 31  1  0
 12 32  1  0
 13 33  1  0
 16 34  1  0
 16 35  1  0
 17 36  1  0
 17 37  1  0
 18 38  1  0
 18 39  1  0
 19 40  1  0
 19 41  1  0
 20 42  1  0
 20 43  1  0
 21 44  1  0
 22 45  1  0
 23 46  1  0
A    1
 C1 
A    2
 C2 
A    3
 C3 
A    4
 C4 
A    5
 C5 
A    6
 C6 
A    7
 N1 
A    8
 N2 
A    9
 C7 
A   10
 O1 
A   11
 C8 
A   12
 C9 
A   13
 C10
A   14
 C11
A   15
 N3 
A   16
 C12
A   17
 C13
A   18
 C14
A   19
 C15
A   20
 C16
A   21
 C17
A   22
 C18
A   23
 C19
A   24
 H1 
A   25
 H2 
A   26
 H3 
A   27
 H4 
A   28
 H5 
A   29
 H6 
A   30
 H7 
A   31
 H8 
A   32
 H9 
A   33
 H10
A   34
 H11
A   35
 H12
A   36
 H13
A   37
 H14
A   38
 H15
A   39
 H16
A   40
 H17
A   41
 H18
A   42
 H19
A   43
 H20
A   44
 H21
A   45
 H22
A   46
 H23
M  END
>  <ref_pdb>  (65) 
x0051_0B

>  <ref_mols>  (65) 
x0589_0B,x0404_0B

>  <original SMILES>  (65) 
[H]c1c([H])c(N([H])N([H])C(=O)c2c([H])c([H])c(N3C([H])([H])C([H])([H])C([H])([H])C([H])([H])C3([H])[H])c([H])c2[H])c([H])c(C([H])([H])[H])c1[H]

>  <index>  (65) 
56

>  <∆∆G>  (65) 
-8.518329

>  <∆G_bound>  (65) 
-8.233545

>  <∆G_unbound>  (65) 
0.284784

>  <comRMSD>  (65) 
0.77569

>  <N_constrained_atoms>  (65) 
23.0

>  <N_unconstrained_atoms>  (65) 
1.0

>  <runtime>  (65) 
96.904137

>  <LE>  (65) 
0.35493

>  <percent_hybrid>  (65) 
35.0

>  <dist>  (65) 
6.0

>  <ecfp4>  (65) 
0.246575

>  <daylight>  (65) 
0.185

>  <topodist>  (65) 
2.0

>  <mces>  (65) 
25.0

>  <tdn>  (65) 
2.0

>  <tup>  (65) 
0.0

>  <rdn>  (65) 
0.0

>  <rup>  (65) 
0.0

>  <ldn>  (65) 
0.0

>  <lup>  (65) 
0.0

>  <mut>  (65) 
3.0

>  <maj>  (65) 
3.0

>  <min>  (65) 
0.0

>  <hyb>  (65) 
1.0

>  <sub>  (65) 
1.0

>  <query_index>  (65) 
29.0

>  <max_hit_Tanimoto>  (65) 
0.264368

>  <largest_ring>  (65) 
6

>  <N_interactions_kept>  (65) 
2.0

>  <N_interactions_lost>  (65) 
1.5

>  <interaction_uniqueness_metric>  (65) 
0.17578

>  <ad_hoc_penalty>  (65) 
-32.072972

>  <N_rotatable_bonds>  (65) 
5

>  <N_HA>  (65) 
23

>  <cluster>  (65) 
184

>  <N_interactions>  (65) 
7

>  <Enamine>  (65) 
1

>  <Mcule>  (65) 
0

>  <N_PAINS>  (65) 
0

>  <UFF_Gibbs>  (65) 
152.68737

>  <strain_per_HA>  (65) 
6.361974

>  <saltbridge:HIS:51>  (65) 
0

>  <pistack:HIS:51>  (65) 
1

>  <hydroph_interaction:HIS:51>  (65) 
1

>  <hbond:ALA:132>  (65) 
1

>  <hbond:SER:135>  (65) 
0

>  <hydroph_interaction:TYR:150>  (65) 
1

>  <pistack:TYR:161>  (65) 
0

>  <hydroph_interaction:TYR:161>  (65) 
2

>  <hydroph_interaction:ASP:83>  (65) 
0

>  <hbond:TYR:130>  (65) 
0

>  <hydroph_interaction:ALA:132>  (65) 
1

>  <hbond:HIS:51>  (65) 
0

>  <hbond:ASP:129>  (65) 
0

>  <hbond:TYR:150>  (65) 
0

>  <hbond:GLY:151>  (65) 
0

>  <hbond:TYR:161>  (65) 
0

>  <hydroph_interaction:TYR:130>  (65) 
0

>  <hydroph_interaction:PRO:131>  (65) 
0

>  <hydroph_interaction:ASP:129>  (65) 
0

>  <saltbridge:ASP:75>  (65) 
0

>  <saltbridge:ASP:83>  (65) 
0

>  <hydroph_interaction:ASN:152>  (65) 
0

>  <halogenbond:TYR:150>  (65) 
0

>  <hbond:ASP:83>  (65) 
0

>  <hydroph_interaction:VAL:155>  (65) 
0

>  <pication:TYR:161>  (65) 
0

>  <hbond:PRO:131>  (65) 
0

>  <hbond:LEU:128>  (65) 
0

>  <saltbridge:ASP:129>  (65) 
0

>  <hbond:THR:134>  (65) 
0

>  <pication:HIS:51>  (65) 
0

>  <hbond:SER:81>  (65) 
0

>  <hbond:GLY:159>  (65) 
0

>  <hydroph_interaction:PRO:101>  (65) 
0

>  <hydroph_interaction:THR:134>  (65) 
0

>  <hbond:GLY:82>  (65) 
0

>  <hydroph_interaction:GLU:104>  (65) 
0

>  <hydroph_interaction:VAL:36>  (65) 
0

>  <hydroph_interaction:MET:49>  (65) 
0

>  <halogenbond:GLU:104>  (65) 
0

>  <hydroph_interaction:LYS:107>  (65) 
0

$$$$
Z2962752765
     RDKit          3D

 45 48  0  0  0  0  0  0  0  0999 V2000
   -6.5878    3.8185  -10.9844 O   0  0  0  0  0  0  0  0  0  0  0  0
   -6.8054    4.5728  -11.9716 C   0  0  0  0  0  0  0  0  0  0  0  0
   -7.7165    5.7664  -11.8105 C   0  0  0  0  0  0  0  0  0  0  0  0
   -8.6457    5.6041  -10.6443 C   0  0  0  0  0  0  0  0  0  0  0  0
   -9.7394    4.7687  -10.5433 C   0  0  0  0  0  0  0  0  0  0  0  0
  -10.3656    3.9305  -11.6183 C   0  0  0  0  0  0  0  0  0  0  0  0
  -11.3005    2.8793  -11.0009 C   0  0  0  0  0  0  0  0  0  0  0  0
  -12.1970    3.4955   -9.9123 C   0  0  0  0  0  0  0  0  0  0  0  0
  -11.3513    4.0831   -8.7702 C   0  0  0  0  0  0  0  0  0  0  0  0
  -10.2422    4.8748   -9.2991 N   0  0  0  0  0  0  0  0  0  0  0  0
   -9.4970    5.7004   -8.5809 N   0  0  0  0  0  0  0  0  0  0  0  0
   -8.5151    6.1648   -9.3843 C   0  0  0  0  0  0  0  0  0  0  0  0
   -6.1393    4.2901  -13.2131 N   0  0  0  0  0  0  0  0  0  0  0  0
   -6.1797    5.1617  -14.3929 C   0  0  1  0  0  0  0  0  0  0  0  0
   -4.7828    5.2280  -15.0326 C   0  0  0  0  0  0  0  0  0  0  0  0
   -4.8423    5.9634  -16.3716 C   0  0  0  0  0  0  0  0  0  0  0  0
   -5.7165    5.1925  -17.3648 C   0  0  0  0  0  0  0  0  0  0  0  0
   -7.0362    4.7635  -16.7676 C   0  0  0  0  0  0  0  0  0  0  0  0
   -8.0720    4.3502  -17.6177 C   0  0  0  0  0  0  0  0  0  0  0  0
   -9.2769    3.8913  -17.0858 C   0  0  0  0  0  0  0  0  0  0  0  0
   -9.4369    3.8406  -15.7023 C   0  0  0  0  0  0  0  0  0  0  0  0
   -8.4246    4.2319  -14.8858 N   0  0  0  0  0  0  0  0  0  0  0  0
   -7.2277    4.6702  -15.3688 C   0  0  0  0  0  0  0  0  0  0  0  0
   -7.0982    6.6794  -11.6738 H   0  0  0  0  0  0  0  0  0  0  0  0
   -8.3359    5.9002  -12.7209 H   0  0  0  0  0  0  0  0  0  0  0  0
  -10.9465    4.5958  -12.2920 H   0  0  0  0  0  0  0  0  0  0  0  0
   -9.5773    3.4232  -12.2142 H   0  0  0  0  0  0  0  0  0  0  0  0
  -10.6945    2.0586  -10.5576 H   0  0  0  0  0  0  0  0  0  0  0  0
  -11.9361    2.4435  -11.8010 H   0  0  0  0  0  0  0  0  0  0  0  0
  -12.8268    4.2953  -10.3603 H   0  0  0  0  0  0  0  0  0  0  0  0
  -12.8733    2.7131   -9.5033 H   0  0  0  0  0  0  0  0  0  0  0  0
  -11.9903    4.7213   -8.1230 H   0  0  0  0  0  0  0  0  0  0  0  0
  -10.9379    3.2570   -8.1520 H   0  0  0  0  0  0  0  0  0  0  0  0
   -7.7415    6.8508   -9.0660 H   0  0  0  0  0  0  0  0  0  0  0  0
   -5.6640    3.3626  -13.3023 H   0  0  0  0  0  0  0  0  0  0  0  0
   -6.4513    6.1980  -14.0967 H   0  0  0  0  0  0  0  0  0  0  0  0
   -4.0898    5.7635  -14.3463 H   0  0  0  0  0  0  0  0  0  0  0  0
   -4.3814    4.2024  -15.1943 H   0  0  0  0  0  0  0  0  0  0  0  0
   -5.2531    6.9866  -16.2230 H   0  0  0  0  0  0  0  0  0  0  0  0
   -3.8148    6.0623  -16.7850 H   0  0  0  0  0  0  0  0  0  0  0  0
   -5.8961    5.8343  -18.2552 H   0  0  0  0  0  0  0  0  0  0  0  0
   -5.1722    4.2843  -17.7049 H   0  0  0  0  0  0  0  0  0  0  0  0
   -7.9442    4.3808  -18.6929 H   0  0  0  0  0  0  0  0  0  0  0  0
  -10.0793    3.5762  -17.7405 H   0  0  0  0  0  0  0  0  0  0  0  0
  -10.3691    3.4936  -15.2756 H   0  0  0  0  0  0  0  0  0  0  0  0
  1  2  2  0
  2  3  1  0
  3  4  1  0
  4  5  2  0
  5  6  1  0
  6  7  1  0
  7  8  1  0
  8  9  1  0
  9 10  1  0
 10 11  1  0
 11 12  2  0
  2 13  1  0
 13 14  1  0
 14 15  1  0
 15 16  1  0
 16 17  1  0
 17 18  1  0
 18 19  2  0
 19 20  1  0
 20 21  2  0
 21 22  1  0
 22 23  2  0
 12  4  1  0
 10  5  1  0
 23 14  1  0
 23 18  1  0
  3 24  1  0
  3 25  1  0
  6 26  1  0
  6 27  1  0
  7 28  1  0
  7 29  1  0
  8 30  1  0
  8 31  1  0
  9 32  1  0
  9 33  1  0
 12 34  1  0
 13 35  1  0
 14 36  1  1
 15 37  1  0
 15 38  1  0
 16 39  1  0
 16 40  1  0
 17 41  1  0
 17 42  1  0
 19 43  1  0
 20 44  1  0
 21 45  1  0
A    1
 O1 
A    2
 C1 
A    3
 C2 
A    4
 C3 
A    5
 C4 
A    6
 C5 
A    7
 C6 
A    8
 C7 
A    9
 C8 
A   10
 N1 
A   11
 N2 
A   12
 C9 
A   13
 N3 
A   14
 C10
A   15
 C11
A   16
 C12
A   17
 C13
A   18
 C14
A   19
 C15
A   20
 C16
A   21
 C17
A   22
 N4 
A   23
 C18
A   24
 H1 
A   25
 H2 
A   26
 H3 
A   27
 H4 
A   28
 H5 
A   29
 H6 
A   30
 H7 
A   31
 H8 
A   32
 H9 
A   33
 H10
A   34
 H11
A   35
 H12
A   36
 H13
A   37
 H14
A   38
 H15
A   39
 H16
A   40
 H17
A   41
 H18
A   42
 H19
A   43
 H20
A   44
 H21
A   45
 H22
M  END
>  <ref_pdb>  (66) 
x0051_0B

>  <ref_mols>  (66) 
x0969_1B,x0455_0B

>  <original SMILES>  (66) 
[H]c1nc2c(c([H])c1[H])C([H])([H])C([H])([H])C([H])([H])[C@]2([H])N([H])C(=O)C([H])([H])c1c([H])nn2c1C([H])([H])C([H])([H])C([H])([H])C2([H])[H]

>  <index>  (66) 
76

>  <∆∆G>  (66) 
-6.831986

>  <∆G_bound>  (66) 
-4.868696

>  <∆G_unbound>  (66) 
1.96329

>  <comRMSD>  (66) 
0.305308

>  <N_constrained_atoms>  (66) 
20.0

>  <N_unconstrained_atoms>  (66) 
3.0

>  <runtime>  (66) 
43.311539

>  <LE>  (66) 
0.297043

>  <percent_hybrid>  (66) 
50.0

>  <dist>  (66) 
5.0

>  <ecfp4>  (66) 
0.35

>  <daylight>  (66) 
0.327078

>  <topodist>  (66) 
1.0

>  <mces>  (66) 
25.0

>  <tdn>  (66) 
0.0

>  <tup>  (66) 
1.0

>  <rdn>  (66) 
0.0

>  <rup>  (66) 
0.0

>  <ldn>  (66) 
0.0

>  <lup>  (66) 
0.0

>  <mut>  (66) 
4.0

>  <maj>  (66) 
4.0

>  <min>  (66) 
0.0

>  <hyb>  (66) 
0.0

>  <sub>  (66) 
0.0

>  <query_index>  (66) 
204.0

>  <max_hit_Tanimoto>  (66) 
0.318755

>  <largest_ring>  (66) 
6

>  <N_interactions_kept>  (66) 
1.0

>  <N_interactions_lost>  (66) 
1.5

>  <interaction_uniqueness_metric>  (66) 
0.134979

>  <ad_hoc_penalty>  (66) 
-31.991548

>  <N_rotatable_bonds>  (66) 
3

>  <N_HA>  (66) 
23

>  <cluster>  (66) 
6148

>  <N_interactions>  (66) 
7

>  <Enamine>  (66) 
1

>  <Mcule>  (66) 
0

>  <N_PAINS>  (66) 
0

>  <UFF_Gibbs>  (66) 
115.523379

>  <strain_per_HA>  (66) 
5.022756

>  <saltbridge:HIS:51>  (66) 
0

>  <pistack:HIS:51>  (66) 
1

>  <hydroph_interaction:HIS:51>  (66) 
1

>  <hbond:ALA:132>  (66) 
0

>  <hbond:SER:135>  (66) 
0

>  <hydroph_interaction:TYR:150>  (66) 
1

>  <pistack:TYR:161>  (66) 
0

>  <hydroph_interaction:TYR:161>  (66) 
3

>  <hydroph_interaction:ASP:83>  (66) 
0

>  <hbond:TYR:130>  (66) 
0

>  <hydroph_interaction:ALA:132>  (66) 
0

>  <hbond:HIS:51>  (66) 
0

>  <hbond:ASP:129>  (66) 
0

>  <hbond:TYR:150>  (66) 
0

>  <hbond:GLY:151>  (66) 
1

>  <hbond:TYR:161>  (66) 
0

>  <hydroph_interaction:TYR:130>  (66) 
0

>  <hydroph_interaction:PRO:131>  (66) 
0

>  <hydroph_interaction:ASP:129>  (66) 
0

>  <saltbridge:ASP:75>  (66) 
0

>  <saltbridge:ASP:83>  (66) 
0

>  <hydroph_interaction:ASN:152>  (66) 
0

>  <halogenbond:TYR:150>  (66) 
0

>  <hbond:ASP:83>  (66) 
0

>  <hydroph_interaction:VAL:155>  (66) 
0

>  <pication:TYR:161>  (66) 
0

>  <hbond:PRO:131>  (66) 
0

>  <hbond:LEU:128>  (66) 
0

>  <saltbridge:ASP:129>  (66) 
0

>  <hbond:THR:134>  (66) 
0

>  <pication:HIS:51>  (66) 
0

>  <hbond:SER:81>  (66) 
0

>  <hbond:GLY:159>  (66) 
0

>  <hydroph_interaction:PRO:101>  (66) 
0

>  <hydroph_interaction:THR:134>  (66) 
0

>  <hbond:GLY:82>  (66) 
0

>  <hydroph_interaction:GLU:104>  (66) 
0

>  <hydroph_interaction:VAL:36>  (66) 
0

>  <hydroph_interaction:MET:49>  (66) 
0

>  <halogenbond:GLU:104>  (66) 
0

>  <hydroph_interaction:LYS:107>  (66) 
0

$$$$
PV-002961301277
     RDKit          3D

 21 22  0  0  0  0  0  0  0  0999 V2000
   -5.7249    4.9610  -16.2824 C   0  0  0  0  0  0  0  0  0  0  0  0
   -5.5447    5.2977  -17.7392 C   0  0  0  0  0  0  0  0  0  0  0  0
   -4.2517    5.5797  -18.2072 C   0  0  0  0  0  0  0  0  0  0  0  0
   -4.0455    5.8534  -19.5583 C   0  0  0  0  0  0  0  0  0  0  0  0
   -5.0930    5.8535  -20.4202 N   0  0  0  0  0  0  0  0  0  0  0  0
   -6.3610    5.6020  -20.0039 C   0  0  0  0  0  0  0  0  0  0  0  0
   -6.6308    5.3380  -18.6500 C   0  0  0  0  0  0  0  0  0  0  0  0
   -8.0352    5.1058  -18.2382 C   0  0  0  0  0  0  0  0  0  0  0  0
   -8.6885    5.6320  -17.1387 C   0  0  0  0  0  0  0  0  0  0  0  0
   -9.9408    5.2369  -17.1461 O   0  0  0  0  0  0  0  0  0  0  0  0
  -10.1466    4.4861  -18.2042 C   0  0  0  0  0  0  0  0  0  0  0  0
   -8.9813    4.3788  -18.9337 C   0  0  0  0  0  0  0  0  0  0  0  0
   -6.5018    4.1794  -16.1502 H   0  0  0  0  0  0  0  0  0  0  0  0
   -4.7838    4.5610  -15.8479 H   0  0  0  0  0  0  0  0  0  0  0  0
   -6.0077    5.8743  -15.7197 H   0  0  0  0  0  0  0  0  0  0  0  0
   -3.4040    5.5748  -17.5328 H   0  0  0  0  0  0  0  0  0  0  0  0
   -3.0488    6.0617  -19.9237 H   0  0  0  0  0  0  0  0  0  0  0  0
   -7.1642    5.6304  -20.7292 H   0  0  0  0  0  0  0  0  0  0  0  0
   -8.2646    6.2823  -16.3864 H   0  0  0  0  0  0  0  0  0  0  0  0
  -11.0952    4.0304  -18.4545 H   0  0  0  0  0  0  0  0  0  0  0  0
   -8.8417    3.8329  -19.8575 H   0  0  0  0  0  0  0  0  0  0  0  0
  1  2  1  0
  2  3  2  0
  3  4  1  0
  4  5  2  0
  5  6  1  0
  6  7  2  0
  7  8  1  0
  8  9  2  0
  9 10  1  0
 10 11  1  0
 11 12  2  0
  7  2  1  0
 12  8  1  0
  1 13  1  0
  1 14  1  0
  1 15  1  0
  3 16  1  0
  4 17  1  0
  6 18  1  0
  9 19  1  0
 11 20  1  0
 12 21  1  0
A    1
 C1 
A    2
 C2 
A    3
 C3 
A    4
 C4 
A    5
 N1 
A    6
 C5 
A    7
 C6 
A    8
 C7 
A    9
 C8 
A   10
 O1 
A   11
 C9 
A   12
 C10
A   13
 H1 
A   14
 H2 
A   15
 H3 
A   16
 H4 
A   17
 H5 
A   18
 H6 
A   19
 H7 
A   20
 H8 
A   21
 H9 
M  END
>  <ref_pdb>  (67) 
x0051_0B

>  <ref_mols>  (67) 
x0680_0B,x0386_0B

>  <original SMILES>  (67) 
[H]c1nc([H])c(-c2c([H])oc([H])c2[H])c(C([H])([H])[H])c1[H]

>  <index>  (67) 
57

>  <∆∆G>  (67) 
-6.460825

>  <∆G_bound>  (67) 
-6.64134

>  <∆G_unbound>  (67) 
-0.180515

>  <comRMSD>  (67) 
0.775182

>  <N_constrained_atoms>  (67) 
13.0

>  <N_unconstrained_atoms>  (67) 
0.0

>  <runtime>  (67) 
22.566052

>  <LE>  (67) 
0.496987

>  <percent_hybrid>  (67) 
25.0

>  <dist>  (67) 
1.0

>  <ecfp4>  (67) 
0.536585

>  <daylight>  (67) 
0.491935

>  <topodist>  (67) 
0.0

>  <mces>  (67) 
13.0

>  <tdn>  (67) 
0.0

>  <tup>  (67) 
0.0

>  <rdn>  (67) 
0.0

>  <rup>  (67) 
0.0

>  <ldn>  (67) 
0.0

>  <lup>  (67) 
0.0

>  <mut>  (67) 
1.0

>  <maj>  (67) 
1.0

>  <min>  (67) 
0.0

>  <hyb>  (67) 
0.0

>  <sub>  (67) 
0.0

>  <query_index>  (67) 
296.0

>  <max_hit_Tanimoto>  (67) 
0.170175

>  <largest_ring>  (67) 
6

>  <N_interactions_kept>  (67) 
3.0

>  <N_interactions_lost>  (67) 
1.0

>  <interaction_uniqueness_metric>  (67) 
0.036522

>  <ad_hoc_penalty>  (67) 
-31.923008

>  <N_rotatable_bonds>  (67) 
2

>  <N_HA>  (67) 
12

>  <cluster>  (67) 
6166

>  <N_interactions>  (67) 
6

>  <Enamine>  (67) 
1

>  <Mcule>  (67) 
0

>  <N_PAINS>  (67) 
0

>  <UFF_Gibbs>  (67) 
64.481082

>  <strain_per_HA>  (67) 
4.960083

>  <saltbridge:HIS:51>  (67) 
0

>  <pistack:HIS:51>  (67) 
0

>  <hydroph_interaction:HIS:51>  (67) 
0

>  <hbond:ALA:132>  (67) 
0

>  <hbond:SER:135>  (67) 
0

>  <hydroph_interaction:TYR:150>  (67) 
1

>  <pistack:TYR:161>  (67) 
0

>  <hydroph_interaction:TYR:161>  (67) 
5

>  <hydroph_interaction:ASP:83>  (67) 
0

>  <hbond:TYR:130>  (67) 
0

>  <hydroph_interaction:ALA:132>  (67) 
0

>  <hbond:HIS:51>  (67) 
0

>  <hbond:ASP:129>  (67) 
0

>  <hbond:TYR:150>  (67) 
0

>  <hbond:GLY:151>  (67) 
0

>  <hbond:TYR:161>  (67) 
0

>  <hydroph_interaction:TYR:130>  (67) 
0

>  <hydroph_interaction:PRO:131>  (67) 
0

>  <hydroph_interaction:ASP:129>  (67) 
0

>  <saltbridge:ASP:75>  (67) 
0

>  <saltbridge:ASP:83>  (67) 
0

>  <hydroph_interaction:ASN:152>  (67) 
0

>  <halogenbond:TYR:150>  (67) 
0

>  <hbond:ASP:83>  (67) 
0

>  <hydroph_interaction:VAL:155>  (67) 
0

>  <pication:TYR:161>  (67) 
0

>  <hbond:PRO:131>  (67) 
0

>  <hbond:LEU:128>  (67) 
0

>  <saltbridge:ASP:129>  (67) 
0

>  <hbond:THR:134>  (67) 
0

>  <pication:HIS:51>  (67) 
0

>  <hbond:SER:81>  (67) 
0

>  <hbond:GLY:159>  (67) 
0

>  <hydroph_interaction:PRO:101>  (67) 
0

>  <hydroph_interaction:THR:134>  (67) 
0

>  <hbond:GLY:82>  (67) 
0

>  <hydroph_interaction:GLU:104>  (67) 
0

>  <hydroph_interaction:VAL:36>  (67) 
0

>  <hydroph_interaction:MET:49>  (67) 
0

>  <halogenbond:GLU:104>  (67) 
0

>  <hydroph_interaction:LYS:107>  (67) 
0

$$$$
CSSB00121572997
     RDKit          3D

 26 28  0  0  0  0  0  0  0  0999 V2000
   -8.9617    5.5866  -15.9896 C   0  0  0  0  0  0  0  0  0  0  0  0
   -7.7283    5.6503  -16.6424 C   0  0  0  0  0  0  0  0  0  0  0  0
   -7.6000    5.1296  -17.9418 C   0  0  0  0  0  0  0  0  0  0  0  0
   -8.7277    4.5534  -18.5519 C   0  0  0  0  0  0  0  0  0  0  0  0
   -9.9417    4.5097  -17.8621 C   0  0  0  0  0  0  0  0  0  0  0  0
  -10.0327    5.0227  -16.6071 N   0  0  0  0  0  0  0  0  0  0  0  0
   -6.2985    5.1867  -18.6556 C   0  0  0  0  0  0  0  0  0  0  0  0
   -6.2499    5.4982  -20.0274 C   0  0  0  0  0  0  0  0  0  0  0  0
   -5.0212    5.5519  -20.7027 C   0  0  0  0  0  0  0  0  0  0  0  0
   -4.9643    5.8640  -22.0677 C   0  0  0  0  0  0  0  0  0  0  0  0
   -3.7245    5.9093  -22.7094 C   0  0  0  0  0  0  0  0  0  0  0  0
   -2.5842    5.6534  -22.0147 N   0  0  0  0  0  0  0  0  0  0  0  0
   -2.6044    5.3485  -20.6897 C   0  0  0  0  0  0  0  0  0  0  0  0
   -3.8240    5.2910  -20.0009 C   0  0  0  0  0  0  0  0  0  0  0  0
   -3.8703    4.9808  -18.6359 C   0  0  0  0  0  0  0  0  0  0  0  0
   -5.0973    4.9297  -17.9693 C   0  0  0  0  0  0  0  0  0  0  0  0
   -9.0679    5.9894  -14.9912 H   0  0  0  0  0  0  0  0  0  0  0  0
   -6.8890    6.1177  -16.1431 H   0  0  0  0  0  0  0  0  0  0  0  0
   -8.6676    4.1250  -19.5445 H   0  0  0  0  0  0  0  0  0  0  0  0
  -10.8121    4.0639  -18.3247 H   0  0  0  0  0  0  0  0  0  0  0  0
   -7.1653    5.7164  -20.5653 H   0  0  0  0  0  0  0  0  0  0  0  0
   -5.8664    6.0696  -22.6315 H   0  0  0  0  0  0  0  0  0  0  0  0
   -3.6688    6.1487  -23.7629 H   0  0  0  0  0  0  0  0  0  0  0  0
   -1.6705    5.1527  -20.1778 H   0  0  0  0  0  0  0  0  0  0  0  0
   -2.9598    4.7748  -18.0858 H   0  0  0  0  0  0  0  0  0  0  0  0
   -5.1081    4.6709  -16.9180 H   0  0  0  0  0  0  0  0  0  0  0  0
  1  2  2  0
  2  3  1  0
  3  4  2  0
  4  5  1  0
  5  6  2  0
  3  7  1  0
  7  8  2  0
  8  9  1  0
  9 10  2  0
 10 11  1  0
 11 12  2  0
 12 13  1  0
 13 14  2  0
 14 15  1  0
 15 16  2  0
  6  1  1  0
 16  7  1  0
 14  9  1  0
  1 17  1  0
  2 18  1  0
  4 19  1  0
  5 20  1  0
  8 21  1  0
 10 22  1  0
 11 23  1  0
 13 24  1  0
 15 25  1  0
 16 26  1  0
A    1
 C1 
A    2
 C2 
A    3
 C3 
A    4
 C4 
A    5
 C5 
A    6
 N1 
A    7
 C6 
A    8
 C7 
A    9
 C8 
A   10
 C9 
A   11
 C10
A   12
 N2 
A   13
 C11
A   14
 C12
A   15
 C13
A   16
 C14
A   17
 H1 
A   18
 H2 
A   19
 H3 
A   20
 H4 
A   21
 H5 
A   22
 H6 
A   23
 H7 
A   24
 H8 
A   25
 H9 
A   26
 H10
M  END
>  <ref_pdb>  (68) 
x0051_0B

>  <ref_mols>  (68) 
x0852_0B,x0680_0B

>  <original SMILES>  (68) 
[H]c1nc([H])c([H])c(-c2c([H])c([H])c3c([H])nc([H])c([H])c3c2[H])c1[H]

>  <index>  (68) 
99

>  <∆∆G>  (68) 
-5.862751

>  <∆G_bound>  (68) 
-5.821885

>  <∆G_unbound>  (68) 
0.040866

>  <comRMSD>  (68) 
0.595099

>  <N_constrained_atoms>  (68) 
20.0

>  <N_unconstrained_atoms>  (68) 
0.0

>  <runtime>  (68) 
30.304255

>  <LE>  (68) 
0.293138

>  <percent_hybrid>  (68) 
19.0

>  <dist>  (68) 
5.0

>  <ecfp4>  (68) 
0.304348

>  <daylight>  (68) 
0.408696

>  <topodist>  (68) 
4.0

>  <mces>  (68) 
18.0

>  <tdn>  (68) 
3.0

>  <tup>  (68) 
0.0

>  <rdn>  (68) 
1.0

>  <rup>  (68) 
0.0

>  <ldn>  (68) 
0.0

>  <lup>  (68) 
0.0

>  <mut>  (68) 
1.0

>  <maj>  (68) 
1.0

>  <min>  (68) 
0.0

>  <hyb>  (68) 
0.0

>  <sub>  (68) 
4.0

>  <query_index>  (68) 
135.0

>  <max_hit_Tanimoto>  (68) 
0.126316

>  <largest_ring>  (68) 
6

>  <N_interactions_kept>  (68) 
6.0

>  <N_interactions_lost>  (68) 
1.5

>  <interaction_uniqueness_metric>  (68) 
0.057735

>  <ad_hoc_penalty>  (68) 
-31.87483

>  <N_rotatable_bonds>  (68) 
1

>  <N_HA>  (68) 
16

>  <cluster>  (68) 
6125

>  <N_interactions>  (68) 
6

>  <Enamine>  (68) 
1

>  <Mcule>  (68) 
0

>  <N_PAINS>  (68) 
0

>  <UFF_Gibbs>  (68) 
59.888705

>  <strain_per_HA>  (68) 
2.994435

>  <saltbridge:HIS:51>  (68) 
0

>  <pistack:HIS:51>  (68) 
0

>  <hydroph_interaction:HIS:51>  (68) 
0

>  <hbond:ALA:132>  (68) 
0

>  <hbond:SER:135>  (68) 
0

>  <hydroph_interaction:TYR:150>  (68) 
0

>  <pistack:TYR:161>  (68) 
0

>  <hydroph_interaction:TYR:161>  (68) 
5

>  <hydroph_interaction:ASP:83>  (68) 
0

>  <hbond:TYR:130>  (68) 
0

>  <hydroph_interaction:ALA:132>  (68) 
0

>  <hbond:HIS:51>  (68) 
0

>  <hbond:ASP:129>  (68) 
0

>  <hbond:TYR:150>  (68) 
0

>  <hbond:GLY:151>  (68) 
0

>  <hbond:TYR:161>  (68) 
0

>  <hydroph_interaction:TYR:130>  (68) 
0

>  <hydroph_interaction:PRO:131>  (68) 
0

>  <hydroph_interaction:ASP:129>  (68) 
1

>  <saltbridge:ASP:75>  (68) 
0

>  <saltbridge:ASP:83>  (68) 
0

>  <hydroph_interaction:ASN:152>  (68) 
0

>  <halogenbond:TYR:150>  (68) 
0

>  <hbond:ASP:83>  (68) 
0

>  <hydroph_interaction:VAL:155>  (68) 
0

>  <pication:TYR:161>  (68) 
0

>  <hbond:PRO:131>  (68) 
0

>  <hbond:LEU:128>  (68) 
0

>  <saltbridge:ASP:129>  (68) 
0

>  <hbond:THR:134>  (68) 
0

>  <pication:HIS:51>  (68) 
0

>  <hbond:SER:81>  (68) 
0

>  <hbond:GLY:159>  (68) 
0

>  <hydroph_interaction:PRO:101>  (68) 
0

>  <hydroph_interaction:THR:134>  (68) 
0

>  <hbond:GLY:82>  (68) 
0

>  <hydroph_interaction:GLU:104>  (68) 
0

>  <hydroph_interaction:VAL:36>  (68) 
0

>  <hydroph_interaction:MET:49>  (68) 
0

>  <halogenbond:GLU:104>  (68) 
0

>  <hydroph_interaction:LYS:107>  (68) 
0

$$$$
Z2783650159
     RDKit          3D

 45 48  0  0  0  0  0  0  0  0999 V2000
   -6.7665    6.8011  -12.8332 O   0  0  0  0  0  0  0  0  0  0  0  0
   -7.3373    5.8043  -13.3515 C   0  0  0  0  0  0  0  0  0  0  0  0
   -8.0855    4.8908  -12.5325 N   0  0  0  0  0  0  0  0  0  0  0  0
   -8.5178    5.1856  -11.1951 C   0  0  0  0  0  0  0  0  0  0  0  0
   -9.0016    4.2827  -10.2740 C   0  0  0  0  0  0  0  0  0  0  0  0
   -9.2029    2.8056  -10.4379 C   0  0  0  0  0  0  0  0  0  0  0  0
   -9.4494    2.1451   -9.0718 C   0  0  0  0  0  0  0  0  0  0  0  0
  -10.4542    2.9508   -8.2311 C   0  0  0  0  0  0  0  0  0  0  0  0
   -9.9298    4.3713   -7.9623 C   0  0  0  0  0  0  0  0  0  0  0  0
   -9.4056    4.9678   -9.1895 N   0  0  0  0  0  0  0  0  0  0  0  0
   -9.1792    6.2619   -9.3589 N   0  0  0  0  0  0  0  0  0  0  0  0
   -8.6441    6.4267  -10.5882 C   0  0  0  0  0  0  0  0  0  0  0  0
   -7.1906    5.5763  -14.7995 C   0  0  0  0  0  0  0  0  0  0  0  0
   -7.8027    4.5960  -15.5537 C   0  0  0  0  0  0  0  0  0  0  0  0
   -7.4126    4.7541  -16.7934 O   0  0  0  0  0  0  0  0  0  0  0  0
   -6.5953    5.7839  -16.8162 C   0  0  0  0  0  0  0  0  0  0  0  0
   -5.9387    6.3025  -18.0637 C   0  0  0  0  0  0  0  0  0  0  0  0
   -6.9807    6.9838  -18.9845 C   0  0  0  0  0  0  0  0  0  0  0  0
   -6.5737    6.9853  -20.4731 C   0  0  0  0  0  0  0  0  0  0  0  0
   -5.0522    6.9646  -20.6505 C   0  0  0  0  0  0  0  0  0  0  0  0
   -4.4228    5.7046  -20.0222 C   0  0  0  0  0  0  0  0  0  0  0  0
   -5.1988    5.1726  -18.7992 C   0  0  0  0  0  0  0  0  0  0  0  0
   -6.4226    6.3415  -15.5994 N   0  0  0  0  0  0  0  0  0  0  0  0
   -8.2958    3.9399  -12.9076 H   0  0  0  0  0  0  0  0  0  0  0  0
   -8.3080    2.3509  -10.9137 H   0  0  0  0  0  0  0  0  0  0  0  0
  -10.0818    2.6361  -11.0963 H   0  0  0  0  0  0  0  0  0  0  0  0
   -9.8381    1.1158   -9.2272 H   0  0  0  0  0  0  0  0  0  0  0  0
   -8.4872    2.0667   -8.5190 H   0  0  0  0  0  0  0  0  0  0  0  0
  -11.4239    3.0102   -8.7725 H   0  0  0  0  0  0  0  0  0  0  0  0
  -10.6302    2.4332   -7.2637 H   0  0  0  0  0  0  0  0  0  0  0  0
  -10.7525    5.0007   -7.5603 H   0  0  0  0  0  0  0  0  0  0  0  0
   -9.1165    4.3288   -7.2062 H   0  0  0  0  0  0  0  0  0  0  0  0
   -8.3989    7.3901  -11.0123 H   0  0  0  0  0  0  0  0  0  0  0  0
   -8.4867    3.8291  -15.2174 H   0  0  0  0  0  0  0  0  0  0  0  0
   -5.1827    7.0634  -17.7640 H   0  0  0  0  0  0  0  0  0  0  0  0
   -7.1212    8.0328  -18.6428 H   0  0  0  0  0  0  0  0  0  0  0  0
   -7.9685    6.4780  -18.9008 H   0  0  0  0  0  0  0  0  0  0  0  0
   -6.9943    7.8849  -20.9723 H   0  0  0  0  0  0  0  0  0  0  0  0
   -7.0046    6.0913  -20.9759 H   0  0  0  0  0  0  0  0  0  0  0  0
   -4.6214    7.8729  -20.1741 H   0  0  0  0  0  0  0  0  0  0  0  0
   -4.8026    7.0036  -21.7329 H   0  0  0  0  0  0  0  0  0  0  0  0
   -4.3691    4.8992  -20.7870 H   0  0  0  0  0  0  0  0  0  0  0  0
   -3.3792    5.9430  -19.7214 H   0  0  0  0  0  0  0  0  0  0  0  0
   -5.9361    4.4108  -19.1385 H   0  0  0  0  0  0  0  0  0  0  0  0
   -4.4878    4.6687  -18.1078 H   0  0  0  0  0  0  0  0  0  0  0  0
  1  2  2  0
  2  3  1  0
  3  4  1  0
  4  5  2  0
  5  6  1  0
  6  7  1  0
  7  8  1  0
  8  9  1  0
  9 10  1  0
 10 11  1  0
 11 12  2  0
  2 13  1  0
 13 14  2  0
 14 15  1  0
 15 16  1  0
 16 17  1  0
 17 18  1  0
 18 19  1  0
 19 20  1  0
 20 21  1  0
 21 22  1  0
 16 23  2  0
 12  4  1  0
 10  5  1  0
 23 13  1  0
 22 17  1  0
  3 24  1  0
  6 25  1  0
  6 26  1  0
  7 27  1  0
  7 28  1  0
  8 29  1  0
  8 30  1  0
  9 31  1  0
  9 32  1  0
 12 33  1  0
 14 34  1  0
 17 35  1  0
 18 36  1  0
 18 37  1  0
 19 38  1  0
 19 39  1  0
 20 40  1  0
 20 41  1  0
 21 42  1  0
 21 43  1  0
 22 44  1  0
 22 45  1  0
A    1
 O1 
A    2
 C1 
A    3
 N1 
A    4
 C2 
A    5
 C3 
A    6
 C4 
A    7
 C5 
A    8
 C6 
A    9
 C7 
A   10
 N2 
A   11
 N3 
A   12
 C8 
A   13
 C9 
A   14
 C10
A   15
 O2 
A   16
 C11
A   17
 C12
A   18
 C13
A   19
 C14
A   20
 C15
A   21
 C16
A   22
 C17
A   23
 N4 
A   24
 H1 
A   25
 H2 
A   26
 H3 
A   27
 H4 
A   28
 H5 
A   29
 H6 
A   30
 H7 
A   31
 H8 
A   32
 H9 
A   33
 H10
A   34
 H11
A   35
 H12
A   36
 H13
A   37
 H14
A   38
 H15
A   39
 H16
A   40
 H17
A   41
 H18
A   42
 H19
A   43
 H20
A   44
 H21
A   45
 H22
M  END
>  <ref_pdb>  (69) 
x0051_0B

>  <ref_mols>  (69) 
x0917_1B,x0969_1B

>  <original SMILES>  (69) 
[H]c1nn2c(c1N([H])C(=O)c1nc(C3([H])C([H])([H])C([H])([H])C([H])([H])C([H])([H])C3([H])[H])oc1[H])C([H])([H])C([H])([H])C([H])([H])C2([H])[H]

>  <index>  (69) 
120

>  <∆∆G>  (69) 
-5.258891

>  <∆G_bound>  (69) 
-4.453638

>  <∆G_unbound>  (69) 
0.805252

>  <comRMSD>  (69) 
0.641572

>  <N_constrained_atoms>  (69) 
24.0

>  <N_unconstrained_atoms>  (69) 
0.0

>  <runtime>  (69) 
70.637223

>  <LE>  (69) 
0.21912

>  <percent_hybrid>  (69) 
40.0

>  <dist>  (69) 
8.0

>  <ecfp4>  (69) 
0.25

>  <daylight>  (69) 
0.287179

>  <topodist>  (69) 
2.0

>  <mces>  (69) 
26.0

>  <tdn>  (69) 
2.0

>  <tup>  (69) 
0.0

>  <rdn>  (69) 
0.0

>  <rup>  (69) 
0.0

>  <ldn>  (69) 
0.0

>  <lup>  (69) 
0.0

>  <mut>  (69) 
5.0

>  <maj>  (69) 
5.0

>  <min>  (69) 
0.0

>  <hyb>  (69) 
1.0

>  <sub>  (69) 
0.0

>  <query_index>  (69) 
298.0

>  <max_hit_Tanimoto>  (69) 
0.272446

>  <largest_ring>  (69) 
6

>  <N_interactions_kept>  (69) 
2.0

>  <N_interactions_lost>  (69) 
1.0

>  <interaction_uniqueness_metric>  (69) 
0.138446

>  <ad_hoc_penalty>  (69) 
-31.790423

>  <N_rotatable_bonds>  (69) 
3

>  <N_HA>  (69) 
23

>  <cluster>  (69) 
6107

>  <N_interactions>  (69) 
6

>  <Enamine>  (69) 
1

>  <Mcule>  (69) 
0

>  <N_PAINS>  (69) 
0

>  <UFF_Gibbs>  (69) 
67.862622

>  <strain_per_HA>  (69) 
2.827609

>  <saltbridge:HIS:51>  (69) 
0

>  <pistack:HIS:51>  (69) 
1

>  <hydroph_interaction:HIS:51>  (69) 
1

>  <hbond:ALA:132>  (69) 
0

>  <hbond:SER:135>  (69) 
0

>  <hydroph_interaction:TYR:150>  (69) 
0

>  <pistack:TYR:161>  (69) 
0

>  <hydroph_interaction:TYR:161>  (69) 
2

>  <hydroph_interaction:ASP:83>  (69) 
0

>  <hbond:TYR:130>  (69) 
0

>  <hydroph_interaction:ALA:132>  (69) 
1

>  <hbond:HIS:51>  (69) 
0

>  <hbond:ASP:129>  (69) 
0

>  <hbond:TYR:150>  (69) 
0

>  <hbond:GLY:151>  (69) 
1

>  <hbond:TYR:161>  (69) 
0

>  <hydroph_interaction:TYR:130>  (69) 
0

>  <hydroph_interaction:PRO:131>  (69) 
0

>  <hydroph_interaction:ASP:129>  (69) 
0

>  <saltbridge:ASP:75>  (69) 
0

>  <saltbridge:ASP:83>  (69) 
0

>  <hydroph_interaction:ASN:152>  (69) 
0

>  <halogenbond:TYR:150>  (69) 
0

>  <hbond:ASP:83>  (69) 
0

>  <hydroph_interaction:VAL:155>  (69) 
0

>  <pication:TYR:161>  (69) 
0

>  <hbond:PRO:131>  (69) 
0

>  <hbond:LEU:128>  (69) 
0

>  <saltbridge:ASP:129>  (69) 
0

>  <hbond:THR:134>  (69) 
0

>  <pication:HIS:51>  (69) 
0

>  <hbond:SER:81>  (69) 
0

>  <hbond:GLY:159>  (69) 
0

>  <hydroph_interaction:PRO:101>  (69) 
0

>  <hydroph_interaction:THR:134>  (69) 
0

>  <hbond:GLY:82>  (69) 
0

>  <hydroph_interaction:GLU:104>  (69) 
0

>  <hydroph_interaction:VAL:36>  (69) 
0

>  <hydroph_interaction:MET:49>  (69) 
0

>  <halogenbond:GLU:104>  (69) 
0

>  <hydroph_interaction:LYS:107>  (69) 
0

$$$$
GQCAPQHBNFFLJD-UHFFFAOYSA-N
     RDKit          3D

 44 47  0  0  0  0  0  0  0  0999 V2000
   -8.4339    6.3216  -14.1751 C   0  0  0  0  0  0  0  0  0  0  0  0
   -8.1368    5.4431  -15.2735 N   0  0  0  0  0  0  0  0  0  0  0  0
   -8.4758    5.7414  -16.6387 C   0  0  0  0  0  0  0  0  0  0  0  0
   -7.6884    5.2738  -17.6988 C   0  0  0  0  0  0  0  0  0  0  0  0
   -8.0117    5.5205  -19.0027 C   0  0  0  0  0  0  0  0  0  0  0  0
   -7.0168    4.9324  -19.7511 C   0  0  0  0  0  0  0  0  0  0  0  0
   -6.1313    4.3591  -18.9013 N   0  0  0  0  0  0  0  0  0  0  0  0
   -6.5437    4.5702  -17.6559 N   0  0  0  0  0  0  0  0  0  0  0  0
   -9.1446    6.2408  -19.3655 C   0  0  0  0  0  0  0  0  0  0  0  0
   -9.9709    6.7153  -18.3314 C   0  0  0  0  0  0  0  0  0  0  0  0
   -9.6449    6.4651  -16.9785 C   0  0  0  0  0  0  0  0  0  0  0  0
   -8.6367    7.5475  -14.3937 O   0  0  0  0  0  0  0  0  0  0  0  0
   -8.4570    5.8161  -12.7809 C   0  0  0  0  0  0  0  0  0  0  0  0
   -8.3220    6.7089  -11.7028 C   0  0  0  0  0  0  0  0  0  0  0  0
   -8.3485    6.2420  -10.3857 C   0  0  0  0  0  0  0  0  0  0  0  0
   -8.5152    4.8738  -10.1195 C   0  0  0  0  0  0  0  0  0  0  0  0
   -8.5473    4.3867   -8.7645 N   0  0  0  0  0  0  0  0  0  0  0  0
   -7.6021    3.3461   -8.3388 C   0  0  0  0  0  0  0  0  0  0  0  0
   -8.2884    2.3693   -7.3804 C   0  0  0  0  0  0  0  0  0  0  0  0
   -8.9582    3.1221   -6.2256 C   0  0  0  0  0  0  0  0  0  0  0  0
   -9.9542    4.1586   -6.7572 C   0  0  0  0  0  0  0  0  0  0  0  0
   -9.2711    5.1302   -7.7249 C   0  0  0  0  0  0  0  0  0  0  0  0
   -8.6636    3.9826  -11.1924 C   0  0  0  0  0  0  0  0  0  0  0  0
   -8.6372    4.4478  -12.5102 C   0  0  0  0  0  0  0  0  0  0  0  0
   -7.5710    4.5873  -15.0806 H   0  0  0  0  0  0  0  0  0  0  0  0
   -6.9338    4.9209  -20.8297 H   0  0  0  0  0  0  0  0  0  0  0  0
   -6.0349    4.2399  -16.8067 H   0  0  0  0  0  0  0  0  0  0  0  0
   -9.3846    6.4262  -20.4045 H   0  0  0  0  0  0  0  0  0  0  0  0
  -10.8681    7.2698  -18.5739 H   0  0  0  0  0  0  0  0  0  0  0  0
  -10.3172    6.8166  -16.2072 H   0  0  0  0  0  0  0  0  0  0  0  0
   -8.1841    7.7688  -11.8774 H   0  0  0  0  0  0  0  0  0  0  0  0
   -8.2255    6.9472   -9.5736 H   0  0  0  0  0  0  0  0  0  0  0  0
   -7.2076    2.7789   -9.2090 H   0  0  0  0  0  0  0  0  0  0  0  0
   -6.7380    3.8251   -7.8289 H   0  0  0  0  0  0  0  0  0  0  0  0
   -7.5361    1.6598   -6.9734 H   0  0  0  0  0  0  0  0  0  0  0  0
   -9.0528    1.7828   -7.9360 H   0  0  0  0  0  0  0  0  0  0  0  0
   -9.4944    2.3968   -5.5764 H   0  0  0  0  0  0  0  0  0  0  0  0
   -8.1836    3.6286   -5.6085 H   0  0  0  0  0  0  0  0  0  0  0  0
  -10.3867    4.7273   -5.9061 H   0  0  0  0  0  0  0  0  0  0  0  0
  -10.7850    3.6384   -7.2827 H   0  0  0  0  0  0  0  0  0  0  0  0
   -8.5576    5.7770   -7.1694 H   0  0  0  0  0  0  0  0  0  0  0  0
  -10.0512    5.7791   -8.1801 H   0  0  0  0  0  0  0  0  0  0  0  0
   -8.8205    2.9275  -11.0069 H   0  0  0  0  0  0  0  0  0  0  0  0
   -8.7819    3.7356  -13.3118 H   0  0  0  0  0  0  0  0  0  0  0  0
  1  2  1  0
  2  3  1  0
  3  4  1  0
  4  5  2  0
  5  6  1  0
  6  7  2  0
  7  8  1  0
  5  9  1  0
  9 10  2  0
 10 11  1  0
  1 12  2  0
  1 13  1  0
 13 14  2  0
 14 15  1  0
 15 16  2  0
 16 17  1  0
 17 18  1  0
 18 19  1  0
 19 20  1  0
 20 21  1  0
 21 22  1  0
 16 23  1  0
 23 24  2  0
  3 11  2  0
  8  4  1  0
 24 13  1  0
 22 17  1  0
  2 25  1  0
  6 26  1  0
  8 27  1  0
  9 28  1  0
 10 29  1  0
 11 30  1  0
 14 31  1  0
 15 32  1  0
 18 33  1  0
 18 34  1  0
 19 35  1  0
 19 36  1  0
 20 37  1  0
 20 38  1  0
 21 39  1  0
 21 40  1  0
 22 41  1  0
 22 42  1  0
 23 43  1  0
 24 44  1  0
A    1
 C1 
A    2
 N1 
A    3
 C2 
A    4
 C3 
A    5
 C4 
A    6
 C5 
A    7
 N2 
A    8
 N3 
A    9
 C6 
A   10
 C7 
A   11
 C8 
A   12
 O1 
A   13
 C9 
A   14
 C10
A   15
 C11
A   16
 C12
A   17
 N4 
A   18
 C13
A   19
 C14
A   20
 C15
A   21
 C16
A   22
 C17
A   23
 C18
A   24
 C19
A   25
 H1 
A   26
 H2 
A   27
 H3 
A   28
 H4 
A   29
 H5 
A   30
 H6 
A   31
 H7 
A   32
 H8 
A   33
 H9 
A   34
 H10
A   35
 H11
A   36
 H12
A   37
 H13
A   38
 H14
A   39
 H15
A   40
 H16
A   41
 H17
A   42
 H18
A   43
 H19
A   44
 H20
M  END
>  <ref_pdb>  (70) 
x0051_0B

>  <ref_mols>  (70) 
x0435_0B,x0404_0B

>  <original SMILES>  (70) 
[H]c1c([H])c(N2C([H])([H])C([H])([H])C([H])([H])C([H])([H])C2([H])[H])c([H])c([H])c1C(=O)N([H])c1c([H])c([H])c([H])c2c([H])nn([H])c12

>  <index>  (70) 
51

>  <∆∆G>  (70) 
-8.30127

>  <∆G_bound>  (70) 
-7.945258

>  <∆G_unbound>  (70) 
0.356012

>  <comRMSD>  (70) 
0.533634

>  <N_constrained_atoms>  (70) 
25.0

>  <N_unconstrained_atoms>  (70) 
0.0

>  <runtime>  (70) 
80.057317

>  <LE>  (70) 
0.332051

>  <percent_hybrid>  (70) 
40.0

>  <dist>  (70) 
8.0

>  <ecfp4>  (70) 
0.186047

>  <daylight>  (70) 
0.231373

>  <topodist>  (70) 
3.0

>  <mces>  (70) 
27.0

>  <tdn>  (70) 
2.0

>  <tup>  (70) 
0.0

>  <rdn>  (70) 
0.0

>  <rup>  (70) 
0.0

>  <ldn>  (70) 
1.0

>  <lup>  (70) 
0.0

>  <mut>  (70) 
3.0

>  <maj>  (70) 
3.0

>  <min>  (70) 
0.0

>  <hyb>  (70) 
2.0

>  <sub>  (70) 
1.0

>  <query_index>  (70) 
26.0

>  <max_hit_Tanimoto>  (70) 
0.225182

>  <largest_ring>  (70) 
6

>  <N_interactions_kept>  (70) 
3.5

>  <N_interactions_lost>  (70) 
1.0

>  <interaction_uniqueness_metric>  (70) 
0.079199

>  <ad_hoc_penalty>  (70) 
-31.675516

>  <N_rotatable_bonds>  (70) 
3

>  <N_HA>  (70) 
24

>  <cluster>  (70) 
532

>  <N_interactions>  (70) 
5

>  <Enamine>  (70) 
0

>  <Mcule>  (70) 
1

>  <N_PAINS>  (70) 
0

>  <UFF_Gibbs>  (70) 
150.936404

>  <strain_per_HA>  (70) 
6.037456

>  <saltbridge:HIS:51>  (70) 
0

>  <pistack:HIS:51>  (70) 
1

>  <hydroph_interaction:HIS:51>  (70) 
0

>  <hbond:ALA:132>  (70) 
0

>  <hbond:SER:135>  (70) 
0

>  <hydroph_interaction:TYR:150>  (70) 
1

>  <pistack:TYR:161>  (70) 
0

>  <hydroph_interaction:TYR:161>  (70) 
2

>  <hydroph_interaction:ASP:83>  (70) 
0

>  <hbond:TYR:130>  (70) 
0

>  <hydroph_interaction:ALA:132>  (70) 
1

>  <hbond:HIS:51>  (70) 
0

>  <hbond:ASP:129>  (70) 
0

>  <hbond:TYR:150>  (70) 
0

>  <hbond:GLY:151>  (70) 
0

>  <hbond:TYR:161>  (70) 
0

>  <hydroph_interaction:TYR:130>  (70) 
0

>  <hydroph_interaction:PRO:131>  (70) 
0

>  <hydroph_interaction:ASP:129>  (70) 
0

>  <saltbridge:ASP:75>  (70) 
0

>  <saltbridge:ASP:83>  (70) 
0

>  <hydroph_interaction:ASN:152>  (70) 
0

>  <halogenbond:TYR:150>  (70) 
0

>  <hbond:ASP:83>  (70) 
0

>  <hydroph_interaction:VAL:155>  (70) 
0

>  <pication:TYR:161>  (70) 
0

>  <hbond:PRO:131>  (70) 
0

>  <hbond:LEU:128>  (70) 
0

>  <saltbridge:ASP:129>  (70) 
0

>  <hbond:THR:134>  (70) 
0

>  <pication:HIS:51>  (70) 
0

>  <hbond:SER:81>  (70) 
0

>  <hbond:GLY:159>  (70) 
0

>  <hydroph_interaction:PRO:101>  (70) 
0

>  <hydroph_interaction:THR:134>  (70) 
0

>  <hbond:GLY:82>  (70) 
0

>  <hydroph_interaction:GLU:104>  (70) 
0

>  <hydroph_interaction:VAL:36>  (70) 
0

>  <hydroph_interaction:MET:49>  (70) 
0

>  <halogenbond:GLU:104>  (70) 
0

>  <hydroph_interaction:LYS:107>  (70) 
0

$$$$
YRMMDKDNUOUNTM-UHFFFAOYSA-N
     RDKit          3D

 39 41  0  0  0  0  0  0  0  0999 V2000
  -10.2272    5.9951  -13.3918 O   0  0  0  0  0  0  0  0  0  0  0  0
   -9.0566    6.4117  -14.0390 C   0  0  0  0  0  0  0  0  0  0  0  0
   -8.4098    7.4020  -13.5993 O   0  0  0  0  0  0  0  0  0  0  0  0
   -8.5755    5.6803  -15.2314 C   0  0  0  0  0  0  0  0  0  0  0  0
   -9.2299    4.5117  -15.6561 C   0  0  0  0  0  0  0  0  0  0  0  0
   -8.7763    3.8076  -16.7814 C   0  0  0  0  0  0  0  0  0  0  0  0
   -9.5089    2.5848  -17.2488 C   0  0  0  0  0  0  0  0  0  0  0  0
   -7.6760    4.2906  -17.5036 C   0  0  0  0  0  0  0  0  0  0  0  0
   -7.0000    5.4432  -17.0799 C   0  0  0  0  0  0  0  0  0  0  0  0
   -5.8392    5.9695  -17.8716 C   0  0  0  0  0  0  0  0  0  0  0  0
   -7.4588    6.1399  -15.9520 C   0  0  0  0  0  0  0  0  0  0  0  0
  -10.6921    6.5664  -12.1710 C   0  0  0  0  0  0  0  0  0  0  0  0
   -9.8016    6.1676  -11.0357 C   0  0  0  0  0  0  0  0  0  0  0  0
   -9.2927    4.9227  -10.7587 C   0  0  0  0  0  0  0  0  0  0  0  0
   -8.5983    4.9721   -9.6184 N   0  0  0  0  0  0  0  0  0  0  0  0
   -7.8905    3.8305   -9.0460 C   0  0  0  0  0  0  0  0  0  0  0  0
   -8.4844    2.5148   -9.5914 C   0  0  0  0  0  0  0  0  0  0  0  0
   -8.6868    2.5890  -11.1199 C   0  0  0  0  0  0  0  0  0  0  0  0
   -9.4500    3.7438  -11.4831 O   0  0  0  0  0  0  0  0  0  0  0  0
   -8.6180    6.2027   -9.1327 N   0  0  0  0  0  0  0  0  0  0  0  0
   -9.3608    6.9537   -9.9799 C   0  0  0  0  0  0  0  0  0  0  0  0
  -10.0926    4.1432  -15.1143 H   0  0  0  0  0  0  0  0  0  0  0  0
   -8.8349    1.9172  -17.8266 H   0  0  0  0  0  0  0  0  0  0  0  0
  -10.3576    2.8885  -17.8966 H   0  0  0  0  0  0  0  0  0  0  0  0
   -9.8998    2.0103  -16.3823 H   0  0  0  0  0  0  0  0  0  0  0  0
   -7.3426    3.7680  -18.3925 H   0  0  0  0  0  0  0  0  0  0  0  0
   -6.2105    6.6623  -18.6551 H   0  0  0  0  0  0  0  0  0  0  0  0
   -5.2842    5.1375  -18.3552 H   0  0  0  0  0  0  0  0  0  0  0  0
   -5.1311    6.5162  -17.2133 H   0  0  0  0  0  0  0  0  0  0  0  0
   -6.9463    7.0433  -15.6425 H   0  0  0  0  0  0  0  0  0  0  0  0
  -10.7386    7.6732  -12.2608 H   0  0  0  0  0  0  0  0  0  0  0  0
  -11.7161    6.1904  -11.9673 H   0  0  0  0  0  0  0  0  0  0  0  0
   -6.8158    3.8957   -9.3217 H   0  0  0  0  0  0  0  0  0  0  0  0
   -7.9762    3.8491   -7.9385 H   0  0  0  0  0  0  0  0  0  0  0  0
   -7.8117    1.6665   -9.3407 H   0  0  0  0  0  0  0  0  0  0  0  0
   -9.4689    2.3330   -9.1076 H   0  0  0  0  0  0  0  0  0  0  0  0
   -9.2086    1.6770  -11.4779 H   0  0  0  0  0  0  0  0  0  0  0  0
   -7.6942    2.6417  -11.6176 H   0  0  0  0  0  0  0  0  0  0  0  0
   -9.5687    8.0052   -9.8367 H   0  0  0  0  0  0  0  0  0  0  0  0
  1  2  1  0
  2  3  2  0
  2  4  1  0
  4  5  2  0
  5  6  1  0
  6  7  1  0
  6  8  2  0
  8  9  1  0
  9 10  1  0
  9 11  2  0
  1 12  1  0
 12 13  1  0
 13 14  2  0
 14 15  1  0
 15 16  1  0
 16 17  1  0
 17 18  1  0
 18 19  1  0
 15 20  1  0
 20 21  2  0
  4 11  1  0
 21 13  1  0
 19 14  1  0
  5 22  1  0
  7 23  1  0
  7 24  1  0
  7 25  1  0
  8 26  1  0
 10 27  1  0
 10 28  1  0
 10 29  1  0
 11 30  1  0
 12 31  1  0
 12 32  1  0
 16 33  1  0
 16 34  1  0
 17 35  1  0
 17 36  1  0
 18 37  1  0
 18 38  1  0
 21 39  1  0
A    1
 O1 
A    2
 C1 
A    3
 O2 
A    4
 C2 
A    5
 C3 
A    6
 C4 
A    7
 C5 
A    8
 C6 
A    9
 C7 
A   10
 C8 
A   11
 C9 
A   12
 C10
A   13
 C11
A   14
 C12
A   15
 N1 
A   16
 C13
A   17
 C14
A   18
 C15
A   19
 O3 
A   20
 N2 
A   21
 C16
A   22
 H1 
A   23
 H2 
A   24
 H3 
A   25
 H4 
A   26
 H5 
A   27
 H6 
A   28
 H7 
A   29
 H8 
A   30
 H9 
A   31
 H10
A   32
 H11
A   33
 H12
A   34
 H13
A   35
 H14
A   36
 H15
A   37
 H16
A   38
 H17
A   39
 H18
M  END
>  <ref_pdb>  (71) 
x0051_0B

>  <ref_mols>  (71) 
x0969_1B,x0589_0B

>  <original SMILES>  (71) 
[H]c1nn2c(c1C([H])([H])OC(=O)c1c([H])c(C([H])([H])[H])c([H])c(C([H])([H])[H])c1[H])OC([H])([H])C([H])([H])C2([H])[H]

>  <index>  (71) 
77

>  <∆∆G>  (71) 
-8.79516

>  <∆G_bound>  (71) 
-8.572494

>  <∆G_unbound>  (71) 
0.222667

>  <comRMSD>  (71) 
0.518071

>  <N_constrained_atoms>  (71) 
18.0

>  <N_unconstrained_atoms>  (71) 
3.0

>  <runtime>  (71) 
60.128616

>  <LE>  (71) 
0.418817

>  <percent_hybrid>  (71) 
45.0

>  <dist>  (71) 
5.0

>  <ecfp4>  (71) 
0.333333

>  <daylight>  (71) 
0.381323

>  <topodist>  (71) 
1.0

>  <mces>  (71) 
22.0

>  <tdn>  (71) 
0.0

>  <tup>  (71) 
1.0

>  <rdn>  (71) 
0.0

>  <rup>  (71) 
0.0

>  <ldn>  (71) 
0.0

>  <lup>  (71) 
0.0

>  <mut>  (71) 
3.0

>  <maj>  (71) 
3.0

>  <min>  (71) 
0.0

>  <hyb>  (71) 
1.0

>  <sub>  (71) 
0.0

>  <query_index>  (71) 
380.0

>  <max_hit_Tanimoto>  (71) 
0.244939

>  <largest_ring>  (71) 
6

>  <N_interactions_kept>  (71) 
1.5

>  <N_interactions_lost>  (71) 
1.0

>  <interaction_uniqueness_metric>  (71) 
0.176776

>  <ad_hoc_penalty>  (71) 
-31.594961

>  <N_rotatable_bonds>  (71) 
5

>  <N_HA>  (71) 
21

>  <cluster>  (71) 
6147

>  <N_interactions>  (71) 
6

>  <Enamine>  (71) 
0

>  <Mcule>  (71) 
1

>  <N_PAINS>  (71) 
0

>  <UFF_Gibbs>  (71) 
119.090706

>  <strain_per_HA>  (71) 
5.670986

>  <saltbridge:HIS:51>  (71) 
1

>  <pistack:HIS:51>  (71) 
1

>  <hydroph_interaction:HIS:51>  (71) 
0

>  <hbond:ALA:132>  (71) 
0

>  <hbond:SER:135>  (71) 
0

>  <hydroph_interaction:TYR:150>  (71) 
1

>  <pistack:TYR:161>  (71) 
1

>  <hydroph_interaction:TYR:161>  (71) 
1

>  <hydroph_interaction:ASP:83>  (71) 
0

>  <hbond:TYR:130>  (71) 
0

>  <hydroph_interaction:ALA:132>  (71) 
1

>  <hbond:HIS:51>  (71) 
0

>  <hbond:ASP:129>  (71) 
0

>  <hbond:TYR:150>  (71) 
0

>  <hbond:GLY:151>  (71) 
0

>  <hbond:TYR:161>  (71) 
0

>  <hydroph_interaction:TYR:130>  (71) 
0

>  <hydroph_interaction:PRO:131>  (71) 
0

>  <hydroph_interaction:ASP:129>  (71) 
0

>  <saltbridge:ASP:75>  (71) 
0

>  <saltbridge:ASP:83>  (71) 
0

>  <hydroph_interaction:ASN:152>  (71) 
0

>  <halogenbond:TYR:150>  (71) 
0

>  <hbond:ASP:83>  (71) 
0

>  <hydroph_interaction:VAL:155>  (71) 
0

>  <pication:TYR:161>  (71) 
0

>  <hbond:PRO:131>  (71) 
0

>  <hbond:LEU:128>  (71) 
0

>  <saltbridge:ASP:129>  (71) 
0

>  <hbond:THR:134>  (71) 
0

>  <pication:HIS:51>  (71) 
0

>  <hbond:SER:81>  (71) 
0

>  <hbond:GLY:159>  (71) 
0

>  <hydroph_interaction:PRO:101>  (71) 
0

>  <hydroph_interaction:THR:134>  (71) 
0

>  <hbond:GLY:82>  (71) 
0

>  <hydroph_interaction:GLU:104>  (71) 
0

>  <hydroph_interaction:VAL:36>  (71) 
0

>  <hydroph_interaction:MET:49>  (71) 
0

>  <halogenbond:GLU:104>  (71) 
0

>  <hydroph_interaction:LYS:107>  (71) 
0

$$$$
Z4013376918
     RDKit          3D

 43 46  0  0  0  0  0  0  0  0999 V2000
   -9.8915    6.9906  -12.5947 O   0  0  0  0  0  0  0  0  0  0  0  0
   -9.5275    5.8893  -12.0987 C   0  0  0  0  0  0  0  0  0  0  0  0
   -9.4062    4.7563  -12.9100 O   0  0  0  0  0  0  0  0  0  0  0  0
   -9.5446    4.7843  -14.3298 C   0  0  0  0  0  0  0  0  0  0  0  0
   -8.3087    5.4227  -14.9979 C   0  0  0  0  0  0  0  0  0  0  0  0
   -7.0218    4.7040  -14.5401 C   0  0  0  0  0  0  0  0  0  0  0  0
   -5.8204    5.1612  -15.3650 C   0  0  0  0  0  0  0  0  0  0  0  0
   -6.0071    4.7680  -16.8305 C   0  0  0  0  0  0  0  0  0  0  0  0
   -7.3518    5.1928  -17.3657 C   0  0  0  0  0  0  0  0  0  0  0  0
   -7.5423    5.2710  -18.7526 C   0  0  0  0  0  0  0  0  0  0  0  0
   -8.7866    5.6259  -19.2715 C   0  0  0  0  0  0  0  0  0  0  0  0
   -9.8382    5.8953  -18.3980 C   0  0  0  0  0  0  0  0  0  0  0  0
   -9.6487    5.8014  -17.0562 N   0  0  0  0  0  0  0  0  0  0  0  0
   -8.4541    5.4340  -16.5107 C   0  0  0  0  0  0  0  0  0  0  0  0
   -9.2535    5.7996  -10.6532 C   0  0  0  0  0  0  0  0  0  0  0  0
   -8.7170    4.7312   -9.9419 C   0  0  0  0  0  0  0  0  0  0  0  0
   -8.3110    3.3948  -10.5042 C   0  0  0  0  0  0  0  0  0  0  0  0
   -7.1619    2.5017   -9.4008 S   0  0  0  0  0  0  0  0  0  0  0  0
   -8.1755    2.7313   -7.9061 C   0  0  0  0  0  0  0  0  0  0  0  0
   -8.1977    4.2085   -7.5260 C   0  0  0  0  0  0  0  0  0  0  0  0
   -8.7081    5.0316   -8.6233 N   0  0  0  0  0  0  0  0  0  0  0  0
   -9.1733    6.2889   -8.4927 C   0  0  0  0  0  0  0  0  0  0  0  0
   -9.5246    6.7930   -9.7277 C   0  0  0  0  0  0  0  0  0  0  0  0
  -10.4705    5.3379  -14.5999 H   0  0  0  0  0  0  0  0  0  0  0  0
   -9.6601    3.7398  -14.6912 H   0  0  0  0  0  0  0  0  0  0  0  0
   -8.2426    6.4835  -14.6713 H   0  0  0  0  0  0  0  0  0  0  0  0
   -7.1374    3.6013  -14.6383 H   0  0  0  0  0  0  0  0  0  0  0  0
   -6.8267    4.9340  -13.4701 H   0  0  0  0  0  0  0  0  0  0  0  0
   -5.7019    6.2642  -15.2811 H   0  0  0  0  0  0  0  0  0  0  0  0
   -4.8971    4.6837  -14.9715 H   0  0  0  0  0  0  0  0  0  0  0  0
   -5.1950    5.2346  -17.4297 H   0  0  0  0  0  0  0  0  0  0  0  0
   -5.9174    3.6645  -16.9304 H   0  0  0  0  0  0  0  0  0  0  0  0
   -6.7253    5.0596  -19.4315 H   0  0  0  0  0  0  0  0  0  0  0  0
   -8.9338    5.6940  -20.3416 H   0  0  0  0  0  0  0  0  0  0  0  0
  -10.8065    6.1817  -18.7858 H   0  0  0  0  0  0  0  0  0  0  0  0
   -9.2170    2.7757  -10.6720 H   0  0  0  0  0  0  0  0  0  0  0  0
   -7.7870    3.5350  -11.4709 H   0  0  0  0  0  0  0  0  0  0  0  0
   -7.7294    2.1437   -7.0764 H   0  0  0  0  0  0  0  0  0  0  0  0
   -9.2086    2.3617   -8.0831 H   0  0  0  0  0  0  0  0  0  0  0  0
   -7.1693    4.5416   -7.2675 H   0  0  0  0  0  0  0  0  0  0  0  0
   -8.8421    4.3393   -6.6295 H   0  0  0  0  0  0  0  0  0  0  0  0
   -9.2592    6.8149   -7.5504 H   0  0  0  0  0  0  0  0  0  0  0  0
   -9.9461    7.7699   -9.9256 H   0  0  0  0  0  0  0  0  0  0  0  0
  1  2  2  0
  2  3  1  0
  3  4  1  0
  4  5  1  0
  5  6  1  0
  6  7  1  0
  7  8  1  0
  8  9  1  0
  9 10  2  0
 10 11  1  0
 11 12  2  0
 12 13  1  0
 13 14  2  0
  2 15  1  0
 15 16  2  0
 16 17  1  0
 17 18  1  0
 18 19  1  0
 19 20  1  0
 20 21  1  0
 21 22  1  0
 22 23  2  0
 14  5  1  0
 14  9  1  0
 23 15  1  0
 21 16  1  0
  4 24  1  0
  4 25  1  0
  5 26  1  0
  6 27  1  0
  6 28  1  0
  7 29  1  0
  7 30  1  0
  8 31  1  0
  8 32  1  0
 10 33  1  0
 11 34  1  0
 12 35  1  0
 17 36  1  0
 17 37  1  0
 19 38  1  0
 19 39  1  0
 20 40  1  0
 20 41  1  0
 22 42  1  0
 23 43  1  0
A    1
 O1 
A    2
 C1 
A    3
 O2 
A    4
 C2 
A    5
 C3 
A    6
 C4 
A    7
 C5 
A    8
 C6 
A    9
 C7 
A   10
 C8 
A   11
 C9 
A   12
 C10
A   13
 N1 
A   14
 C11
A   15
 C12
A   16
 C13
A   17
 C14
A   18
 S1 
A   19
 C15
A   20
 C16
A   21
 N2 
A   22
 C17
A   23
 C18
A   24
 H1 
A   25
 H2 
A   26
 H3 
A   27
 H4 
A   28
 H5 
A   29
 H6 
A   30
 H7 
A   31
 H8 
A   32
 H9 
A   33
 H10
A   34
 H11
A   35
 H12
A   36
 H13
A   37
 H14
A   38
 H15
A   39
 H16
A   40
 H17
A   41
 H18
A   42
 H19
A   43
 H20
M  END
>  <ref_pdb>  (72) 
x0051_0B

>  <ref_mols>  (72) 
x0969_1B,x0455_0B

>  <original SMILES>  (72) 
[H]c1nc2c(c([H])c1[H])C([H])([H])C([H])([H])C([H])([H])C2([H])C([H])([H])OC(=O)c1c([H])c([H])n2c1C([H])([H])SC([H])([H])C2([H])[H]

>  <index>  (72) 
132

>  <∆∆G>  (72) 
-7.434509

>  <∆G_bound>  (72) 
-6.269205

>  <∆G_unbound>  (72) 
1.165304

>  <comRMSD>  (72) 
0.367147

>  <N_constrained_atoms>  (72) 
20.0

>  <N_unconstrained_atoms>  (72) 
3.0

>  <runtime>  (72) 
61.714466

>  <LE>  (72) 
0.32324

>  <percent_hybrid>  (72) 
50.0

>  <dist>  (72) 
5.0

>  <ecfp4>  (72) 
0.275862

>  <daylight>  (72) 
0.350543

>  <topodist>  (72) 
1.0

>  <mces>  (72) 
25.0

>  <tdn>  (72) 
0.0

>  <tup>  (72) 
1.0

>  <rdn>  (72) 
0.0

>  <rup>  (72) 
0.0

>  <ldn>  (72) 
0.0

>  <lup>  (72) 
0.0

>  <mut>  (72) 
3.0

>  <maj>  (72) 
3.0

>  <min>  (72) 
0.0

>  <hyb>  (72) 
1.0

>  <sub>  (72) 
0.0

>  <query_index>  (72) 
204.0

>  <max_hit_Tanimoto>  (72) 
0.217286

>  <largest_ring>  (72) 
6

>  <N_interactions_kept>  (72) 
1.0

>  <N_interactions_lost>  (72) 
1.5

>  <interaction_uniqueness_metric>  (72) 
0.157523

>  <ad_hoc_penalty>  (72) 
-31.538014

>  <N_rotatable_bonds>  (72) 
3

>  <N_HA>  (72) 
23

>  <cluster>  (72) 
6096

>  <N_interactions>  (72) 
6

>  <Enamine>  (72) 
1

>  <Mcule>  (72) 
0

>  <N_PAINS>  (72) 
0

>  <UFF_Gibbs>  (72) 
60.564857

>  <strain_per_HA>  (72) 
2.633255

>  <saltbridge:HIS:51>  (72) 
1

>  <pistack:HIS:51>  (72) 
0

>  <hydroph_interaction:HIS:51>  (72) 
1

>  <hbond:ALA:132>  (72) 
0

>  <hbond:SER:135>  (72) 
0

>  <hydroph_interaction:TYR:150>  (72) 
1

>  <pistack:TYR:161>  (72) 
0

>  <hydroph_interaction:TYR:161>  (72) 
3

>  <hydroph_interaction:ASP:83>  (72) 
0

>  <hbond:TYR:130>  (72) 
0

>  <hydroph_interaction:ALA:132>  (72) 
0

>  <hbond:HIS:51>  (72) 
0

>  <hbond:ASP:129>  (72) 
0

>  <hbond:TYR:150>  (72) 
0

>  <hbond:GLY:151>  (72) 
0

>  <hbond:TYR:161>  (72) 
0

>  <hydroph_interaction:TYR:130>  (72) 
0

>  <hydroph_interaction:PRO:131>  (72) 
0

>  <hydroph_interaction:ASP:129>  (72) 
0

>  <saltbridge:ASP:75>  (72) 
0

>  <saltbridge:ASP:83>  (72) 
0

>  <hydroph_interaction:ASN:152>  (72) 
0

>  <halogenbond:TYR:150>  (72) 
0

>  <hbond:ASP:83>  (72) 
0

>  <hydroph_interaction:VAL:155>  (72) 
0

>  <pication:TYR:161>  (72) 
0

>  <hbond:PRO:131>  (72) 
0

>  <hbond:LEU:128>  (72) 
0

>  <saltbridge:ASP:129>  (72) 
0

>  <hbond:THR:134>  (72) 
0

>  <pication:HIS:51>  (72) 
0

>  <hbond:SER:81>  (72) 
0

>  <hbond:GLY:159>  (72) 
0

>  <hydroph_interaction:PRO:101>  (72) 
0

>  <hydroph_interaction:THR:134>  (72) 
0

>  <hbond:GLY:82>  (72) 
0

>  <hydroph_interaction:GLU:104>  (72) 
0

>  <hydroph_interaction:VAL:36>  (72) 
0

>  <hydroph_interaction:MET:49>  (72) 
0

>  <halogenbond:GLU:104>  (72) 
0

>  <hydroph_interaction:LYS:107>  (72) 
0

$$$$
Z3520894948
     RDKit          3D

 45 48  0  0  0  0  0  0  0  0999 V2000
   -8.9863    7.7957  -13.1011 O   0  0  0  0  0  0  0  0  0  0  0  0
   -9.5080    6.6479  -13.0759 C   0  0  0  0  0  0  0  0  0  0  0  0
  -10.4125    6.2782  -11.9413 C   0  0  0  0  0  0  0  0  0  0  0  0
   -9.5997    5.8820  -10.7472 C   0  0  0  0  0  0  0  0  0  0  0  0
   -9.0073    4.6630  -10.4827 C   0  0  0  0  0  0  0  0  0  0  0  0
   -9.0148    3.4244  -11.3291 C   0  0  0  0  0  0  0  0  0  0  0  0
   -8.5230    2.2185  -10.5140 C   0  0  0  0  0  0  0  0  0  0  0  0
   -7.2534    2.5629   -9.7176 C   0  0  0  0  0  0  0  0  0  0  0  0
   -7.5230    3.7044   -8.7232 C   0  0  0  0  0  0  0  0  0  0  0  0
   -8.2647    4.7865   -9.3682 N   0  0  0  0  0  0  0  0  0  0  0  0
   -8.3718    6.0144   -8.8857 N   0  0  0  0  0  0  0  0  0  0  0  0
   -9.1738    6.7089   -9.7204 C   0  0  0  0  0  0  0  0  0  0  0  0
   -9.2017    5.6884  -14.0980 N   0  0  0  0  0  0  0  0  0  0  0  0
   -8.1459    5.9103  -15.0906 C   0  0  0  0  0  0  0  0  0  0  0  0
   -6.8037    5.4367  -14.5017 C   0  0  0  0  0  0  0  0  0  0  0  0
   -5.7044    5.4711  -15.5616 C   0  0  0  0  0  0  0  0  0  0  0  0
   -6.0884    4.6437  -16.7007 N   0  0  0  0  0  0  0  0  0  0  0  0
   -7.4463    4.6083  -17.1632 C   0  0  0  0  0  0  0  0  0  0  0  0
   -7.7557    3.9762  -18.3762 C   0  0  0  0  0  0  0  0  0  0  0  0
   -9.0704    3.9622  -18.8472 C   0  0  0  0  0  0  0  0  0  0  0  0
  -10.0826    4.5843  -18.1145 C   0  0  0  0  0  0  0  0  0  0  0  0
   -9.7870    5.2093  -16.9003 C   0  0  0  0  0  0  0  0  0  0  0  0
   -8.4739    5.1995  -16.3941 C   0  0  0  0  0  0  0  0  0  0  0  0
  -11.0817    5.4427  -12.2367 H   0  0  0  0  0  0  0  0  0  0  0  0
  -11.0569    7.1459  -11.6829 H   0  0  0  0  0  0  0  0  0  0  0  0
   -8.3382    3.5808  -12.1952 H   0  0  0  0  0  0  0  0  0  0  0  0
  -10.0399    3.2252  -11.7069 H   0  0  0  0  0  0  0  0  0  0  0  0
   -8.3098    1.3730  -11.2029 H   0  0  0  0  0  0  0  0  0  0  0  0
   -9.3223    1.8941   -9.8117 H   0  0  0  0  0  0  0  0  0  0  0  0
   -6.9060    1.6647   -9.1633 H   0  0  0  0  0  0  0  0  0  0  0  0
   -6.4479    2.8673  -10.4215 H   0  0  0  0  0  0  0  0  0  0  0  0
   -6.5577    4.0916   -8.3322 H   0  0  0  0  0  0  0  0  0  0  0  0
   -8.1197    3.3179   -7.8691 H   0  0  0  0  0  0  0  0  0  0  0  0
   -9.4203    7.7551   -9.5971 H   0  0  0  0  0  0  0  0  0  0  0  0
   -9.6293    4.7366  -14.0310 H   0  0  0  0  0  0  0  0  0  0  0  0
   -8.0706    6.9955  -15.3233 H   0  0  0  0  0  0  0  0  0  0  0  0
   -6.9048    4.3966  -14.1202 H   0  0  0  0  0  0  0  0  0  0  0  0
   -6.5164    6.0913  -13.6504 H   0  0  0  0  0  0  0  0  0  0  0  0
   -5.5458    6.5164  -15.9044 H   0  0  0  0  0  0  0  0  0  0  0  0
   -4.7532    5.0939  -15.1283 H   0  0  0  0  0  0  0  0  0  0  0  0
   -5.3477    4.1091  -17.2084 H   0  0  0  0  0  0  0  0  0  0  0  0
   -6.9757    3.5059  -18.9617 H   0  0  0  0  0  0  0  0  0  0  0  0
   -9.3027    3.4785  -19.7873 H   0  0  0  0  0  0  0  0  0  0  0  0
  -11.0977    4.5862  -18.4900 H   0  0  0  0  0  0  0  0  0  0  0  0
  -10.5839    5.6990  -16.3548 H   0  0  0  0  0  0  0  0  0  0  0  0
  1  2  2  0
  2  3  1  0
  3  4  1  0
  4  5  2  0
  5  6  1  0
  6  7  1  0
  7  8  1  0
  8  9  1  0
  9 10  1  0
 10 11  1  0
 11 12  2  0
  2 13  1  0
 13 14  1  0
 14 15  1  0
 15 16  1  0
 16 17  1  0
 17 18  1  0
 18 19  2  0
 19 20  1  0
 20 21  2  0
 21 22  1  0
 22 23  2  0
 12  4  1  0
 10  5  1  0
 23 14  1  0
 23 18  1  0
  3 24  1  0
  3 25  1  0
  6 26  1  0
  6 27  1  0
  7 28  1  0
  7 29  1  0
  8 30  1  0
  8 31  1  0
  9 32  1  0
  9 33  1  0
 12 34  1  0
 13 35  1  0
 14 36  1  0
 15 37  1  0
 15 38  1  0
 16 39  1  0
 16 40  1  0
 17 41  1  0
 19 42  1  0
 20 43  1  0
 21 44  1  0
 22 45  1  0
A    1
 O1 
A    2
 C1 
A    3
 C2 
A    4
 C3 
A    5
 C4 
A    6
 C5 
A    7
 C6 
A    8
 C7 
A    9
 C8 
A   10
 N1 
A   11
 N2 
A   12
 C9 
A   13
 N3 
A   14
 C10
A   15
 C11
A   16
 C12
A   17
 N4 
A   18
 C13
A   19
 C14
A   20
 C15
A   21
 C16
A   22
 C17
A   23
 C18
A   24
 H1 
A   25
 H2 
A   26
 H3 
A   27
 H4 
A   28
 H5 
A   29
 H6 
A   30
 H7 
A   31
 H8 
A   32
 H9 
A   33
 H10
A   34
 H11
A   35
 H12
A   36
 H13
A   37
 H14
A   38
 H15
A   39
 H16
A   40
 H17
A   41
 H18
A   42
 H19
A   43
 H20
A   44
 H21
A   45
 H22
M  END
>  <ref_pdb>  (73) 
x0051_0B

>  <ref_mols>  (73) 
x0969_1B,x0455_0B

>  <original SMILES>  (73) 
[H]c1nn2c(c1C([H])([H])C(=O)N([H])C1([H])c3c([H])c([H])c([H])c([H])c3N([H])C([H])([H])C1([H])[H])C([H])([H])C([H])([H])C([H])([H])C2([H])[H]

>  <index>  (73) 
52

>  <∆∆G>  (73) 
-6.916073

>  <∆G_bound>  (73) 
-5.647135

>  <∆G_unbound>  (73) 
1.268938

>  <comRMSD>  (73) 
0.891182

>  <N_constrained_atoms>  (73) 
20.0

>  <N_unconstrained_atoms>  (73) 
3.0

>  <runtime>  (73) 
51.923284

>  <LE>  (73) 
0.300699

>  <percent_hybrid>  (73) 
50.0

>  <dist>  (73) 
5.0

>  <ecfp4>  (73) 
0.346154

>  <daylight>  (73) 
0.325967

>  <topodist>  (73) 
1.0

>  <mces>  (73) 
25.0

>  <tdn>  (73) 
0.0

>  <tup>  (73) 
1.0

>  <rdn>  (73) 
0.0

>  <rup>  (73) 
0.0

>  <ldn>  (73) 
0.0

>  <lup>  (73) 
0.0

>  <mut>  (73) 
4.0

>  <maj>  (73) 
4.0

>  <min>  (73) 
0.0

>  <hyb>  (73) 
0.0

>  <sub>  (73) 
0.0

>  <query_index>  (73) 
204.0

>  <max_hit_Tanimoto>  (73) 
0.298366

>  <largest_ring>  (73) 
6

>  <N_interactions_kept>  (73) 
1.0

>  <N_interactions_lost>  (73) 
1.5

>  <interaction_uniqueness_metric>  (73) 
0.225399

>  <ad_hoc_penalty>  (73) 
-31.49862

>  <N_rotatable_bonds>  (73) 
3

>  <N_HA>  (73) 
23

>  <cluster>  (73) 
6170

>  <N_interactions>  (73) 
7

>  <Enamine>  (73) 
1

>  <Mcule>  (73) 
0

>  <N_PAINS>  (73) 
0

>  <UFF_Gibbs>  (73) 
173.786661

>  <strain_per_HA>  (73) 
7.555942

>  <saltbridge:HIS:51>  (73) 
0

>  <pistack:HIS:51>  (73) 
1

>  <hydroph_interaction:HIS:51>  (73) 
1

>  <hbond:ALA:132>  (73) 
0

>  <hbond:SER:135>  (73) 
0

>  <hydroph_interaction:TYR:150>  (73) 
1

>  <pistack:TYR:161>  (73) 
1

>  <hydroph_interaction:TYR:161>  (73) 
1

>  <hydroph_interaction:ASP:83>  (73) 
1

>  <hbond:TYR:130>  (73) 
0

>  <hydroph_interaction:ALA:132>  (73) 
0

>  <hbond:HIS:51>  (73) 
0

>  <hbond:ASP:129>  (73) 
0

>  <hbond:TYR:150>  (73) 
0

>  <hbond:GLY:151>  (73) 
1

>  <hbond:TYR:161>  (73) 
0

>  <hydroph_interaction:TYR:130>  (73) 
0

>  <hydroph_interaction:PRO:131>  (73) 
0

>  <hydroph_interaction:ASP:129>  (73) 
0

>  <saltbridge:ASP:75>  (73) 
0

>  <saltbridge:ASP:83>  (73) 
0

>  <hydroph_interaction:ASN:152>  (73) 
0

>  <halogenbond:TYR:150>  (73) 
0

>  <hbond:ASP:83>  (73) 
0

>  <hydroph_interaction:VAL:155>  (73) 
0

>  <pication:TYR:161>  (73) 
0

>  <hbond:PRO:131>  (73) 
0

>  <hbond:LEU:128>  (73) 
0

>  <saltbridge:ASP:129>  (73) 
0

>  <hbond:THR:134>  (73) 
0

>  <pication:HIS:51>  (73) 
0

>  <hbond:SER:81>  (73) 
0

>  <hbond:GLY:159>  (73) 
0

>  <hydroph_interaction:PRO:101>  (73) 
0

>  <hydroph_interaction:THR:134>  (73) 
0

>  <hbond:GLY:82>  (73) 
0

>  <hydroph_interaction:GLU:104>  (73) 
0

>  <hydroph_interaction:VAL:36>  (73) 
0

>  <hydroph_interaction:MET:49>  (73) 
0

>  <halogenbond:GLU:104>  (73) 
0

>  <hydroph_interaction:LYS:107>  (73) 
0

$$$$
PFJSYGBLOVTNTD-UHFFFAOYSA-N
     RDKit          3D

 37 38  0  0  0  0  0  0  0  0999 V2000
   -6.0015    6.1030  -19.1934 C   0  0  0  0  0  0  0  0  0  0  0  0
   -5.8177    5.5089  -20.4942 N   0  0  0  0  0  0  0  0  0  0  0  0
   -4.7504    5.8762  -21.4464 C   0  0  0  0  0  0  0  0  0  0  0  0
   -4.8075    7.3852  -21.7550 C   0  0  0  0  0  0  0  0  0  0  0  0
   -3.3702    5.4979  -20.8743 C   0  0  0  0  0  0  0  0  0  0  0  0
   -4.9631    5.1001  -22.7629 C   0  0  0  0  0  0  0  0  0  0  0  0
   -5.0889    6.8083  -18.6846 O   0  0  0  0  0  0  0  0  0  0  0  0
   -7.2498    5.8788  -18.4251 C   0  0  0  0  0  0  0  0  0  0  0  0
   -8.4631    5.6088  -19.0805 C   0  0  0  0  0  0  0  0  0  0  0  0
   -9.6333    5.4118  -18.3461 C   0  0  0  0  0  0  0  0  0  0  0  0
   -9.6111    5.4822  -16.9523 C   0  0  0  0  0  0  0  0  0  0  0  0
   -8.4100    5.7525  -16.2713 C   0  0  0  0  0  0  0  0  0  0  0  0
   -8.3667    5.8455  -14.7890 C   0  0  0  0  0  0  0  0  0  0  0  0
   -7.4379    6.6503  -14.1972 N   0  0  0  0  0  0  0  0  0  0  0  0
   -7.3420    6.7775  -12.8470 C   0  0  0  0  0  0  0  0  0  0  0  0
   -8.2090    6.0682  -12.0154 C   0  0  0  0  0  0  0  0  0  0  0  0
   -9.1647    5.2281  -12.5863 C   0  0  0  0  0  0  0  0  0  0  0  0
   -9.2481    5.1092  -13.9752 C   0  0  0  0  0  0  0  0  0  0  0  0
   -7.2371    5.9625  -17.0206 C   0  0  0  0  0  0  0  0  0  0  0  0
   -6.4860    4.7553  -20.7734 H   0  0  0  0  0  0  0  0  0  0  0  0
   -4.0692    7.6521  -22.5419 H   0  0  0  0  0  0  0  0  0  0  0  0
   -5.8215    7.6663  -22.1123 H   0  0  0  0  0  0  0  0  0  0  0  0
   -4.5742    7.9921  -20.8564 H   0  0  0  0  0  0  0  0  0  0  0  0
   -3.3590    4.4282  -20.5734 H   0  0  0  0  0  0  0  0  0  0  0  0
   -2.5749    5.6582  -21.6342 H   0  0  0  0  0  0  0  0  0  0  0  0
   -3.1109    6.1129  -19.9891 H   0  0  0  0  0  0  0  0  0  0  0  0
   -5.9566    5.3417  -23.1989 H   0  0  0  0  0  0  0  0  0  0  0  0
   -4.1810    5.3595  -23.5092 H   0  0  0  0  0  0  0  0  0  0  0  0
   -4.9210    4.0046  -22.5795 H   0  0  0  0  0  0  0  0  0  0  0  0
   -8.5192    5.5779  -20.1606 H   0  0  0  0  0  0  0  0  0  0  0  0
  -10.5654    5.2166  -18.8607 H   0  0  0  0  0  0  0  0  0  0  0  0
  -10.5413    5.3538  -16.4151 H   0  0  0  0  0  0  0  0  0  0  0  0
   -6.5916    7.4292  -12.4199 H   0  0  0  0  0  0  0  0  0  0  0  0
   -8.1369    6.1645  -10.9398 H   0  0  0  0  0  0  0  0  0  0  0  0
   -9.8367    4.6637  -11.9527 H   0  0  0  0  0  0  0  0  0  0  0  0
   -9.9766    4.4315  -14.3999 H   0  0  0  0  0  0  0  0  0  0  0  0
   -6.3048    6.1678  -16.5078 H   0  0  0  0  0  0  0  0  0  0  0  0
  1  2  1  0
  2  3  1  0
  3  4  1  0
  3  5  1  0
  3  6  1  0
  1  7  2  0
  1  8  1  0
  8  9  2  0
  9 10  1  0
 10 11  2  0
 11 12  1  0
 12 13  1  0
 13 14  2  0
 14 15  1  0
 15 16  2  0
 16 17  1  0
 17 18  2  0
 12 19  2  0
 19  8  1  0
 18 13  1  0
  2 20  1  0
  4 21  1  0
  4 22  1  0
  4 23  1  0
  5 24  1  0
  5 25  1  0
  5 26  1  0
  6 27  1  0
  6 28  1  0
  6 29  1  0
  9 30  1  0
 10 31  1  0
 11 32  1  0
 15 33  1  0
 16 34  1  0
 17 35  1  0
 18 36  1  0
 19 37  1  0
A    1
 C1 
A    2
 N1 
A    3
 C2 
A    4
 C3 
A    5
 C4 
A    6
 C5 
A    7
 O1 
A    8
 C6 
A    9
 C7 
A   10
 C8 
A   11
 C9 
A   12
 C10
A   13
 C11
A   14
 N2 
A   15
 C12
A   16
 C13
A   17
 C14
A   18
 C15
A   19
 C16
A   20
 H1 
A   21
 H2 
A   22
 H3 
A   23
 H4 
A   24
 H5 
A   25
 H6 
A   26
 H7 
A   27
 H8 
A   28
 H9 
A   29
 H10
A   30
 H11
A   31
 H12
A   32
 H13
A   33
 H14
A   34
 H15
A   35
 H16
A   36
 H17
A   37
 H18
M  END
>  <ref_pdb>  (74) 
x0051_0B

>  <ref_mols>  (74) 
x0101_0B,x0951_0B

>  <original SMILES>  (74) 
[H]c1nc(-c2c([H])c([H])c([H])c(C(=O)N([H])C(C([H])([H])[H])(C([H])([H])[H])C([H])([H])[H])c2[H])c([H])c([H])c1[H]

>  <index>  (74) 
55

>  <∆∆G>  (74) 
-7.295279

>  <∆G_bound>  (74) 
-7.395745

>  <∆G_unbound>  (74) 
-0.100466

>  <comRMSD>  (74) 
0.98815

>  <N_constrained_atoms>  (74) 
21.0

>  <N_unconstrained_atoms>  (74) 
0.0

>  <runtime>  (74) 
45.289669

>  <LE>  (74) 
0.347394

>  <percent_hybrid>  (74) 
40.0

>  <dist>  (74) 
8.0

>  <ecfp4>  (74) 
0.180556

>  <daylight>  (74) 
0.260204

>  <topodist>  (74) 
4.0

>  <mces>  (74) 
19.0

>  <tdn>  (74) 
2.0

>  <tup>  (74) 
0.0

>  <rdn>  (74) 
1.0

>  <rup>  (74) 
1.0

>  <ldn>  (74) 
0.0

>  <lup>  (74) 
0.0

>  <mut>  (74) 
2.0

>  <maj>  (74) 
2.0

>  <min>  (74) 
0.0

>  <hyb>  (74) 
2.0

>  <sub>  (74) 
3.0

>  <query_index>  (74) 
30.0

>  <max_hit_Tanimoto>  (74) 
0.353796

>  <largest_ring>  (74) 
6

>  <N_interactions_kept>  (74) 
2.0

>  <N_interactions_lost>  (74) 
2.0

>  <interaction_uniqueness_metric>  (74) 
0.11486

>  <ad_hoc_penalty>  (74) 
-31.484732

>  <N_rotatable_bonds>  (74) 
2

>  <N_HA>  (74) 
19

>  <cluster>  (74) 
6167

>  <N_interactions>  (74) 
7

>  <Enamine>  (74) 
0

>  <Mcule>  (74) 
1

>  <N_PAINS>  (74) 
0

>  <UFF_Gibbs>  (74) 
131.294132

>  <strain_per_HA>  (74) 
6.252102

>  <saltbridge:HIS:51>  (74) 
0

>  <pistack:HIS:51>  (74) 
0

>  <hydroph_interaction:HIS:51>  (74) 
0

>  <hbond:ALA:132>  (74) 
0

>  <hbond:SER:135>  (74) 
0

>  <hydroph_interaction:TYR:150>  (74) 
1

>  <pistack:TYR:161>  (74) 
0

>  <hydroph_interaction:TYR:161>  (74) 
3

>  <hydroph_interaction:ASP:83>  (74) 
0

>  <hbond:TYR:130>  (74) 
1

>  <hydroph_interaction:ALA:132>  (74) 
1

>  <hbond:HIS:51>  (74) 
0

>  <hbond:ASP:129>  (74) 
0

>  <hbond:TYR:150>  (74) 
0

>  <hbond:GLY:151>  (74) 
0

>  <hbond:TYR:161>  (74) 
0

>  <hydroph_interaction:TYR:130>  (74) 
0

>  <hydroph_interaction:PRO:131>  (74) 
0

>  <hydroph_interaction:ASP:129>  (74) 
1

>  <saltbridge:ASP:75>  (74) 
0

>  <saltbridge:ASP:83>  (74) 
0

>  <hydroph_interaction:ASN:152>  (74) 
0

>  <halogenbond:TYR:150>  (74) 
0

>  <hbond:ASP:83>  (74) 
0

>  <hydroph_interaction:VAL:155>  (74) 
0

>  <pication:TYR:161>  (74) 
0

>  <hbond:PRO:131>  (74) 
0

>  <hbond:LEU:128>  (74) 
0

>  <saltbridge:ASP:129>  (74) 
0

>  <hbond:THR:134>  (74) 
0

>  <pication:HIS:51>  (74) 
0

>  <hbond:SER:81>  (74) 
0

>  <hbond:GLY:159>  (74) 
0

>  <hydroph_interaction:PRO:101>  (74) 
0

>  <hydroph_interaction:THR:134>  (74) 
0

>  <hbond:GLY:82>  (74) 
0

>  <hydroph_interaction:GLU:104>  (74) 
0

>  <hydroph_interaction:VAL:36>  (74) 
0

>  <hydroph_interaction:MET:49>  (74) 
0

>  <halogenbond:GLU:104>  (74) 
0

>  <hydroph_interaction:LYS:107>  (74) 
0

$$$$
Z5578368434
     RDKit          3D

 43 46  0  0  0  0  0  0  0  0999 V2000
   -6.7055    6.5678  -12.9869 O   0  0  0  0  0  0  0  0  0  0  0  0
   -7.4127    5.6218  -13.4269 C   0  0  0  0  0  0  0  0  0  0  0  0
   -8.1704    4.8056  -12.5185 N   0  0  0  0  0  0  0  0  0  0  0  0
   -8.4997    5.1978  -11.1782 C   0  0  0  0  0  0  0  0  0  0  0  0
   -9.0126    4.3915  -10.1951 C   0  0  0  0  0  0  0  0  0  0  0  0
   -9.2931    3.0287  -10.2482 O   0  0  0  0  0  0  0  0  0  0  0  0
   -9.6636    2.3415   -9.0487 C   0  0  0  0  0  0  0  0  0  0  0  0
  -10.4980    3.2504   -8.1208 C   0  0  0  0  0  0  0  0  0  0  0  0
   -9.7744    4.5872   -7.8555 C   0  0  0  0  0  0  0  0  0  0  0  0
   -9.2545    5.1296   -9.1074 N   0  0  0  0  0  0  0  0  0  0  0  0
   -8.9113    6.3892   -9.3304 N   0  0  0  0  0  0  0  0  0  0  0  0
   -8.4517    6.4628  -10.6025 C   0  0  0  0  0  0  0  0  0  0  0  0
   -7.4102    5.3485  -14.8769 C   0  0  0  0  0  0  0  0  0  0  0  0
   -8.2738    4.4500  -15.5061 C   0  0  0  0  0  0  0  0  0  0  0  0
   -7.9388    4.4793  -17.1530 S   0  0  0  0  0  0  0  0  0  0  0  0
   -6.7104    5.6206  -17.0012 C   0  0  0  0  0  0  0  0  0  0  0  0
   -5.9184    6.2127  -18.1349 C   0  0  0  0  0  0  0  0  0  0  0  0
   -6.7914    7.1794  -18.9731 C   0  0  0  0  0  0  0  0  0  0  0  0
   -6.2964    7.3462  -20.4251 C   0  0  0  0  0  0  0  0  0  0  0  0
   -4.7839    7.1313  -20.5421 C   0  0  0  0  0  0  0  0  0  0  0  0
   -4.3730    5.7126  -20.0975 C   0  0  0  0  0  0  0  0  0  0  0  0
   -5.2959    5.1148  -19.0151 C   0  0  0  0  0  0  0  0  0  0  0  0
   -6.5550    5.9988  -15.7140 N   0  0  0  0  0  0  0  0  0  0  0  0
   -8.4600    3.8494  -12.8210 H   0  0  0  0  0  0  0  0  0  0  0  0
  -10.2449    1.4329   -9.3113 H   0  0  0  0  0  0  0  0  0  0  0  0
   -8.7416    2.0241   -8.5155 H   0  0  0  0  0  0  0  0  0  0  0  0
  -10.6902    2.7304   -7.1579 H   0  0  0  0  0  0  0  0  0  0  0  0
  -11.4767    3.4570   -8.6061 H   0  0  0  0  0  0  0  0  0  0  0  0
   -8.9289    4.4200   -7.1543 H   0  0  0  0  0  0  0  0  0  0  0  0
  -10.4815    5.3105   -7.3956 H   0  0  0  0  0  0  0  0  0  0  0  0
   -8.1303    7.3815  -11.0724 H   0  0  0  0  0  0  0  0  0  0  0  0
   -9.0435    3.8522  -15.0385 H   0  0  0  0  0  0  0  0  0  0  0  0
   -5.0808    6.7977  -17.6915 H   0  0  0  0  0  0  0  0  0  0  0  0
   -7.8456    6.8263  -19.0101 H   0  0  0  0  0  0  0  0  0  0  0  0
   -6.7981    8.1727  -18.4728 H   0  0  0  0  0  0  0  0  0  0  0  0
   -6.8141    6.6106  -21.0798 H   0  0  0  0  0  0  0  0  0  0  0  0
   -6.5574    8.3624  -20.7920 H   0  0  0  0  0  0  0  0  0  0  0  0
   -4.2633    7.8846  -19.9104 H   0  0  0  0  0  0  0  0  0  0  0  0
   -4.4643    7.2976  -21.5935 H   0  0  0  0  0  0  0  0  0  0  0  0
   -4.3742    5.0353  -20.9793 H   0  0  0  0  0  0  0  0  0  0  0  0
   -3.3304    5.7504  -19.7128 H   0  0  0  0  0  0  0  0  0  0  0  0
   -6.1065    4.5353  -19.5105 H   0  0  0  0  0  0  0  0  0  0  0  0
   -4.7108    4.4077  -18.3867 H   0  0  0  0  0  0  0  0  0  0  0  0
  1  2  2  0
  2  3  1  0
  3  4  1  0
  4  5  2  0
  5  6  1  0
  6  7  1  0
  7  8  1  0
  8  9  1  0
  9 10  1  0
 10 11  1  0
 11 12  2  0
  2 13  1  0
 13 14  2  0
 14 15  1  0
 15 16  1  0
 16 17  1  0
 17 18  1  0
 18 19  1  0
 19 20  1  0
 20 21  1  0
 21 22  1  0
 16 23  2  0
 12  4  1  0
 10  5  1  0
 23 13  1  0
 22 17  1  0
  3 24  1  0
  7 25  1  0
  7 26  1  0
  8 27  1  0
  8 28  1  0
  9 29  1  0
  9 30  1  0
 12 31  1  0
 14 32  1  0
 17 33  1  0
 18 34  1  0
 18 35  1  0
 19 36  1  0
 19 37  1  0
 20 38  1  0
 20 39  1  0
 21 40  1  0
 21 41  1  0
 22 42  1  0
 22 43  1  0
A    1
 O1 
A    2
 C1 
A    3
 N1 
A    4
 C2 
A    5
 C3 
A    6
 O2 
A    7
 C4 
A    8
 C5 
A    9
 C6 
A   10
 N2 
A   11
 N3 
A   12
 C7 
A   13
 C8 
A   14
 C9 
A   15
 S1 
A   16
 C10
A   17
 C11
A   18
 C12
A   19
 C13
A   20
 C14
A   21
 C15
A   22
 C16
A   23
 N4 
A   24
 H1 
A   25
 H2 
A   26
 H3 
A   27
 H4 
A   28
 H5 
A   29
 H6 
A   30
 H7 
A   31
 H8 
A   32
 H9 
A   33
 H10
A   34
 H11
A   35
 H12
A   36
 H13
A   37
 H14
A   38
 H15
A   39
 H16
A   40
 H17
A   41
 H18
A   42
 H19
A   43
 H20
M  END
>  <ref_pdb>  (75) 
x0051_0B

>  <ref_mols>  (75) 
x0917_1B,x0969_1B

>  <original SMILES>  (75) 
[H]c1nn2c(c1N([H])C(=O)c1nc(C3([H])C([H])([H])C([H])([H])C([H])([H])C([H])([H])C3([H])[H])sc1[H])OC([H])([H])C([H])([H])C2([H])[H]

>  <index>  (75) 
125

>  <∆∆G>  (75) 
-5.189605

>  <∆G_bound>  (75) 
-4.370151

>  <∆G_unbound>  (75) 
0.819455

>  <comRMSD>  (75) 
0.602241

>  <N_constrained_atoms>  (75) 
24.0

>  <N_unconstrained_atoms>  (75) 
0.0

>  <runtime>  (75) 
54.733383

>  <LE>  (75) 
0.216234

>  <percent_hybrid>  (75) 
40.0

>  <dist>  (75) 
9.0

>  <ecfp4>  (75) 
0.215909

>  <daylight>  (75) 
0.253731

>  <topodist>  (75) 
2.0

>  <mces>  (75) 
26.0

>  <tdn>  (75) 
2.0

>  <tup>  (75) 
0.0

>  <rdn>  (75) 
0.0

>  <rup>  (75) 
0.0

>  <ldn>  (75) 
0.0

>  <lup>  (75) 
0.0

>  <mut>  (75) 
6.0

>  <maj>  (75) 
6.0

>  <min>  (75) 
0.0

>  <hyb>  (75) 
1.0

>  <sub>  (75) 
0.0

>  <query_index>  (75) 
298.0

>  <max_hit_Tanimoto>  (75) 
0.267898

>  <largest_ring>  (75) 
6

>  <N_interactions_kept>  (75) 
2.0

>  <N_interactions_lost>  (75) 
1.0

>  <interaction_uniqueness_metric>  (75) 
0.138446

>  <ad_hoc_penalty>  (75) 
-31.297728

>  <N_rotatable_bonds>  (75) 
3

>  <N_HA>  (75) 
23

>  <cluster>  (75) 
6103

>  <N_interactions>  (75) 
6

>  <Enamine>  (75) 
1

>  <Mcule>  (75) 
0

>  <N_PAINS>  (75) 
0

>  <UFF_Gibbs>  (75) 
74.589614

>  <strain_per_HA>  (75) 
3.107901

>  <saltbridge:HIS:51>  (75) 
0

>  <pistack:HIS:51>  (75) 
1

>  <hydroph_interaction:HIS:51>  (75) 
1

>  <hbond:ALA:132>  (75) 
0

>  <hbond:SER:135>  (75) 
0

>  <hydroph_interaction:TYR:150>  (75) 
0

>  <pistack:TYR:161>  (75) 
0

>  <hydroph_interaction:TYR:161>  (75) 
2

>  <hydroph_interaction:ASP:83>  (75) 
0

>  <hbond:TYR:130>  (75) 
0

>  <hydroph_interaction:ALA:132>  (75) 
1

>  <hbond:HIS:51>  (75) 
0

>  <hbond:ASP:129>  (75) 
0

>  <hbond:TYR:150>  (75) 
0

>  <hbond:GLY:151>  (75) 
1

>  <hbond:TYR:161>  (75) 
0

>  <hydroph_interaction:TYR:130>  (75) 
0

>  <hydroph_interaction:PRO:131>  (75) 
0

>  <hydroph_interaction:ASP:129>  (75) 
0

>  <saltbridge:ASP:75>  (75) 
0

>  <saltbridge:ASP:83>  (75) 
0

>  <hydroph_interaction:ASN:152>  (75) 
0

>  <halogenbond:TYR:150>  (75) 
0

>  <hbond:ASP:83>  (75) 
0

>  <hydroph_interaction:VAL:155>  (75) 
0

>  <pication:TYR:161>  (75) 
0

>  <hbond:PRO:131>  (75) 
0

>  <hbond:LEU:128>  (75) 
0

>  <saltbridge:ASP:129>  (75) 
0

>  <hbond:THR:134>  (75) 
0

>  <pication:HIS:51>  (75) 
0

>  <hbond:SER:81>  (75) 
0

>  <hbond:GLY:159>  (75) 
0

>  <hydroph_interaction:PRO:101>  (75) 
0

>  <hydroph_interaction:THR:134>  (75) 
0

>  <hbond:GLY:82>  (75) 
0

>  <hydroph_interaction:GLU:104>  (75) 
0

>  <hydroph_interaction:VAL:36>  (75) 
0

>  <hydroph_interaction:MET:49>  (75) 
0

>  <halogenbond:GLU:104>  (75) 
0

>  <hydroph_interaction:LYS:107>  (75) 
0

$$$$
HXSAUNFGWXRDRU-UHFFFAOYSA-N
     RDKit          3D

 39 42  0  0  0  0  0  0  0  0999 V2000
   -7.9193    6.3187  -12.1623 C   0  0  0  0  0  0  0  0  0  0  0  0
   -8.4557    5.6257  -13.2989 N   0  0  0  0  0  0  0  0  0  0  0  0
   -7.8564    5.6739  -14.6011 C   0  0  0  0  0  0  0  0  0  0  0  0
   -8.3515    5.0779  -15.7437 C   0  0  0  0  0  0  0  0  0  0  0  0
   -7.4359    5.3706  -16.7165 C   0  0  0  0  0  0  0  0  0  0  0  0
   -7.5924    4.9254  -18.0302 C   0  0  0  0  0  0  0  0  0  0  0  0
   -8.7349    4.1578  -18.3270 C   0  0  0  0  0  0  0  0  0  0  0  0
   -9.6793    3.8561  -17.3183 C   0  0  0  0  0  0  0  0  0  0  0  0
   -9.4916    4.3191  -16.0021 C   0  0  0  0  0  0  0  0  0  0  0  0
   -6.4396    6.1043  -16.1828 N   0  0  0  0  0  0  0  0  0  0  0  0
   -5.2602    6.6139  -16.8714 C   0  0  0  0  0  0  0  0  0  0  0  0
   -6.6848    6.2910  -14.8898 N   0  0  0  0  0  0  0  0  0  0  0  0
   -7.1169    7.2768  -12.3289 O   0  0  0  0  0  0  0  0  0  0  0  0
   -8.3253    5.9608  -10.7893 C   0  0  0  0  0  0  0  0  0  0  0  0
   -8.8051    4.7577  -10.2946 C   0  0  0  0  0  0  0  0  0  0  0  0
   -9.0174    4.8991   -8.9721 N   0  0  0  0  0  0  0  0  0  0  0  0
   -9.4209    3.8318   -8.0574 C   0  0  0  0  0  0  0  0  0  0  0  0
  -10.0229    2.6471   -8.8290 C   0  0  0  0  0  0  0  0  0  0  0  0
   -9.1586    2.2978  -10.0503 C   0  0  0  0  0  0  0  0  0  0  0  0
   -9.0826    3.4773  -11.0311 C   0  0  0  0  0  0  0  0  0  0  0  0
   -8.6591    6.1118   -8.5831 N   0  0  0  0  0  0  0  0  0  0  0  0
   -8.2365    6.7811   -9.6751 C   0  0  0  0  0  0  0  0  0  0  0  0
   -9.3456    5.0942  -13.1886 H   0  0  0  0  0  0  0  0  0  0  0  0
   -6.8645    5.1577  -18.7965 H   0  0  0  0  0  0  0  0  0  0  0  0
   -8.8906    3.7949  -19.3346 H   0  0  0  0  0  0  0  0  0  0  0  0
  -10.5524    3.2641  -17.5596 H   0  0  0  0  0  0  0  0  0  0  0  0
  -10.2087    4.0907  -15.2249 H   0  0  0  0  0  0  0  0  0  0  0  0
   -5.5708    7.2663  -17.7144 H   0  0  0  0  0  0  0  0  0  0  0  0
   -4.6333    7.2062  -16.1716 H   0  0  0  0  0  0  0  0  0  0  0  0
   -4.6598    5.7658  -17.2625 H   0  0  0  0  0  0  0  0  0  0  0  0
  -10.1678    4.2217   -7.3330 H   0  0  0  0  0  0  0  0  0  0  0  0
   -8.5289    3.4869   -7.4912 H   0  0  0  0  0  0  0  0  0  0  0  0
  -10.0922    1.7652   -8.1566 H   0  0  0  0  0  0  0  0  0  0  0  0
  -11.0508    2.9065   -9.1652 H   0  0  0  0  0  0  0  0  0  0  0  0
   -9.5910    1.4158  -10.5699 H   0  0  0  0  0  0  0  0  0  0  0  0
   -8.1336    2.0274   -9.7128 H   0  0  0  0  0  0  0  0  0  0  0  0
   -8.2819    3.2830  -11.7762 H   0  0  0  0  0  0  0  0  0  0  0  0
  -10.0559    3.5703  -11.5582 H   0  0  0  0  0  0  0  0  0  0  0  0
   -7.8802    7.8026   -9.6590 H   0  0  0  0  0  0  0  0  0  0  0  0
  1  2  1  0
  2  3  1  0
  3  4  1  0
  4  5  1  0
  5  6  2  0
  6  7  1  0
  7  8  2  0
  8  9  1  0
  5 10  1  0
 10 11  1  0
 10 12  1  0
  1 13  2  0
  1 14  1  0
 14 15  2  0
 15 16  1  0
 16 17  1  0
 17 18  1  0
 18 19  1  0
 19 20  1  0
 16 21  1  0
 21 22  2  0
  3 12  2  0
  9  4  2  0
 22 14  1  0
 20 15  1  0
  2 23  1  0
  6 24  1  0
  7 25  1  0
  8 26  1  0
  9 27  1  0
 11 28  1  0
 11 29  1  0
 11 30  1  0
 17 31  1  0
 17 32  1  0
 18 33  1  0
 18 34  1  0
 19 35  1  0
 19 36  1  0
 20 37  1  0
 20 38  1  0
 22 39  1  0
A    1
 C1 
A    2
 N1 
A    3
 C2 
A    4
 C3 
A    5
 C4 
A    6
 C5 
A    7
 C6 
A    8
 C7 
A    9
 C8 
A   10
 N2 
A   11
 C9 
A   12
 N3 
A   13
 O1 
A   14
 C10
A   15
 C11
A   16
 N4 
A   17
 C12
A   18
 C13
A   19
 C14
A   20
 C15
A   21
 N5 
A   22
 C16
A   23
 H1 
A   24
 H2 
A   25
 H3 
A   26
 H4 
A   27
 H5 
A   28
 H6 
A   29
 H7 
A   30
 H8 
A   31
 H9 
A   32
 H10
A   33
 H11
A   34
 H12
A   35
 H13
A   36
 H14
A   37
 H15
A   38
 H16
A   39
 H17
M  END
>  <ref_pdb>  (76) 
x0051_0B

>  <ref_mols>  (76) 
x0951_0B,x0969_1B

>  <original SMILES>  (76) 
[H]c1nn2c(c1C(=O)N([H])c1nn(C([H])([H])[H])c3c([H])c([H])c([H])c([H])c13)C([H])([H])C([H])([H])C([H])([H])C2([H])[H]

>  <index>  (76) 
110

>  <∆∆G>  (76) 
-7.159093

>  <∆G_bound>  (76) 
-6.63203

>  <∆G_unbound>  (76) 
0.527063

>  <comRMSD>  (76) 
0.797805

>  <N_constrained_atoms>  (76) 
22.0

>  <N_unconstrained_atoms>  (76) 
1.0

>  <runtime>  (76) 
50.284319

>  <LE>  (76) 
0.311265

>  <percent_hybrid>  (76) 
46.0

>  <dist>  (76) 
7.0

>  <ecfp4>  (76) 
0.197531

>  <daylight>  (76) 
0.247126

>  <topodist>  (76) 
1.0

>  <mces>  (76) 
24.0

>  <tdn>  (76) 
0.0

>  <tup>  (76) 
1.0

>  <rdn>  (76) 
0.0

>  <rup>  (76) 
0.0

>  <ldn>  (76) 
0.0

>  <lup>  (76) 
0.0

>  <mut>  (76) 
5.0

>  <maj>  (76) 
5.0

>  <min>  (76) 
0.0

>  <hyb>  (76) 
1.0

>  <sub>  (76) 
0.0

>  <query_index>  (76) 
201.0

>  <max_hit_Tanimoto>  (76) 
0.299337

>  <largest_ring>  (76) 
6

>  <N_interactions_kept>  (76) 
1.0

>  <N_interactions_lost>  (76) 
2.0

>  <interaction_uniqueness_metric>  (76) 
0.17943

>  <ad_hoc_penalty>  (76) 
-31.290272

>  <N_rotatable_bonds>  (76) 
3

>  <N_HA>  (76) 
22

>  <cluster>  (76) 
6116

>  <N_interactions>  (76) 
7

>  <Enamine>  (76) 
0

>  <Mcule>  (76) 
1

>  <N_PAINS>  (76) 
0

>  <UFF_Gibbs>  (76) 
91.423789

>  <strain_per_HA>  (76) 
3.974947

>  <saltbridge:HIS:51>  (76) 
0

>  <pistack:HIS:51>  (76) 
1

>  <hydroph_interaction:HIS:51>  (76) 
1

>  <hbond:ALA:132>  (76) 
0

>  <hbond:SER:135>  (76) 
0

>  <hydroph_interaction:TYR:150>  (76) 
1

>  <pistack:TYR:161>  (76) 
2

>  <hydroph_interaction:TYR:161>  (76) 
0

>  <hydroph_interaction:ASP:83>  (76) 
0

>  <hbond:TYR:130>  (76) 
0

>  <hydroph_interaction:ALA:132>  (76) 
0

>  <hbond:HIS:51>  (76) 
0

>  <hbond:ASP:129>  (76) 
0

>  <hbond:TYR:150>  (76) 
0

>  <hbond:GLY:151>  (76) 
1

>  <hbond:TYR:161>  (76) 
1

>  <hydroph_interaction:TYR:130>  (76) 
0

>  <hydroph_interaction:PRO:131>  (76) 
0

>  <hydroph_interaction:ASP:129>  (76) 
0

>  <saltbridge:ASP:75>  (76) 
0

>  <saltbridge:ASP:83>  (76) 
0

>  <hydroph_interaction:ASN:152>  (76) 
0

>  <halogenbond:TYR:150>  (76) 
0

>  <hbond:ASP:83>  (76) 
0

>  <hydroph_interaction:VAL:155>  (76) 
0

>  <pication:TYR:161>  (76) 
0

>  <hbond:PRO:131>  (76) 
0

>  <hbond:LEU:128>  (76) 
0

>  <saltbridge:ASP:129>  (76) 
0

>  <hbond:THR:134>  (76) 
0

>  <pication:HIS:51>  (76) 
0

>  <hbond:SER:81>  (76) 
0

>  <hbond:GLY:159>  (76) 
0

>  <hydroph_interaction:PRO:101>  (76) 
0

>  <hydroph_interaction:THR:134>  (76) 
0

>  <hbond:GLY:82>  (76) 
0

>  <hydroph_interaction:GLU:104>  (76) 
0

>  <hydroph_interaction:VAL:36>  (76) 
0

>  <hydroph_interaction:MET:49>  (76) 
0

>  <halogenbond:GLU:104>  (76) 
0

>  <hydroph_interaction:LYS:107>  (76) 
0

$$$$
YXCWEGQWTGZWLW-UHFFFAOYSA-N
     RDKit          3D

 33 34  0  0  0  0  0  0  0  0999 V2000
   -6.1021    5.4654  -21.1413 S   0  0  0  0  0  0  0  0  0  0  0  0
   -6.1516    5.5506  -19.3074 C   0  0  0  0  0  0  0  0  0  0  0  0
   -7.5138    5.2067  -18.7487 C   0  0  0  0  0  0  0  0  0  0  0  0
   -7.7560    5.1747  -17.3514 C   0  0  0  0  0  0  0  0  0  0  0  0
   -9.0580    4.8472  -16.8929 C   0  0  0  0  0  0  0  0  0  0  0  0
   -9.3283    4.8062  -15.5160 C   0  0  0  0  0  0  0  0  0  0  0  0
   -8.3197    5.0880  -14.5932 C   0  0  0  0  0  0  0  0  0  0  0  0
   -7.0365    5.4125  -15.0345 C   0  0  0  0  0  0  0  0  0  0  0  0
   -6.7511    5.4573  -16.4017 C   0  0  0  0  0  0  0  0  0  0  0  0
  -10.0704    4.5667  -17.8169 C   0  0  0  0  0  0  0  0  0  0  0  0
   -9.7865    4.6138  -19.1788 C   0  0  0  0  0  0  0  0  0  0  0  0
   -8.5371    4.9278  -19.6052 N   0  0  0  0  0  0  0  0  0  0  0  0
   -4.4644    6.2534  -21.4770 C   0  0  0  0  0  0  0  0  0  0  0  0
   -4.5538    7.7753  -21.2662 C   0  0  0  0  0  0  0  0  0  0  0  0
   -3.3504    5.6552  -20.5970 C   0  0  0  0  0  0  0  0  0  0  0  0
   -4.1309    5.9768  -22.9524 C   0  0  0  0  0  0  0  0  0  0  0  0
   -5.8862    6.5714  -18.9707 H   0  0  0  0  0  0  0  0  0  0  0  0
   -5.4169    4.8219  -18.9062 H   0  0  0  0  0  0  0  0  0  0  0  0
  -10.3189    4.5570  -15.1544 H   0  0  0  0  0  0  0  0  0  0  0  0
   -8.5335    5.0552  -13.5327 H   0  0  0  0  0  0  0  0  0  0  0  0
   -6.2589    5.6307  -14.3139 H   0  0  0  0  0  0  0  0  0  0  0  0
   -5.7441    5.7142  -16.7017 H   0  0  0  0  0  0  0  0  0  0  0  0
  -11.0720    4.3146  -17.4891 H   0  0  0  0  0  0  0  0  0  0  0  0
  -10.5624    4.4001  -19.9017 H   0  0  0  0  0  0  0  0  0  0  0  0
   -3.6124    8.2689  -21.5913 H   0  0  0  0  0  0  0  0  0  0  0  0
   -4.7122    8.0305  -20.1995 H   0  0  0  0  0  0  0  0  0  0  0  0
   -5.3941    8.1995  -21.8566 H   0  0  0  0  0  0  0  0  0  0  0  0
   -3.4603    5.9668  -19.5377 H   0  0  0  0  0  0  0  0  0  0  0  0
   -3.3693    4.5456  -20.6494 H   0  0  0  0  0  0  0  0  0  0  0  0
   -2.3526    6.0061  -20.9386 H   0  0  0  0  0  0  0  0  0  0  0  0
   -4.0636    4.8827  -23.1364 H   0  0  0  0  0  0  0  0  0  0  0  0
   -4.9201    6.3931  -23.6153 H   0  0  0  0  0  0  0  0  0  0  0  0
   -3.1599    6.4391  -23.2343 H   0  0  0  0  0  0  0  0  0  0  0  0
  1  2  1  0
  2  3  1  0
  3  4  2  0
  4  5  1  0
  5  6  1  0
  6  7  2  0
  7  8  1  0
  8  9  2  0
  5 10  2  0
 10 11  1  0
 11 12  2  0
  1 13  1  0
 13 14  1  0
 13 15  1  0
 13 16  1  0
  3 12  1  0
  4  9  1  0
  2 17  1  0
  2 18  1  0
  6 19  1  0
  7 20  1  0
  8 21  1  0
  9 22  1  0
 10 23  1  0
 11 24  1  0
 14 25  1  0
 14 26  1  0
 14 27  1  0
 15 28  1  0
 15 29  1  0
 15 30  1  0
 16 31  1  0
 16 32  1  0
 16 33  1  0
A    1
 S1 
A    2
 C1 
A    3
 C2 
A    4
 C3 
A    5
 C4 
A    6
 C5 
A    7
 C6 
A    8
 C7 
A    9
 C8 
A   10
 C9 
A   11
 C10
A   12
 N1 
A   13
 C11
A   14
 C12
A   15
 C13
A   16
 C14
A   17
 H1 
A   18
 H2 
A   19
 H3 
A   20
 H4 
A   21
 H5 
A   22
 H6 
A   23
 H7 
A   24
 H8 
A   25
 H9 
A   26
 H10
A   27
 H11
A   28
 H12
A   29
 H13
A   30
 H14
A   31
 H15
A   32
 H16
A   33
 H17
M  END
>  <ref_pdb>  (77) 
x0051_0B

>  <ref_mols>  (77) 
x0101_0B,x0969_0B

>  <original SMILES>  (77) 
[H]c1nc(C([H])([H])SC(C([H])([H])[H])(C([H])([H])[H])C([H])([H])[H])c2c([H])c([H])c([H])c([H])c2c1[H]

>  <index>  (77) 
115

>  <∆∆G>  (77) 
-6.816529

>  <∆G_bound>  (77) 
-6.814672

>  <∆G_unbound>  (77) 
0.001857

>  <comRMSD>  (77) 
0.960007

>  <N_constrained_atoms>  (77) 
17.0

>  <N_unconstrained_atoms>  (77) 
1.0

>  <runtime>  (77) 
36.284372

>  <LE>  (77) 
0.378696

>  <percent_hybrid>  (77) 
23.0

>  <dist>  (77) 
5.0

>  <ecfp4>  (77) 
0.125

>  <daylight>  (77) 
0.273504

>  <topodist>  (77) 
3.0

>  <mces>  (77) 
16.0

>  <tdn>  (77) 
2.0

>  <tup>  (77) 
0.0

>  <rdn>  (77) 
0.0

>  <rup>  (77) 
0.0

>  <ldn>  (77) 
0.0

>  <lup>  (77) 
1.0

>  <mut>  (77) 
2.0

>  <maj>  (77) 
2.0

>  <min>  (77) 
0.0

>  <hyb>  (77) 
0.0

>  <sub>  (77) 
2.0

>  <query_index>  (77) 
325.0

>  <max_hit_Tanimoto>  (77) 
0.15461

>  <largest_ring>  (77) 
6

>  <N_interactions_kept>  (77) 
3.0

>  <N_interactions_lost>  (77) 
1.0

>  <interaction_uniqueness_metric>  (77) 
0.068525

>  <ad_hoc_penalty>  (77) 
-31.28853

>  <N_rotatable_bonds>  (77) 
2

>  <N_HA>  (77) 
16

>  <cluster>  (77) 
6111

>  <N_interactions>  (77) 
5

>  <Enamine>  (77) 
0

>  <Mcule>  (77) 
1

>  <N_PAINS>  (77) 
0

>  <UFF_Gibbs>  (77) 
46.550874

>  <strain_per_HA>  (77) 
2.58616

>  <saltbridge:HIS:51>  (77) 
0

>  <pistack:HIS:51>  (77) 
0

>  <hydroph_interaction:HIS:51>  (77) 
0

>  <hbond:ALA:132>  (77) 
0

>  <hbond:SER:135>  (77) 
0

>  <hydroph_interaction:TYR:150>  (77) 
1

>  <pistack:TYR:161>  (77) 
0

>  <hydroph_interaction:TYR:161>  (77) 
3

>  <hydroph_interaction:ASP:83>  (77) 
0

>  <hbond:TYR:130>  (77) 
0

>  <hydroph_interaction:ALA:132>  (77) 
0

>  <hbond:HIS:51>  (77) 
0

>  <hbond:ASP:129>  (77) 
0

>  <hbond:TYR:150>  (77) 
0

>  <hbond:GLY:151>  (77) 
0

>  <hbond:TYR:161>  (77) 
0

>  <hydroph_interaction:TYR:130>  (77) 
0

>  <hydroph_interaction:PRO:131>  (77) 
0

>  <hydroph_interaction:ASP:129>  (77) 
1

>  <saltbridge:ASP:75>  (77) 
0

>  <saltbridge:ASP:83>  (77) 
0

>  <hydroph_interaction:ASN:152>  (77) 
0

>  <halogenbond:TYR:150>  (77) 
0

>  <hbond:ASP:83>  (77) 
0

>  <hydroph_interaction:VAL:155>  (77) 
0

>  <pication:TYR:161>  (77) 
0

>  <hbond:PRO:131>  (77) 
0

>  <hbond:LEU:128>  (77) 
0

>  <saltbridge:ASP:129>  (77) 
0

>  <hbond:THR:134>  (77) 
0

>  <pication:HIS:51>  (77) 
0

>  <hbond:SER:81>  (77) 
0

>  <hbond:GLY:159>  (77) 
0

>  <hydroph_interaction:PRO:101>  (77) 
0

>  <hydroph_interaction:THR:134>  (77) 
0

>  <hbond:GLY:82>  (77) 
0

>  <hydroph_interaction:GLU:104>  (77) 
0

>  <hydroph_interaction:VAL:36>  (77) 
0

>  <hydroph_interaction:MET:49>  (77) 
0

>  <halogenbond:GLU:104>  (77) 
0

>  <hydroph_interaction:LYS:107>  (77) 
0

$$$$
LQNBUOURHDSZTG-UHFFFAOYSA-N
     RDKit          3D

 40 42  0  0  0  0  0  0  0  0999 V2000
   -9.6339    6.0497  -13.3618 N   0  0  0  0  0  0  0  0  0  0  0  0
  -10.0921    6.1489  -14.7541 C   0  0  0  0  0  0  0  0  0  0  0  0
   -8.9128    6.1993  -15.7031 C   0  0  0  0  0  0  0  0  0  0  0  0
   -8.6260    5.1619  -16.6304 C   0  0  0  0  0  0  0  0  0  0  0  0
   -9.5039    3.9438  -16.7581 C   0  0  0  0  0  0  0  0  0  0  0  0
   -7.4996    5.2788  -17.4660 C   0  0  0  0  0  0  0  0  0  0  0  0
   -6.6672    6.3970  -17.3867 C   0  0  0  0  0  0  0  0  0  0  0  0
   -6.9462    7.4131  -16.4739 C   0  0  0  0  0  0  0  0  0  0  0  0
   -8.0588    7.3156  -15.6366 C   0  0  0  0  0  0  0  0  0  0  0  0
   -9.1822    4.6889  -13.0450 C   0  0  0  0  0  0  0  0  0  0  0  0
   -8.6421    4.6456  -11.6477 C   0  0  0  0  0  0  0  0  0  0  0  0
   -9.0221    3.8247  -10.6042 C   0  0  0  0  0  0  0  0  0  0  0  0
   -8.2865    4.1450   -9.5244 N   0  0  0  0  0  0  0  0  0  0  0  0
   -8.3466    3.4681   -8.2295 C   0  0  0  0  0  0  0  0  0  0  0  0
   -9.6751    2.7092   -8.0756 C   0  0  0  0  0  0  0  0  0  0  0  0
   -9.9894    1.8985   -9.3441 C   0  0  0  0  0  0  0  0  0  0  0  0
  -10.1298    2.8115  -10.5735 C   0  0  0  0  0  0  0  0  0  0  0  0
   -7.4205    5.0979   -9.8331 N   0  0  0  0  0  0  0  0  0  0  0  0
   -7.6221    5.4258  -11.1272 C   0  0  0  0  0  0  0  0  0  0  0  0
  -10.4548    6.2634  -12.7462 H   0  0  0  0  0  0  0  0  0  0  0  0
  -10.8108    5.3353  -14.9900 H   0  0  0  0  0  0  0  0  0  0  0  0
  -10.6641    7.0958  -14.8750 H   0  0  0  0  0  0  0  0  0  0  0  0
   -9.1023    3.2234  -17.5026 H   0  0  0  0  0  0  0  0  0  0  0  0
  -10.5190    4.2475  -17.0913 H   0  0  0  0  0  0  0  0  0  0  0  0
   -9.5718    3.4181  -15.7827 H   0  0  0  0  0  0  0  0  0  0  0  0
   -7.2613    4.5023  -18.1825 H   0  0  0  0  0  0  0  0  0  0  0  0
   -5.8044    6.4764  -18.0363 H   0  0  0  0  0  0  0  0  0  0  0  0
   -6.3000    8.2795  -16.4153 H   0  0  0  0  0  0  0  0  0  0  0  0
   -8.2575    8.1140  -14.9315 H   0  0  0  0  0  0  0  0  0  0  0  0
  -10.0240    3.9696  -13.1540 H   0  0  0  0  0  0  0  0  0  0  0  0
   -8.3636    4.3828  -13.7316 H   0  0  0  0  0  0  0  0  0  0  0  0
   -8.2472    4.2127   -7.4115 H   0  0  0  0  0  0  0  0  0  0  0  0
   -7.5004    2.7508   -8.1580 H   0  0  0  0  0  0  0  0  0  0  0  0
   -9.6108    2.0249   -7.2018 H   0  0  0  0  0  0  0  0  0  0  0  0
  -10.4967    3.4349   -7.8868 H   0  0  0  0  0  0  0  0  0  0  0  0
   -9.1725    1.1629   -9.5209 H   0  0  0  0  0  0  0  0  0  0  0  0
  -10.9334    1.3302   -9.1975 H   0  0  0  0  0  0  0  0  0  0  0  0
  -10.1039    2.1913  -11.4950 H   0  0  0  0  0  0  0  0  0  0  0  0
  -11.1028    3.3467  -10.5301 H   0  0  0  0  0  0  0  0  0  0  0  0
   -7.0610    6.1831  -11.6585 H   0  0  0  0  0  0  0  0  0  0  0  0
  1  2  1  0
  2  3  1  0
  3  4  2  0
  4  5  1  0
  4  6  1  0
  6  7  2  0
  7  8  1  0
  8  9  2  0
  1 10  1  0
 10 11  1  0
 11 12  2  0
 12 13  1  0
 13 14  1  0
 14 15  1  0
 15 16  1  0
 16 17  1  0
 13 18  1  0
 18 19  2  0
  9  3  1  0
 19 11  1  0
 17 12  1  0
  1 20  1  0
  2 21  1  0
  2 22  1  0
  5 23  1  0
  5 24  1  0
  5 25  1  0
  6 26  1  0
  7 27  1  0
  8 28  1  0
  9 29  1  0
 10 30  1  0
 10 31  1  0
 14 32  1  0
 14 33  1  0
 15 34  1  0
 15 35  1  0
 16 36  1  0
 16 37  1  0
 17 38  1  0
 17 39  1  0
 19 40  1  0
A    1
 N1 
A    2
 C1 
A    3
 C2 
A    4
 C3 
A    5
 C4 
A    6
 C5 
A    7
 C6 
A    8
 C7 
A    9
 C8 
A   10
 C9 
A   11
 C10
A   12
 C11
A   13
 N2 
A   14
 C12
A   15
 C13
A   16
 C14
A   17
 C15
A   18
 N3 
A   19
 C16
A   20
 H1 
A   21
 H2 
A   22
 H3 
A   23
 H4 
A   24
 H5 
A   25
 H6 
A   26
 H7 
A   27
 H8 
A   28
 H9 
A   29
 H10
A   30
 H11
A   31
 H12
A   32
 H13
A   33
 H14
A   34
 H15
A   35
 H16
A   36
 H17
A   37
 H18
A   38
 H19
A   39
 H20
A   40
 H21
M  END
>  <ref_pdb>  (78) 
x0051_0B

>  <ref_mols>  (78) 
x0553_0B,x0969_1B

>  <original SMILES>  (78) 
[H]c1nn2c(c1C([H])([H])N([H])C([H])([H])c1c([H])c([H])c([H])c([H])c1C([H])([H])[H])C([H])([H])C([H])([H])C([H])([H])C2([H])[H]

>  <index>  (78) 
112

>  <∆∆G>  (78) 
-7.595472

>  <∆G_bound>  (78) 
-7.338854

>  <∆G_unbound>  (78) 
0.256618

>  <comRMSD>  (78) 
0.728912

>  <N_constrained_atoms>  (78) 
19.0

>  <N_unconstrained_atoms>  (78) 
2.0

>  <runtime>  (78) 
49.18239

>  <LE>  (78) 
0.361689

>  <percent_hybrid>  (78) 
48.0

>  <dist>  (78) 
5.0

>  <ecfp4>  (78) 
0.371429

>  <daylight>  (78) 
0.335938

>  <topodist>  (78) 
2.0

>  <mces>  (78) 
21.0

>  <tdn>  (78) 
2.0

>  <tup>  (78) 
0.0

>  <rdn>  (78) 
0.0

>  <rup>  (78) 
0.0

>  <ldn>  (78) 
0.0

>  <lup>  (78) 
0.0

>  <mut>  (78) 
3.0

>  <maj>  (78) 
3.0

>  <min>  (78) 
0.0

>  <hyb>  (78) 
0.0

>  <sub>  (78) 
1.0

>  <query_index>  (78) 
375.0

>  <max_hit_Tanimoto>  (78) 
0.384896

>  <largest_ring>  (78) 
6

>  <N_interactions_kept>  (78) 
1.5

>  <N_interactions_lost>  (78) 
1.0

>  <interaction_uniqueness_metric>  (78) 
0.236933

>  <ad_hoc_penalty>  (78) 
-31.254755

>  <N_rotatable_bonds>  (78) 
5

>  <N_HA>  (78) 
19

>  <cluster>  (78) 
6114

>  <N_interactions>  (78) 
6

>  <Enamine>  (78) 
0

>  <Mcule>  (78) 
1

>  <N_PAINS>  (78) 
0

>  <UFF_Gibbs>  (78) 
93.559595

>  <strain_per_HA>  (78) 
4.455219

>  <saltbridge:HIS:51>  (78) 
0

>  <pistack:HIS:51>  (78) 
1

>  <hydroph_interaction:HIS:51>  (78) 
0

>  <hbond:ALA:132>  (78) 
0

>  <hbond:SER:135>  (78) 
0

>  <hydroph_interaction:TYR:150>  (78) 
1

>  <pistack:TYR:161>  (78) 
1

>  <hydroph_interaction:TYR:161>  (78) 
0

>  <hydroph_interaction:ASP:83>  (78) 
1

>  <hbond:TYR:130>  (78) 
0

>  <hydroph_interaction:ALA:132>  (78) 
1

>  <hbond:HIS:51>  (78) 
1

>  <hbond:ASP:129>  (78) 
0

>  <hbond:TYR:150>  (78) 
0

>  <hbond:GLY:151>  (78) 
0

>  <hbond:TYR:161>  (78) 
0

>  <hydroph_interaction:TYR:130>  (78) 
0

>  <hydroph_interaction:PRO:131>  (78) 
0

>  <hydroph_interaction:ASP:129>  (78) 
0

>  <saltbridge:ASP:75>  (78) 
0

>  <saltbridge:ASP:83>  (78) 
0

>  <hydroph_interaction:ASN:152>  (78) 
0

>  <halogenbond:TYR:150>  (78) 
0

>  <hbond:ASP:83>  (78) 
0

>  <hydroph_interaction:VAL:155>  (78) 
0

>  <pication:TYR:161>  (78) 
0

>  <hbond:PRO:131>  (78) 
0

>  <hbond:LEU:128>  (78) 
0

>  <saltbridge:ASP:129>  (78) 
0

>  <hbond:THR:134>  (78) 
0

>  <pication:HIS:51>  (78) 
0

>  <hbond:SER:81>  (78) 
0

>  <hbond:GLY:159>  (78) 
0

>  <hydroph_interaction:PRO:101>  (78) 
0

>  <hydroph_interaction:THR:134>  (78) 
0

>  <hbond:GLY:82>  (78) 
0

>  <hydroph_interaction:GLU:104>  (78) 
0

>  <hydroph_interaction:VAL:36>  (78) 
0

>  <hydroph_interaction:MET:49>  (78) 
0

>  <halogenbond:GLU:104>  (78) 
0

>  <hydroph_interaction:LYS:107>  (78) 
0

$$$$
PV-002432888144
     RDKit          3D

 51 54  0  0  0  0  0  0  0  0999 V2000
   -6.9401    6.6135  -17.5610 C   0  0  0  0  0  0  0  0  0  0  0  0
   -6.8614    7.2945  -16.3893 N   0  0  0  0  0  0  0  0  0  0  0  0
   -7.5177    6.8699  -15.2767 C   0  0  0  0  0  0  0  0  0  0  0  0
   -7.3996    7.6378  -14.0652 N   0  0  0  0  0  0  0  0  0  0  0  0
   -7.9849    7.2565  -12.7789 C   0  0  0  0  0  0  0  0  0  0  0  0
   -7.1725    6.1309  -12.1333 C   0  0  0  0  0  0  0  0  0  0  0  0
   -7.8512    5.6374  -10.8915 C   0  0  0  0  0  0  0  0  0  0  0  0
   -8.8096    4.6501  -10.7811 C   0  0  0  0  0  0  0  0  0  0  0  0
   -9.4275    3.8294  -11.8761 C   0  0  0  0  0  0  0  0  0  0  0  0
  -10.2023    2.6430  -11.2817 C   0  0  0  0  0  0  0  0  0  0  0  0
  -11.0783    3.0831  -10.0968 C   0  0  0  0  0  0  0  0  0  0  0  0
  -10.2175    3.6760   -8.9688 C   0  0  0  0  0  0  0  0  0  0  0  0
   -9.2428    4.6231   -9.5085 N   0  0  0  0  0  0  0  0  0  0  0  0
   -8.5929    5.5240   -8.7887 N   0  0  0  0  0  0  0  0  0  0  0  0
   -7.7423    6.1674   -9.6163 C   0  0  0  0  0  0  0  0  0  0  0  0
   -8.3000    5.7052  -15.3501 C   0  0  0  0  0  0  0  0  0  0  0  0
   -8.3649    5.0081  -16.5630 C   0  0  0  0  0  0  0  0  0  0  0  0
   -9.2101    3.7601  -16.6932 C   0  0  0  0  0  0  0  0  0  0  0  0
  -10.4730    4.0616  -17.5374 C   0  0  0  0  0  0  0  0  0  0  0  0
  -11.0578    2.7788  -18.1354 C   0  0  0  0  0  0  0  0  0  0  0  0
  -10.0642    2.0961  -19.0976 C   0  0  0  0  0  0  0  0  0  0  0  0
   -8.5857    2.3712  -18.7532 C   0  0  0  0  0  0  0  0  0  0  0  0
   -8.3799    2.5697  -17.2464 C   0  0  0  0  0  0  0  0  0  0  0  0
   -7.6868    5.4838  -17.6424 N   0  0  0  0  0  0  0  0  0  0  0  0
   -6.4104    6.9742  -18.4317 H   0  0  0  0  0  0  0  0  0  0  0  0
   -6.8744    8.5408  -14.1082 H   0  0  0  0  0  0  0  0  0  0  0  0
   -9.0488    6.9647  -12.9146 H   0  0  0  0  0  0  0  0  0  0  0  0
   -7.9727    8.1379  -12.1005 H   0  0  0  0  0  0  0  0  0  0  0  0
   -7.0435    5.2862  -12.8414 H   0  0  0  0  0  0  0  0  0  0  0  0
   -6.1597    6.5085  -11.8749 H   0  0  0  0  0  0  0  0  0  0  0  0
   -8.6405    3.4498  -12.5622 H   0  0  0  0  0  0  0  0  0  0  0  0
  -10.1250    4.4730  -12.4542 H   0  0  0  0  0  0  0  0  0  0  0  0
  -10.8444    2.1938  -12.0698 H   0  0  0  0  0  0  0  0  0  0  0  0
   -9.4847    1.8644  -10.9404 H   0  0  0  0  0  0  0  0  0  0  0  0
  -11.6475    2.2109   -9.7090 H   0  0  0  0  0  0  0  0  0  0  0  0
  -11.8088    3.8464  -10.4433 H   0  0  0  0  0  0  0  0  0  0  0  0
  -10.8726    4.1886   -8.2324 H   0  0  0  0  0  0  0  0  0  0  0  0
   -9.6753    2.8572   -8.4481 H   0  0  0  0  0  0  0  0  0  0  0  0
   -7.0987    6.9837   -9.3143 H   0  0  0  0  0  0  0  0  0  0  0  0
   -8.8514    5.3433  -14.4954 H   0  0  0  0  0  0  0  0  0  0  0  0
   -9.5576    3.4557  -15.6792 H   0  0  0  0  0  0  0  0  0  0  0  0
  -11.2366    4.5537  -16.8963 H   0  0  0  0  0  0  0  0  0  0  0  0
  -10.2366    4.7600  -18.3716 H   0  0  0  0  0  0  0  0  0  0  0  0
  -11.9983    3.0139  -18.6782 H   0  0  0  0  0  0  0  0  0  0  0  0
  -11.3132    2.0810  -17.3083 H   0  0  0  0  0  0  0  0  0  0  0  0
  -10.2492    0.9990  -19.0806 H   0  0  0  0  0  0  0  0  0  0  0  0
  -10.2566    2.4470  -20.1351 H   0  0  0  0  0  0  0  0  0  0  0  0
   -7.9592    1.5238  -19.1055 H   0  0  0  0  0  0  0  0  0  0  0  0
   -8.2429    3.2837  -19.2891 H   0  0  0  0  0  0  0  0  0  0  0  0
   -7.2963    2.7035  -17.0318 H   0  0  0  0  0  0  0  0  0  0  0  0
   -8.6925    1.6350  -16.7286 H   0  0  0  0  0  0  0  0  0  0  0  0
  1  2  2  0
  2  3  1  0
  3  4  1  0
  4  5  1  0
  5  6  1  0
  6  7  1  0
  7  8  2  0
  8  9  1  0
  9 10  1  0
 10 11  1  0
 11 12  1  0
 12 13  1  0
 13 14  1  0
 14 15  2  0
  3 16  2  0
 16 17  1  0
 17 18  1  0
 18 19  1  0
 19 20  1  0
 20 21  1  0
 21 22  1  0
 22 23  1  0
 17 24  2  0
 24  1  1  0
 15  7  1  0
 13  8  1  0
 23 18  1  0
  1 25  1  0
  4 26  1  0
  5 27  1  0
  5 28  1  0
  6 29  1  0
  6 30  1  0
  9 31  1  0
  9 32  1  0
 10 33  1  0
 10 34  1  0
 11 35  1  0
 11 36  1  0
 12 37  1  0
 12 38  1  0
 15 39  1  0
 16 40  1  0
 18 41  1  0
 19 42  1  0
 19 43  1  0
 20 44  1  0
 20 45  1  0
 21 46  1  0
 21 47  1  0
 22 48  1  0
 22 49  1  0
 23 50  1  0
 23 51  1  0
A    1
 C1 
A    2
 N1 
A    3
 C2 
A    4
 N2 
A    5
 C3 
A    6
 C4 
A    7
 C5 
A    8
 C6 
A    9
 C7 
A   10
 C8 
A   11
 C9 
A   12
 C10
A   13
 N3 
A   14
 N4 
A   15
 C11
A   16
 C12
A   17
 C13
A   18
 C14
A   19
 C15
A   20
 C16
A   21
 C17
A   22
 C18
A   23
 C19
A   24
 N5 
A   25
 H1 
A   26
 H2 
A   27
 H3 
A   28
 H4 
A   29
 H5 
A   30
 H6 
A   31
 H7 
A   32
 H8 
A   33
 H9 
A   34
 H10
A   35
 H11
A   36
 H12
A   37
 H13
A   38
 H14
A   39
 H15
A   40
 H16
A   41
 H17
A   42
 H18
A   43
 H19
A   44
 H20
A   45
 H21
A   46
 H22
A   47
 H23
A   48
 H24
A   49
 H25
A   50
 H26
A   51
 H27
M  END
>  <ref_pdb>  (79) 
x0051_0B

>  <ref_mols>  (79) 
x0945_0B,x0969_1B

>  <original SMILES>  (79) 
[H]c1nc(N([H])C([H])([H])C([H])([H])c2c([H])nn3c2C([H])([H])C([H])([H])C([H])([H])C3([H])[H])c([H])c(C2([H])C([H])([H])C([H])([H])C([H])([H])C([H])([H])C2([H])[H])n1

>  <index>  (79) 
60

>  <∆∆G>  (79) 
-5.943495

>  <∆G_bound>  (79) 
-5.150322

>  <∆G_unbound>  (79) 
0.793173

>  <comRMSD>  (79) 
0.556263

>  <N_constrained_atoms>  (79) 
19.0

>  <N_unconstrained_atoms>  (79) 
6.0

>  <runtime>  (79) 
68.043602

>  <LE>  (79) 
0.23774

>  <percent_hybrid>  (79) 
48.0

>  <dist>  (79) 
8.0

>  <ecfp4>  (79) 
0.298701

>  <daylight>  (79) 
0.276398

>  <topodist>  (79) 
2.0

>  <mces>  (79) 
27.0

>  <tdn>  (79) 
2.0

>  <tup>  (79) 
0.0

>  <rdn>  (79) 
0.0

>  <rup>  (79) 
0.0

>  <ldn>  (79) 
0.0

>  <lup>  (79) 
0.0

>  <mut>  (79) 
6.0

>  <maj>  (79) 
6.0

>  <min>  (79) 
0.0

>  <hyb>  (79) 
0.0

>  <sub>  (79) 
1.0

>  <query_index>  (79) 
347.0

>  <max_hit_Tanimoto>  (79) 
0.311348

>  <largest_ring>  (79) 
6

>  <N_interactions_kept>  (79) 
1.0

>  <N_interactions_lost>  (79) 
1.0

>  <interaction_uniqueness_metric>  (79) 
0.243164

>  <ad_hoc_penalty>  (79) 
-31.234256

>  <N_rotatable_bonds>  (79) 
5

>  <N_HA>  (79) 
24

>  <cluster>  (79) 
6163

>  <N_interactions>  (79) 
8

>  <Enamine>  (79) 
1

>  <Mcule>  (79) 
0

>  <N_PAINS>  (79) 
0

>  <UFF_Gibbs>  (79) 
189.271264

>  <strain_per_HA>  (79) 
7.570851

>  <saltbridge:HIS:51>  (79) 
0

>  <pistack:HIS:51>  (79) 
1

>  <hydroph_interaction:HIS:51>  (79) 
1

>  <hbond:ALA:132>  (79) 
0

>  <hbond:SER:135>  (79) 
0

>  <hydroph_interaction:TYR:150>  (79) 
1

>  <pistack:TYR:161>  (79) 
1

>  <hydroph_interaction:TYR:161>  (79) 
2

>  <hydroph_interaction:ASP:83>  (79) 
1

>  <hbond:TYR:130>  (79) 
0

>  <hydroph_interaction:ALA:132>  (79) 
0

>  <hbond:HIS:51>  (79) 
0

>  <hbond:ASP:129>  (79) 
0

>  <hbond:TYR:150>  (79) 
0

>  <hbond:GLY:151>  (79) 
0

>  <hbond:TYR:161>  (79) 
0

>  <hydroph_interaction:TYR:130>  (79) 
1

>  <hydroph_interaction:PRO:131>  (79) 
0

>  <hydroph_interaction:ASP:129>  (79) 
0

>  <saltbridge:ASP:75>  (79) 
0

>  <saltbridge:ASP:83>  (79) 
0

>  <hydroph_interaction:ASN:152>  (79) 
0

>  <halogenbond:TYR:150>  (79) 
0

>  <hbond:ASP:83>  (79) 
0

>  <hydroph_interaction:VAL:155>  (79) 
0

>  <pication:TYR:161>  (79) 
0

>  <hbond:PRO:131>  (79) 
0

>  <hbond:LEU:128>  (79) 
0

>  <saltbridge:ASP:129>  (79) 
0

>  <hbond:THR:134>  (79) 
0

>  <pication:HIS:51>  (79) 
0

>  <hbond:SER:81>  (79) 
0

>  <hbond:GLY:159>  (79) 
0

>  <hydroph_interaction:PRO:101>  (79) 
0

>  <hydroph_interaction:THR:134>  (79) 
0

>  <hbond:GLY:82>  (79) 
0

>  <hydroph_interaction:GLU:104>  (79) 
0

>  <hydroph_interaction:VAL:36>  (79) 
0

>  <hydroph_interaction:MET:49>  (79) 
0

>  <halogenbond:GLU:104>  (79) 
0

>  <hydroph_interaction:LYS:107>  (79) 
0

$$$$
MCULE-7150437755
     RDKit          3D

 25 25  0  0  0  0  0  0  0  0999 V2000
   -9.2821    4.8309  -12.9804 O   0  0  0  0  0  0  0  0  0  0  0  0
   -9.3597    4.8892  -14.3319 N   0  0  0  0  0  0  0  0  0  0  0  0
   -8.2584    5.3694  -15.1209 C   0  0  0  0  0  0  0  0  0  0  0  0
   -7.1118    5.6064  -14.5612 N   0  0  0  0  0  0  0  0  0  0  0  0
   -8.4116    5.5813  -16.5824 C   0  0  0  0  0  0  0  0  0  0  0  0
   -7.2933    5.4966  -17.4342 C   0  0  0  0  0  0  0  0  0  0  0  0
   -7.4270    5.7033  -18.8172 C   0  0  0  0  0  0  0  0  0  0  0  0
   -6.2323    5.5722  -19.7264 C   0  0  0  0  0  0  0  0  0  0  0  0
   -6.1225    4.1589  -20.2986 C   0  0  0  0  0  0  0  0  0  0  0  0
   -5.8859    3.2390  -19.2687 O   0  0  0  0  0  0  0  0  0  0  0  0
   -8.6922    5.9847  -19.3527 C   0  0  0  0  0  0  0  0  0  0  0  0
   -9.8041    6.0816  -18.5149 C   0  0  0  0  0  0  0  0  0  0  0  0
   -9.6675    5.8859  -17.1385 C   0  0  0  0  0  0  0  0  0  0  0  0
   -9.6541    5.6949  -12.6678 H   0  0  0  0  0  0  0  0  0  0  0  0
  -10.2209    4.5224  -14.7940 H   0  0  0  0  0  0  0  0  0  0  0  0
   -6.9438    5.4669  -13.5404 H   0  0  0  0  0  0  0  0  0  0  0  0
   -6.3186    5.2560  -17.0267 H   0  0  0  0  0  0  0  0  0  0  0  0
   -5.2982    5.8233  -19.1775 H   0  0  0  0  0  0  0  0  0  0  0  0
   -6.3204    6.2969  -20.5651 H   0  0  0  0  0  0  0  0  0  0  0  0
   -5.2787    4.1301  -21.0233 H   0  0  0  0  0  0  0  0  0  0  0  0
   -7.0608    3.8963  -20.8375 H   0  0  0  0  0  0  0  0  0  0  0  0
   -5.8348    2.3480  -19.7025 H   0  0  0  0  0  0  0  0  0  0  0  0
   -8.8159    6.1319  -20.4186 H   0  0  0  0  0  0  0  0  0  0  0  0
  -10.7754    6.3126  -18.9331 H   0  0  0  0  0  0  0  0  0  0  0  0
  -10.5430    5.9944  -16.5123 H   0  0  0  0  0  0  0  0  0  0  0  0
  1  2  1  0
  2  3  1  0
  3  4  2  3
  3  5  1  0
  5  6  2  0
  6  7  1  0
  7  8  1  0
  8  9  1  0
  9 10  1  0
  7 11  2  0
 11 12  1  0
 12 13  2  0
 13  5  1  0
  1 14  1  0
  2 15  1  0
  4 16  1  0
  6 17  1  0
  8 18  1  0
  8 19  1  0
  9 20  1  0
  9 21  1  0
 10 22  1  0
 11 23  1  0
 12 24  1  0
 13 25  1  0
A    1
 O1 
A    2
 N1 
A    3
 C1 
A    4
 N2 
A    5
 C2 
A    6
 C3 
A    7
 C4 
A    8
 C5 
A    9
 C6 
A   10
 O2 
A   11
 C7 
A   12
 C8 
A   13
 C9 
A   14
 H1 
A   15
 H2 
A   16
 H3 
A   17
 H4 
A   18
 H5 
A   19
 H6 
A   20
 H7 
A   21
 H8 
A   22
 H9 
A   23
 H10
A   24
 H11
A   25
 H12
M  END
>  <ref_pdb>  (80) 
x0051_0B

>  <ref_mols>  (80) 
x0951_0B,x0693_0B

>  <original SMILES>  (80) 
[H]N=C(c1c([H])c([H])c([H])c(C([H])([H])C([H])([H])O[H])c1[H])N([H])O[H]

>  <index>  (80) 
469

>  <∆∆G>  (80) 
-5.192695

>  <∆G_bound>  (80) 
-4.796275

>  <∆G_unbound>  (80) 
0.39642

>  <comRMSD>  (80) 
0.538531

>  <N_constrained_atoms>  (80) 
14.0

>  <N_unconstrained_atoms>  (80) 
1.0

>  <runtime>  (80) 
28.605692

>  <LE>  (80) 
0.34618

>  <percent_hybrid>  (80) 
34.0

>  <dist>  (80) 
5.0

>  <ecfp4>  (80) 
0.114754

>  <daylight>  (80) 
0.152542

>  <topodist>  (80) 
3.0

>  <mces>  (80) 
13.0

>  <tdn>  (80) 
1.0

>  <tup>  (80) 
0.0

>  <rdn>  (80) 
1.0

>  <rup>  (80) 
0.0

>  <ldn>  (80) 
1.0

>  <lup>  (80) 
0.0

>  <mut>  (80) 
2.0

>  <maj>  (80) 
2.0

>  <min>  (80) 
0.0

>  <hyb>  (80) 
0.0

>  <sub>  (80) 
2.0

>  <query_index>  (80) 
138.0

>  <max_hit_Tanimoto>  (80) 
0.129897

>  <largest_ring>  (80) 
6

>  <N_interactions_kept>  (80) 
2.5

>  <N_interactions_lost>  (80) 
2.0

>  <interaction_uniqueness_metric>  (80) 
0.880606

>  <ad_hoc_penalty>  (80) 
-31.195404

>  <N_rotatable_bonds>  (80) 
5

>  <N_HA>  (80) 
13

>  <cluster>  (80) 
5792

>  <N_interactions>  (80) 
7

>  <Enamine>  (80) 
0

>  <Mcule>  (80) 
1

>  <N_PAINS>  (80) 
0

>  <UFF_Gibbs>  (80) 
66.370481

>  <strain_per_HA>  (80) 
4.424699

>  <saltbridge:HIS:51>  (80) 
0

>  <pistack:HIS:51>  (80) 
0

>  <hydroph_interaction:HIS:51>  (80) 
0

>  <hbond:ALA:132>  (80) 
0

>  <hbond:SER:135>  (80) 
0

>  <hydroph_interaction:TYR:150>  (80) 
1

>  <pistack:TYR:161>  (80) 
1

>  <hydroph_interaction:TYR:161>  (80) 
1

>  <hydroph_interaction:ASP:83>  (80) 
0

>  <hbond:TYR:130>  (80) 
1

>  <hydroph_interaction:ALA:132>  (80) 
0

>  <hbond:HIS:51>  (80) 
1

>  <hbond:ASP:129>  (80) 
0

>  <hbond:TYR:150>  (80) 
0

>  <hbond:GLY:151>  (80) 
1

>  <hbond:TYR:161>  (80) 
0

>  <hydroph_interaction:TYR:130>  (80) 
0

>  <hydroph_interaction:PRO:131>  (80) 
0

>  <hydroph_interaction:ASP:129>  (80) 
0

>  <saltbridge:ASP:75>  (80) 
0

>  <saltbridge:ASP:83>  (80) 
0

>  <hydroph_interaction:ASN:152>  (80) 
0

>  <halogenbond:TYR:150>  (80) 
0

>  <hbond:ASP:83>  (80) 
0

>  <hydroph_interaction:VAL:155>  (80) 
0

>  <pication:TYR:161>  (80) 
0

>  <hbond:PRO:131>  (80) 
0

>  <hbond:LEU:128>  (80) 
1

>  <saltbridge:ASP:129>  (80) 
0

>  <hbond:THR:134>  (80) 
0

>  <pication:HIS:51>  (80) 
0

>  <hbond:SER:81>  (80) 
0

>  <hbond:GLY:159>  (80) 
0

>  <hydroph_interaction:PRO:101>  (80) 
0

>  <hydroph_interaction:THR:134>  (80) 
0

>  <hbond:GLY:82>  (80) 
0

>  <hydroph_interaction:GLU:104>  (80) 
0

>  <hydroph_interaction:VAL:36>  (80) 
0

>  <hydroph_interaction:MET:49>  (80) 
0

>  <halogenbond:GLU:104>  (80) 
0

>  <hydroph_interaction:LYS:107>  (80) 
0

$$$$
MCULE-9984084239
     RDKit          3D

 45 48  0  0  0  0  0  0  0  0999 V2000
   -6.6634    5.4685  -16.2390 C   0  0  0  0  0  0  0  0  0  0  0  0
   -7.8739    5.3271  -15.5388 C   0  0  0  0  0  0  0  0  0  0  0  0
   -8.8596    4.4998  -16.1292 C   0  0  0  0  0  0  0  0  0  0  0  0
   -8.6224    3.8573  -17.3651 C   0  0  0  0  0  0  0  0  0  0  0  0
   -7.3993    4.0264  -18.0352 C   0  0  0  0  0  0  0  0  0  0  0  0
   -6.4456    4.8422  -17.4357 C   0  0  0  0  0  0  0  0  0  0  0  0
   -5.1836    5.2290  -17.8278 C   0  0  0  0  0  0  0  0  0  0  0  0
   -4.2689    4.7165  -19.4222 Br  0  0  0  0  0  0  0  0  0  0  0  0
   -4.6781    6.0665  -16.8936 N   0  0  0  0  0  0  0  0  0  0  0  0
   -5.5821    6.2103  -15.9306 N   0  0  0  0  0  0  0  0  0  0  0  0
   -8.1157    5.9745  -14.2304 C   0  0  0  0  0  0  0  0  0  0  0  0
   -9.4374    6.3970  -13.8583 N   0  0  0  0  0  0  0  0  0  0  0  0
   -9.7562    6.8319  -12.4940 C   0  0  0  0  0  0  0  0  0  0  0  0
  -11.1516    7.4618  -12.4392 C   0  0  0  0  0  0  0  0  0  0  0  0
   -9.6736    5.6626  -11.5357 C   0  0  0  0  0  0  0  0  0  0  0  0
  -10.3068    4.4458  -11.8354 C   0  0  0  0  0  0  0  0  0  0  0  0
  -10.2432    3.3763  -10.9413 C   0  0  0  0  0  0  0  0  0  0  0  0
   -9.5609    3.5047   -9.7229 C   0  0  0  0  0  0  0  0  0  0  0  0
   -9.4562    2.3011   -8.8155 C   0  0  0  0  0  0  0  0  0  0  0  0
   -9.0518    2.6740   -7.3863 C   0  0  0  0  0  0  0  0  0  0  0  0
   -7.8471    3.6141   -7.4019 C   0  0  0  0  0  0  0  0  0  0  0  0
   -8.2074    4.9316   -8.0946 C   0  0  0  0  0  0  0  0  0  0  0  0
   -8.9049    4.7209   -9.4185 C   0  0  0  0  0  0  0  0  0  0  0  0
   -8.9872    5.7951  -10.3185 C   0  0  0  0  0  0  0  0  0  0  0  0
   -7.1576    6.1391  -13.4274 O   0  0  0  0  0  0  0  0  0  0  0  0
   -9.8040    4.3274  -15.6289 H   0  0  0  0  0  0  0  0  0  0  0  0
   -9.3875    3.2258  -17.7975 H   0  0  0  0  0  0  0  0  0  0  0  0
   -7.2107    3.5416  -18.9843 H   0  0  0  0  0  0  0  0  0  0  0  0
   -5.4486    6.8239  -15.0977 H   0  0  0  0  0  0  0  0  0  0  0  0
  -10.1869    6.4073  -14.5872 H   0  0  0  0  0  0  0  0  0  0  0  0
   -9.0282    7.6211  -12.2003 H   0  0  0  0  0  0  0  0  0  0  0  0
  -11.9277    6.7296  -12.7496 H   0  0  0  0  0  0  0  0  0  0  0  0
  -11.3742    7.8075  -11.4069 H   0  0  0  0  0  0  0  0  0  0  0  0
  -11.1963    8.3386  -13.1196 H   0  0  0  0  0  0  0  0  0  0  0  0
  -10.8475    4.3236  -12.7658 H   0  0  0  0  0  0  0  0  0  0  0  0
  -10.7268    2.4424  -11.2007 H   0  0  0  0  0  0  0  0  0  0  0  0
   -8.6992    1.6056   -9.2389 H   0  0  0  0  0  0  0  0  0  0  0  0
  -10.4306    1.7667   -8.7810 H   0  0  0  0  0  0  0  0  0  0  0  0
   -9.9060    3.1647   -6.8692 H   0  0  0  0  0  0  0  0  0  0  0  0
   -8.7940    1.7504   -6.8245 H   0  0  0  0  0  0  0  0  0  0  0  0
   -6.9978    3.1296   -7.9326 H   0  0  0  0  0  0  0  0  0  0  0  0
   -7.5265    3.8233   -6.3585 H   0  0  0  0  0  0  0  0  0  0  0  0
   -8.8788    5.5201   -7.4324 H   0  0  0  0  0  0  0  0  0  0  0  0
   -7.2757    5.5190   -8.2467 H   0  0  0  0  0  0  0  0  0  0  0  0
   -8.5148    6.7377  -10.0678 H   0  0  0  0  0  0  0  0  0  0  0  0
  1  2  1  0
  2  3  2  0
  3  4  1  0
  4  5  2  0
  5  6  1  0
  6  7  1  0
  7  8  1  0
  7  9  2  0
  9 10  1  0
  2 11  1  0
 11 12  1  0
 12 13  1  0
 13 14  1  0
 13 15  1  0
 15 16  2  0
 16 17  1  0
 17 18  2  0
 18 19  1  0
 19 20  1  0
 20 21  1  0
 21 22  1  0
 22 23  1  0
 23 24  2  0
 11 25  2  0
  6  1  2  0
 10  1  1  0
 15 24  1  0
 18 23  1  0
  3 26  1  0
  4 27  1  0
  5 28  1  0
 10 29  1  0
 12 30  1  0
 13 31  1  0
 14 32  1  0
 14 33  1  0
 14 34  1  0
 16 35  1  0
 17 36  1  0
 19 37  1  0
 19 38  1  0
 20 39  1  0
 20 40  1  0
 21 41  1  0
 21 42  1  0
 22 43  1  0
 22 44  1  0
 24 45  1  0
A    1
 C1 
A    2
 C2 
A    3
 C3 
A    4
 C4 
A    5
 C5 
A    6
 C6 
A    7
 C7 
A    8
BR1 
A    9
 N1 
A   10
 N2 
A   11
 C8 
A   12
 N3 
A   13
 C9 
A   14
 C10
A   15
 C11
A   16
 C12
A   17
 C13
A   18
 C14
A   19
 C15
A   20
 C16
A   21
 C17
A   22
 C18
A   23
 C19
A   24
 C20
A   25
 O1 
A   26
 H1 
A   27
 H2 
A   28
 H3 
A   29
 H4 
A   30
 H5 
A   31
 H6 
A   32
 H7 
A   33
 H8 
A   34
 H9 
A   35
 H10
A   36
 H11
A   37
 H12
A   38
 H13
A   39
 H14
A   40
 H15
A   41
 H16
A   42
 H17
A   43
 H18
A   44
 H19
A   45
 H20
M  END
>  <ref_pdb>  (81) 
x0051_0B

>  <ref_mols>  (81) 
x0969_1B,x0435_0B

>  <original SMILES>  (81) 
[H]c1c([H])c(C([H])(N([H])C(=O)c2c([H])c([H])c([H])c3c(Br)nn([H])c23)C([H])([H])[H])c([H])c2c1C([H])([H])C([H])([H])C([H])([H])C2([H])[H]

>  <index>  (81) 
90

>  <∆∆G>  (81) 
-9.300086

>  <∆G_bound>  (81) 
-8.608173

>  <∆G_unbound>  (81) 
0.691914

>  <comRMSD>  (81) 
0.791831

>  <N_constrained_atoms>  (81) 
20.0

>  <N_unconstrained_atoms>  (81) 
5.0

>  <runtime>  (81) 
68.167271

>  <LE>  (81) 
0.372003

>  <percent_hybrid>  (81) 
50.0

>  <dist>  (81) 
11.0

>  <ecfp4>  (81) 
0.042105

>  <daylight>  (81) 
0.210031

>  <topodist>  (81) 
3.0

>  <mces>  (81) 
25.0

>  <tdn>  (81) 
0.0

>  <tup>  (81) 
2.0

>  <rdn>  (81) 
0.0

>  <rup>  (81) 
0.0

>  <ldn>  (81) 
0.0

>  <lup>  (81) 
1.0

>  <mut>  (81) 
6.0

>  <maj>  (81) 
6.0

>  <min>  (81) 
0.0

>  <hyb>  (81) 
2.0

>  <sub>  (81) 
1.0

>  <query_index>  (81) 
343.0

>  <max_hit_Tanimoto>  (81) 
0.211712

>  <largest_ring>  (81) 
6

>  <N_interactions_kept>  (81) 
2.0

>  <N_interactions_lost>  (81) 
1.5

>  <interaction_uniqueness_metric>  (81) 
0.242199

>  <ad_hoc_penalty>  (81) 
-30.987708

>  <N_rotatable_bonds>  (81) 
4

>  <N_HA>  (81) 
25

>  <cluster>  (81) 
6134

>  <N_interactions>  (81) 
6

>  <Enamine>  (81) 
0

>  <Mcule>  (81) 
1

>  <N_PAINS>  (81) 
0

>  <UFF_Gibbs>  (81) 
161.706182

>  <strain_per_HA>  (81) 
6.468247

>  <saltbridge:HIS:51>  (81) 
0

>  <pistack:HIS:51>  (81) 
1

>  <hydroph_interaction:HIS:51>  (81) 
1

>  <hbond:ALA:132>  (81) 
0

>  <hbond:SER:135>  (81) 
0

>  <hydroph_interaction:TYR:150>  (81) 
0

>  <pistack:TYR:161>  (81) 
2

>  <hydroph_interaction:TYR:161>  (81) 
0

>  <hydroph_interaction:ASP:83>  (81) 
1

>  <hbond:TYR:130>  (81) 
0

>  <hydroph_interaction:ALA:132>  (81) 
0

>  <hbond:HIS:51>  (81) 
1

>  <hbond:ASP:129>  (81) 
0

>  <hbond:TYR:150>  (81) 
0

>  <hbond:GLY:151>  (81) 
0

>  <hbond:TYR:161>  (81) 
0

>  <hydroph_interaction:TYR:130>  (81) 
0

>  <hydroph_interaction:PRO:131>  (81) 
0

>  <hydroph_interaction:ASP:129>  (81) 
0

>  <saltbridge:ASP:75>  (81) 
0

>  <saltbridge:ASP:83>  (81) 
0

>  <hydroph_interaction:ASN:152>  (81) 
0

>  <halogenbond:TYR:150>  (81) 
0

>  <hbond:ASP:83>  (81) 
0

>  <hydroph_interaction:VAL:155>  (81) 
0

>  <pication:TYR:161>  (81) 
0

>  <hbond:PRO:131>  (81) 
0

>  <hbond:LEU:128>  (81) 
0

>  <saltbridge:ASP:129>  (81) 
0

>  <hbond:THR:134>  (81) 
0

>  <pication:HIS:51>  (81) 
0

>  <hbond:SER:81>  (81) 
0

>  <hbond:GLY:159>  (81) 
0

>  <hydroph_interaction:PRO:101>  (81) 
0

>  <hydroph_interaction:THR:134>  (81) 
0

>  <hbond:GLY:82>  (81) 
0

>  <hydroph_interaction:GLU:104>  (81) 
0

>  <hydroph_interaction:VAL:36>  (81) 
0

>  <hydroph_interaction:MET:49>  (81) 
0

>  <halogenbond:GLU:104>  (81) 
0

>  <hydroph_interaction:LYS:107>  (81) 
0

$$$$
CSSS00012181354
     RDKit          3D

 21 21  0  0  0  0  0  0  0  0999 V2000
   -3.0689    5.2803  -16.9189 C   0  0  0  0  0  0  0  0  0  0  0  0
   -3.9808    5.1356  -18.1265 C   0  0  0  0  0  0  0  0  0  0  0  0
   -5.3388    5.2136  -17.7076 O   0  0  0  0  0  0  0  0  0  0  0  0
   -6.4133    5.1139  -18.5959 C   0  0  0  0  0  0  0  0  0  0  0  0
   -6.1988    4.9473  -19.8283 O   0  0  0  0  0  0  0  0  0  0  0  0
   -7.8037    5.2025  -18.1002 C   0  0  0  0  0  0  0  0  0  0  0  0
   -8.1708    5.3858  -16.7612 C   0  0  0  0  0  0  0  0  0  0  0  0
   -7.2660    5.5273  -15.5783 C   0  0  0  0  0  0  0  0  0  0  0  0
   -9.8496    5.4257  -16.6699 S   0  0  0  0  0  0  0  0  0  0  0  0
  -10.1388    5.2135  -18.3097 C   0  0  0  0  0  0  0  0  0  0  0  0
   -8.9158    5.1076  -18.9572 C   0  0  0  0  0  0  0  0  0  0  0  0
   -3.2430    6.2612  -16.4279 H   0  0  0  0  0  0  0  0  0  0  0  0
   -3.2728    4.4670  -16.1905 H   0  0  0  0  0  0  0  0  0  0  0  0
   -2.0078    5.2202  -17.2404 H   0  0  0  0  0  0  0  0  0  0  0  0
   -3.7935    4.1539  -18.6131 H   0  0  0  0  0  0  0  0  0  0  0  0
   -3.7637    5.9505  -18.8508 H   0  0  0  0  0  0  0  0  0  0  0  0
   -7.8627    5.6598  -14.6516 H   0  0  0  0  0  0  0  0  0  0  0  0
   -6.6433    4.6150  -15.4693 H   0  0  0  0  0  0  0  0  0  0  0  0
   -6.6134    6.4157  -15.7076 H   0  0  0  0  0  0  0  0  0  0  0  0
  -11.1102    5.1670  -18.7829 H   0  0  0  0  0  0  0  0  0  0  0  0
   -8.8373    4.9647  -20.0272 H   0  0  0  0  0  0  0  0  0  0  0  0
  1  2  1  0
  2  3  1  0
  3  4  1  0
  4  5  2  0
  4  6  1  0
  6  7  2  0
  7  8  1  0
  7  9  1  0
  9 10  1  0
 10 11  2  0
 11  6  1  0
  1 12  1  0
  1 13  1  0
  1 14  1  0
  2 15  1  0
  2 16  1  0
  8 17  1  0
  8 18  1  0
  8 19  1  0
 10 20  1  0
 11 21  1  0
A    1
 C1 
A    2
 C2 
A    3
 O1 
A    4
 C3 
A    5
 O2 
A    6
 C4 
A    7
 C5 
A    8
 C6 
A    9
 S1 
A   10
 C7 
A   11
 C8 
A   12
 H1 
A   13
 H2 
A   14
 H3 
A   15
 H4 
A   16
 H5 
A   17
 H6 
A   18
 H7 
A   19
 H8 
A   20
 H9 
A   21
 H10
M  END
>  <ref_pdb>  (82) 
x0051_0B

>  <ref_mols>  (82) 
x0472_0B,x0386_0B

>  <original SMILES>  (82) 
[H]c1sc(C([H])([H])[H])c(C(=O)OC([H])([H])C([H])([H])[H])c1[H]

>  <index>  (82) 
123

>  <∆∆G>  (82) 
-7.089047

>  <∆G_bound>  (82) 
-7.105832

>  <∆G_unbound>  (82) 
-0.016785

>  <comRMSD>  (82) 
0.482461

>  <N_constrained_atoms>  (82) 
14.0

>  <N_unconstrained_atoms>  (82) 
0.0

>  <runtime>  (82) 
18.885444

>  <LE>  (82) 
0.50636

>  <percent_hybrid>  (82) 
13.0

>  <dist>  (82) 
7.0

>  <ecfp4>  (82) 
0.160714

>  <daylight>  (82) 
0.228188

>  <topodist>  (82) 
4.0

>  <mces>  (82) 
11.0

>  <tdn>  (82) 
3.0

>  <tup>  (82) 
0.0

>  <rdn>  (82) 
1.0

>  <rup>  (82) 
0.0

>  <ldn>  (82) 
0.0

>  <lup>  (82) 
0.0

>  <mut>  (82) 
2.0

>  <maj>  (82) 
2.0

>  <min>  (82) 
0.0

>  <hyb>  (82) 
1.0

>  <sub>  (82) 
2.0

>  <query_index>  (82) 
75.0

>  <max_hit_Tanimoto>  (82) 
0.224036

>  <largest_ring>  (82) 
5

>  <N_interactions_kept>  (82) 
3.0

>  <N_interactions_lost>  (82) 
0.0

>  <interaction_uniqueness_metric>  (82) 
0.061972

>  <ad_hoc_penalty>  (82) 
-30.977248

>  <N_rotatable_bonds>  (82) 
4

>  <N_HA>  (82) 
11

>  <cluster>  (82) 
6105

>  <N_interactions>  (82) 
4

>  <Enamine>  (82) 
1

>  <Mcule>  (82) 
0

>  <N_PAINS>  (82) 
0

>  <UFF_Gibbs>  (82) 
35.747095

>  <strain_per_HA>  (82) 
2.553364

>  <saltbridge:HIS:51>  (82) 
0

>  <pistack:HIS:51>  (82) 
0

>  <hydroph_interaction:HIS:51>  (82) 
0

>  <hbond:ALA:132>  (82) 
0

>  <hbond:SER:135>  (82) 
0

>  <hydroph_interaction:TYR:150>  (82) 
1

>  <pistack:TYR:161>  (82) 
0

>  <hydroph_interaction:TYR:161>  (82) 
2

>  <hydroph_interaction:ASP:83>  (82) 
0

>  <hbond:TYR:130>  (82) 
0

>  <hydroph_interaction:ALA:132>  (82) 
0

>  <hbond:HIS:51>  (82) 
0

>  <hbond:ASP:129>  (82) 
0

>  <hbond:TYR:150>  (82) 
0

>  <hbond:GLY:151>  (82) 
0

>  <hbond:TYR:161>  (82) 
0

>  <hydroph_interaction:TYR:130>  (82) 
0

>  <hydroph_interaction:PRO:131>  (82) 
0

>  <hydroph_interaction:ASP:129>  (82) 
0

>  <saltbridge:ASP:75>  (82) 
0

>  <saltbridge:ASP:83>  (82) 
0

>  <hydroph_interaction:ASN:152>  (82) 
0

>  <halogenbond:TYR:150>  (82) 
0

>  <hbond:ASP:83>  (82) 
0

>  <hydroph_interaction:VAL:155>  (82) 
1

>  <pication:TYR:161>  (82) 
0

>  <hbond:PRO:131>  (82) 
0

>  <hbond:LEU:128>  (82) 
0

>  <saltbridge:ASP:129>  (82) 
0

>  <hbond:THR:134>  (82) 
0

>  <pication:HIS:51>  (82) 
0

>  <hbond:SER:81>  (82) 
0

>  <hbond:GLY:159>  (82) 
0

>  <hydroph_interaction:PRO:101>  (82) 
0

>  <hydroph_interaction:THR:134>  (82) 
0

>  <hbond:GLY:82>  (82) 
0

>  <hydroph_interaction:GLU:104>  (82) 
0

>  <hydroph_interaction:VAL:36>  (82) 
0

>  <hydroph_interaction:MET:49>  (82) 
0

>  <halogenbond:GLU:104>  (82) 
0

>  <hydroph_interaction:LYS:107>  (82) 
0

$$$$
SRJDXRZUNGNOTA-UHFFFAOYSA-N
     RDKit          3D

 45 48  0  0  0  0  0  0  0  0999 V2000
   -8.2179    5.8001  -14.1453 C   0  0  0  0  0  0  0  0  0  0  0  0
   -8.6958    5.7366  -12.7921 N   0  0  0  0  0  0  0  0  0  0  0  0
   -9.5992    4.6942  -12.3031 C   0  0  0  0  0  0  0  0  0  0  0  0
   -9.7462    4.7833  -10.8150 C   0  0  0  0  0  0  0  0  0  0  0  0
   -8.9024    4.2723   -9.8515 C   0  0  0  0  0  0  0  0  0  0  0  0
   -9.3779    4.6241   -8.6434 N   0  0  0  0  0  0  0  0  0  0  0  0
   -8.7274    4.3353   -7.3668 C   0  0  0  0  0  0  0  0  0  0  0  0
   -7.7428    3.1621   -7.5143 C   0  0  0  0  0  0  0  0  0  0  0  0
   -6.8602    3.3438   -8.7612 C   0  0  0  0  0  0  0  0  0  0  0  0
   -7.7049    3.3895  -10.0446 C   0  0  0  0  0  0  0  0  0  0  0  0
  -10.4527    5.3840   -8.7838 N   0  0  0  0  0  0  0  0  0  0  0  0
  -10.7020    5.4934  -10.1066 C   0  0  0  0  0  0  0  0  0  0  0  0
   -7.4305    6.7332  -14.4635 O   0  0  0  0  0  0  0  0  0  0  0  0
   -8.5757    4.7461  -15.1746 C   0  0  0  0  0  0  0  0  0  0  0  0
   -8.7205    5.3626  -16.5528 C   0  0  0  0  0  0  0  0  0  0  0  0
   -7.6477    5.3479  -17.4747 C   0  0  0  0  0  0  0  0  0  0  0  0
   -7.8102    5.9580  -18.7322 C   0  0  0  0  0  0  0  0  0  0  0  0
   -9.0134    6.5842  -19.0643 C   0  0  0  0  0  0  0  0  0  0  0  0
  -10.0654    6.6125  -18.1479 C   0  0  0  0  0  0  0  0  0  0  0  0
   -9.9201    6.0090  -16.8971 C   0  0  0  0  0  0  0  0  0  0  0  0
   -6.3736    4.6762  -17.1190 C   0  0  0  0  0  0  0  0  0  0  0  0
   -5.4080    4.6709  -17.9295 O   0  0  0  0  0  0  0  0  0  0  0  0
   -6.1956    4.0362  -15.7725 C   0  0  0  0  0  0  0  0  0  0  0  0
   -7.5415    3.6025  -15.1792 C   0  0  0  0  0  0  0  0  0  0  0  0
   -8.3797    6.4861  -12.1345 H   0  0  0  0  0  0  0  0  0  0  0  0
  -10.5946    4.8091  -12.7828 H   0  0  0  0  0  0  0  0  0  0  0  0
   -9.1951    3.6922  -12.5593 H   0  0  0  0  0  0  0  0  0  0  0  0
   -9.4950    4.0833   -6.6032 H   0  0  0  0  0  0  0  0  0  0  0  0
   -8.1770    5.2405   -7.0291 H   0  0  0  0  0  0  0  0  0  0  0  0
   -7.1025    3.0992   -6.6080 H   0  0  0  0  0  0  0  0  0  0  0  0
   -8.3134    2.2106   -7.6014 H   0  0  0  0  0  0  0  0  0  0  0  0
   -6.2798    4.2880   -8.6664 H   0  0  0  0  0  0  0  0  0  0  0  0
   -6.1346    2.5043   -8.8289 H   0  0  0  0  0  0  0  0  0  0  0  0
   -7.0844    3.7666  -10.8861 H   0  0  0  0  0  0  0  0  0  0  0  0
   -8.0557    2.3663  -10.2946 H   0  0  0  0  0  0  0  0  0  0  0  0
  -11.5218    6.0609  -10.5272 H   0  0  0  0  0  0  0  0  0  0  0  0
   -9.5558    4.2941  -14.9107 H   0  0  0  0  0  0  0  0  0  0  0  0
   -7.0069    5.9518  -19.4583 H   0  0  0  0  0  0  0  0  0  0  0  0
   -9.1287    7.0530  -20.0328 H   0  0  0  0  0  0  0  0  0  0  0  0
  -10.9933    7.1043  -18.4058 H   0  0  0  0  0  0  0  0  0  0  0  0
  -10.7426    6.0458  -16.1934 H   0  0  0  0  0  0  0  0  0  0  0  0
   -5.5428    3.1423  -15.8698 H   0  0  0  0  0  0  0  0  0  0  0  0
   -5.6930    4.7549  -15.0910 H   0  0  0  0  0  0  0  0  0  0  0  0
   -7.9416    2.7565  -15.7813 H   0  0  0  0  0  0  0  0  0  0  0  0
   -7.3825    3.2234  -14.1472 H   0  0  0  0  0  0  0  0  0  0  0  0
  1  2  1  0
  2  3  1  0
  3  4  1  0
  4  5  2  0
  5  6  1  0
  6  7  1  0
  7  8  1  0
  8  9  1  0
  9 10  1  0
  6 11  1  0
 11 12  2  0
  1 13  2  0
  1 14  1  0
 14 15  1  0
 15 16  1  0
 16 17  2  0
 17 18  1  0
 18 19  2  0
 19 20  1  0
 16 21  1  0
 21 22  2  0
 21 23  1  0
 23 24  1  0
 12  4  1  0
 10  5  1  0
 24 14  1  0
 20 15  2  0
  2 25  1  0
  3 26  1  0
  3 27  1  0
  7 28  1  0
  7 29  1  0
  8 30  1  0
  8 31  1  0
  9 32  1  0
  9 33  1  0
 10 34  1  0
 10 35  1  0
 12 36  1  0
 14 37  1  0
 17 38  1  0
 18 39  1  0
 19 40  1  0
 20 41  1  0
 23 42  1  0
 23 43  1  0
 24 44  1  0
 24 45  1  0
A    1
 C1 
A    2
 N1 
A    3
 C2 
A    4
 C3 
A    5
 C4 
A    6
 N2 
A    7
 C5 
A    8
 C6 
A    9
 C7 
A   10
 C8 
A   11
 N3 
A   12
 C9 
A   13
 O1 
A   14
 C10
A   15
 C11
A   16
 C12
A   17
 C13
A   18
 C14
A   19
 C15
A   20
 C16
A   21
 C17
A   22
 O2 
A   23
 C18
A   24
 C19
A   25
 H1 
A   26
 H2 
A   27
 H3 
A   28
 H4 
A   29
 H5 
A   30
 H6 
A   31
 H7 
A   32
 H8 
A   33
 H9 
A   34
 H10
A   35
 H11
A   36
 H12
A   37
 H13
A   38
 H14
A   39
 H15
A   40
 H16
A   41
 H17
A   42
 H18
A   43
 H19
A   44
 H20
A   45
 H21
M  END
>  <ref_pdb>  (83) 
x0051_0B

>  <ref_mols>  (83) 
x0969_1B,x0455_0B

>  <original SMILES>  (83) 
[H]c1nn2c(c1C([H])([H])N([H])C(=O)C1([H])c3c([H])c([H])c([H])c([H])c3C(=O)C([H])([H])C1([H])[H])C([H])([H])C([H])([H])C([H])([H])C2([H])[H]

>  <index>  (83) 
88

>  <∆∆G>  (83) 
-8.295385

>  <∆G_bound>  (83) 
-7.448462

>  <∆G_unbound>  (83) 
0.846923

>  <comRMSD>  (83) 
0.318803

>  <N_constrained_atoms>  (83) 
20.0

>  <N_unconstrained_atoms>  (83) 
4.0

>  <runtime>  (83) 
56.267198

>  <LE>  (83) 
0.345641

>  <percent_hybrid>  (83) 
50.0

>  <dist>  (83) 
7.0

>  <ecfp4>  (83) 
0.261905

>  <daylight>  (83) 
0.258856

>  <topodist>  (83) 
2.0

>  <mces>  (83) 
25.0

>  <tdn>  (83) 
0.0

>  <tup>  (83) 
2.0

>  <rdn>  (83) 
0.0

>  <rup>  (83) 
0.0

>  <ldn>  (83) 
0.0

>  <lup>  (83) 
0.0

>  <mut>  (83) 
4.0

>  <maj>  (83) 
4.0

>  <min>  (83) 
0.0

>  <hyb>  (83) 
1.0

>  <sub>  (83) 
0.0

>  <query_index>  (83) 
204.0

>  <max_hit_Tanimoto>  (83) 
0.314879

>  <largest_ring>  (83) 
6

>  <N_interactions_kept>  (83) 
1.0

>  <N_interactions_lost>  (83) 
1.5

>  <interaction_uniqueness_metric>  (83) 
0.178786

>  <ad_hoc_penalty>  (83) 
-30.973525

>  <N_rotatable_bonds>  (83) 
3

>  <N_HA>  (83) 
24

>  <cluster>  (83) 
6136

>  <N_interactions>  (83) 
6

>  <Enamine>  (83) 
0

>  <Mcule>  (83) 
1

>  <N_PAINS>  (83) 
0

>  <UFF_Gibbs>  (83) 
139.277404

>  <strain_per_HA>  (83) 
5.803225

>  <saltbridge:HIS:51>  (83) 
0

>  <pistack:HIS:51>  (83) 
1

>  <hydroph_interaction:HIS:51>  (83) 
1

>  <hbond:ALA:132>  (83) 
0

>  <hbond:SER:135>  (83) 
0

>  <hydroph_interaction:TYR:150>  (83) 
1

>  <pistack:TYR:161>  (83) 
0

>  <hydroph_interaction:TYR:161>  (83) 
2

>  <hydroph_interaction:ASP:83>  (83) 
1

>  <hbond:TYR:130>  (83) 
0

>  <hydroph_interaction:ALA:132>  (83) 
0

>  <hbond:HIS:51>  (83) 
0

>  <hbond:ASP:129>  (83) 
0

>  <hbond:TYR:150>  (83) 
0

>  <hbond:GLY:151>  (83) 
0

>  <hbond:TYR:161>  (83) 
0

>  <hydroph_interaction:TYR:130>  (83) 
0

>  <hydroph_interaction:PRO:131>  (83) 
0

>  <hydroph_interaction:ASP:129>  (83) 
0

>  <saltbridge:ASP:75>  (83) 
0

>  <saltbridge:ASP:83>  (83) 
0

>  <hydroph_interaction:ASN:152>  (83) 
0

>  <halogenbond:TYR:150>  (83) 
0

>  <hbond:ASP:83>  (83) 
0

>  <hydroph_interaction:VAL:155>  (83) 
0

>  <pication:TYR:161>  (83) 
0

>  <hbond:PRO:131>  (83) 
0

>  <hbond:LEU:128>  (83) 
0

>  <saltbridge:ASP:129>  (83) 
0

>  <hbond:THR:134>  (83) 
0

>  <pication:HIS:51>  (83) 
0

>  <hbond:SER:81>  (83) 
0

>  <hbond:GLY:159>  (83) 
0

>  <hydroph_interaction:PRO:101>  (83) 
0

>  <hydroph_interaction:THR:134>  (83) 
0

>  <hbond:GLY:82>  (83) 
0

>  <hydroph_interaction:GLU:104>  (83) 
0

>  <hydroph_interaction:VAL:36>  (83) 
0

>  <hydroph_interaction:MET:49>  (83) 
0

>  <halogenbond:GLU:104>  (83) 
0

>  <hydroph_interaction:LYS:107>  (83) 
0

$$$$
CSSB00011406335
     RDKit          3D

 24 25  0  0  0  0  0  0  0  0999 V2000
  -10.0941    5.7927  -15.3718 C   0  0  0  0  0  0  0  0  0  0  0  0
   -9.4038    5.2940  -16.5947 C   0  0  0  0  0  0  0  0  0  0  0  0
   -8.1196    5.5811  -16.8952 N   0  0  0  0  0  0  0  0  0  0  0  0
   -7.7442    5.0603  -18.0964 C   0  0  0  0  0  0  0  0  0  0  0  0
   -8.7541    4.3719  -18.7719 C   0  0  0  0  0  0  0  0  0  0  0  0
  -10.1411    4.4171  -17.8224 S   0  0  0  0  0  0  0  0  0  0  0  0
   -6.3794    5.2536  -18.6483 C   0  0  0  0  0  0  0  0  0  0  0  0
   -6.2313    5.4879  -20.0291 C   0  0  0  0  0  0  0  0  0  0  0  0
   -4.9702    5.7067  -20.5851 C   0  0  0  0  0  0  0  0  0  0  0  0
   -3.8375    5.6976  -19.7741 C   0  0  0  0  0  0  0  0  0  0  0  0
   -3.9596    5.4602  -18.4048 C   0  0  0  0  0  0  0  0  0  0  0  0
   -5.2198    5.2222  -17.8273 C   0  0  0  0  0  0  0  0  0  0  0  0
   -5.2940    4.9396  -16.3492 C   0  0  0  0  0  0  0  0  0  0  0  0
  -10.5824    6.7641  -15.5936 H   0  0  0  0  0  0  0  0  0  0  0  0
  -10.8630    5.0614  -15.0460 H   0  0  0  0  0  0  0  0  0  0  0  0
   -9.3591    5.9310  -14.5512 H   0  0  0  0  0  0  0  0  0  0  0  0
   -8.6667    3.8864  -19.7348 H   0  0  0  0  0  0  0  0  0  0  0  0
   -7.0967    5.5257  -20.6789 H   0  0  0  0  0  0  0  0  0  0  0  0
   -4.8724    5.8928  -21.6469 H   0  0  0  0  0  0  0  0  0  0  0  0
   -2.8614    5.8739  -20.2075 H   0  0  0  0  0  0  0  0  0  0  0  0
   -3.0646    5.4541  -17.7948 H   0  0  0  0  0  0  0  0  0  0  0  0
   -5.9726    4.0828  -16.1533 H   0  0  0  0  0  0  0  0  0  0  0  0
   -5.6617    5.8398  -15.8142 H   0  0  0  0  0  0  0  0  0  0  0  0
   -4.2977    4.6721  -15.9367 H   0  0  0  0  0  0  0  0  0  0  0  0
  1  2  1  0
  2  3  2  0
  3  4  1  0
  4  5  2  0
  5  6  1  0
  4  7  1  0
  7  8  2  0
  8  9  1  0
  9 10  2  0
 10 11  1  0
 11 12  2  0
 12 13  1  0
  6  2  1  0
 12  7  1  0
  1 14  1  0
  1 15  1  0
  1 16  1  0
  5 17  1  0
  8 18  1  0
  9 19  1  0
 10 20  1  0
 11 21  1  0
 13 22  1  0
 13 23  1  0
 13 24  1  0
A    1
 C1 
A    2
 C2 
A    3
 N1 
A    4
 C3 
A    5
 C4 
A    6
 S1 
A    7
 C5 
A    8
 C6 
A    9
 C7 
A   10
 C8 
A   11
 C9 
A   12
 C10
A   13
 C11
A   14
 H1 
A   15
 H2 
A   16
 H3 
A   17
 H4 
A   18
 H5 
A   19
 H6 
A   20
 H7 
A   21
 H8 
A   22
 H9 
A   23
 H10
A   24
 H11
M  END
>  <ref_pdb>  (84) 
x0051_0B

>  <ref_mols>  (84) 
x0680_0B,x0386_0B

>  <original SMILES>  (84) 
[H]c1sc(C([H])([H])[H])nc1-c1c([H])c([H])c([H])c([H])c1C([H])([H])[H]

>  <index>  (84) 
107

>  <∆∆G>  (84) 
-8.476416

>  <∆G_bound>  (84) 
-8.661677

>  <∆G_unbound>  (84) 
-0.18526

>  <comRMSD>  (84) 
0.626385

>  <N_constrained_atoms>  (84) 
12.0

>  <N_unconstrained_atoms>  (84) 
1.0

>  <runtime>  (84) 
27.33742

>  <LE>  (84) 
0.652032

>  <percent_hybrid>  (84) 
17.0

>  <dist>  (84) 
3.0

>  <ecfp4>  (84) 
0.265306

>  <daylight>  (84) 
0.212903

>  <topodist>  (84) 
1.0

>  <mces>  (84) 
13.0

>  <tdn>  (84) 
0.0

>  <tup>  (84) 
1.0

>  <rdn>  (84) 
0.0

>  <rup>  (84) 
0.0

>  <ldn>  (84) 
0.0

>  <lup>  (84) 
0.0

>  <mut>  (84) 
2.0

>  <maj>  (84) 
1.0

>  <min>  (84) 
1.0

>  <hyb>  (84) 
0.0

>  <sub>  (84) 
1.0

>  <query_index>  (84) 
296.0

>  <max_hit_Tanimoto>  (84) 
0.112444

>  <largest_ring>  (84) 
6

>  <N_interactions_kept>  (84) 
3.5

>  <N_interactions_lost>  (84) 
0.5

>  <interaction_uniqueness_metric>  (84) 
0.018782

>  <ad_hoc_penalty>  (84) 
-30.71427

>  <N_rotatable_bonds>  (84) 
3

>  <N_HA>  (84) 
13

>  <cluster>  (84) 
6119

>  <N_interactions>  (84) 
4

>  <Enamine>  (84) 
1

>  <Mcule>  (84) 
0

>  <N_PAINS>  (84) 
0

>  <UFF_Gibbs>  (84) 
40.339831

>  <strain_per_HA>  (84) 
3.103064

>  <saltbridge:HIS:51>  (84) 
0

>  <pistack:HIS:51>  (84) 
0

>  <hydroph_interaction:HIS:51>  (84) 
0

>  <hbond:ALA:132>  (84) 
0

>  <hbond:SER:135>  (84) 
0

>  <hydroph_interaction:TYR:150>  (84) 
0

>  <pistack:TYR:161>  (84) 
0

>  <hydroph_interaction:TYR:161>  (84) 
4

>  <hydroph_interaction:ASP:83>  (84) 
0

>  <hbond:TYR:130>  (84) 
0

>  <hydroph_interaction:ALA:132>  (84) 
0

>  <hbond:HIS:51>  (84) 
0

>  <hbond:ASP:129>  (84) 
0

>  <hbond:TYR:150>  (84) 
0

>  <hbond:GLY:151>  (84) 
0

>  <hbond:TYR:161>  (84) 
0

>  <hydroph_interaction:TYR:130>  (84) 
0

>  <hydroph_interaction:PRO:131>  (84) 
0

>  <hydroph_interaction:ASP:129>  (84) 
0

>  <saltbridge:ASP:75>  (84) 
0

>  <saltbridge:ASP:83>  (84) 
0

>  <hydroph_interaction:ASN:152>  (84) 
0

>  <halogenbond:TYR:150>  (84) 
0

>  <hbond:ASP:83>  (84) 
0

>  <hydroph_interaction:VAL:155>  (84) 
0

>  <pication:TYR:161>  (84) 
0

>  <hbond:PRO:131>  (84) 
0

>  <hbond:LEU:128>  (84) 
0

>  <saltbridge:ASP:129>  (84) 
0

>  <hbond:THR:134>  (84) 
0

>  <pication:HIS:51>  (84) 
0

>  <hbond:SER:81>  (84) 
0

>  <hbond:GLY:159>  (84) 
0

>  <hydroph_interaction:PRO:101>  (84) 
0

>  <hydroph_interaction:THR:134>  (84) 
0

>  <hbond:GLY:82>  (84) 
0

>  <hydroph_interaction:GLU:104>  (84) 
0

>  <hydroph_interaction:VAL:36>  (84) 
0

>  <hydroph_interaction:MET:49>  (84) 
0

>  <halogenbond:GLU:104>  (84) 
0

>  <hydroph_interaction:LYS:107>  (84) 
0

$$$$
MCULE-8467533850
     RDKit          3D

 46 48  0  0  0  0  0  0  0  0999 V2000
   -8.6458    5.9522  -14.1890 C   0  0  0  0  0  0  0  0  0  0  0  0
   -7.9143    5.1937  -15.1677 N   0  0  0  0  0  0  0  0  0  0  0  0
   -8.0218    5.4229  -16.5850 C   0  0  0  0  0  0  0  0  0  0  0  0
   -9.2812    5.6521  -17.1685 C   0  0  0  0  0  0  0  0  0  0  0  0
   -9.4064    5.8500  -18.5506 C   0  0  0  0  0  0  0  0  0  0  0  0
  -10.7598    6.0561  -19.1641 C   0  0  0  0  0  0  0  0  0  0  0  0
   -8.2688    5.7729  -19.3631 C   0  0  0  0  0  0  0  0  0  0  0  0
   -7.0152    5.5319  -18.7990 C   0  0  0  0  0  0  0  0  0  0  0  0
   -6.8761    5.3635  -17.4117 C   0  0  0  0  0  0  0  0  0  0  0  0
   -5.5121    5.1032  -16.8323 C   0  0  0  0  0  0  0  0  0  0  0  0
   -9.2481    7.0065  -14.5325 O   0  0  0  0  0  0  0  0  0  0  0  0
   -8.6714    5.5213  -12.7741 C   0  0  0  0  0  0  0  0  0  0  0  0
   -9.3387    6.2784  -11.7979 C   0  0  0  0  0  0  0  0  0  0  0  0
   -9.3460    5.8404  -10.4727 C   0  0  0  0  0  0  0  0  0  0  0  0
   -8.6920    4.6527  -10.1190 C   0  0  0  0  0  0  0  0  0  0  0  0
   -8.6996    4.1930   -8.7540 N   0  0  0  0  0  0  0  0  0  0  0  0
   -8.8772    2.7665   -8.4521 C   0  0  0  0  0  0  0  0  0  0  0  0
   -9.7276    2.5939   -7.1896 C   0  0  0  0  0  0  0  0  0  0  0  0
   -9.1671    3.4270   -6.0317 C   0  0  0  0  0  0  0  0  0  0  0  0
   -9.0606    4.9040   -6.4264 C   0  0  0  0  0  0  0  0  0  0  0  0
   -8.2036    5.0690   -7.6841 C   0  0  0  0  0  0  0  0  0  0  0  0
   -8.0409    3.9218  -11.1241 C   0  0  0  0  0  0  0  0  0  0  0  0
   -8.0457    4.3687  -12.4078 N   0  0  0  0  0  0  0  0  0  0  0  0
   -7.2253    4.4837  -14.8333 H   0  0  0  0  0  0  0  0  0  0  0  0
  -10.1699    5.6533  -16.5495 H   0  0  0  0  0  0  0  0  0  0  0  0
  -11.4299    6.5953  -18.4610 H   0  0  0  0  0  0  0  0  0  0  0  0
  -10.6818    6.6593  -20.0937 H   0  0  0  0  0  0  0  0  0  0  0  0
  -11.2083    5.0706  -19.4084 H   0  0  0  0  0  0  0  0  0  0  0  0
   -8.3526    5.8943  -20.4362 H   0  0  0  0  0  0  0  0  0  0  0  0
   -6.1506    5.4758  -19.4490 H   0  0  0  0  0  0  0  0  0  0  0  0
   -5.3412    5.7544  -15.9491 H   0  0  0  0  0  0  0  0  0  0  0  0
   -5.4348    4.0390  -16.5261 H   0  0  0  0  0  0  0  0  0  0  0  0
   -4.7093    5.3171  -17.5698 H   0  0  0  0  0  0  0  0  0  0  0  0
   -9.8516    7.1967  -12.0551 H   0  0  0  0  0  0  0  0  0  0  0  0
   -9.8747    6.4183   -9.7253 H   0  0  0  0  0  0  0  0  0  0  0  0
   -9.3891    2.2497   -9.2934 H   0  0  0  0  0  0  0  0  0  0  0  0
   -7.8817    2.2940   -8.3043 H   0  0  0  0  0  0  0  0  0  0  0  0
  -10.7721    2.9115   -7.4027 H   0  0  0  0  0  0  0  0  0  0  0  0
   -9.7456    1.5213   -6.8996 H   0  0  0  0  0  0  0  0  0  0  0  0
   -8.1638    3.0421   -5.7444 H   0  0  0  0  0  0  0  0  0  0  0  0
   -9.8376    3.3296   -5.1509 H   0  0  0  0  0  0  0  0  0  0  0  0
  -10.0772    5.3133   -6.6161 H   0  0  0  0  0  0  0  0  0  0  0  0
   -8.6064    5.4789   -5.5909 H   0  0  0  0  0  0  0  0  0  0  0  0
   -8.2220    6.1356   -7.9944 H   0  0  0  0  0  0  0  0  0  0  0  0
   -7.1488    4.8029   -7.4551 H   0  0  0  0  0  0  0  0  0  0  0  0
   -7.5188    3.0045  -10.8866 H   0  0  0  0  0  0  0  0  0  0  0  0
  1  2  1  0
  2  3  1  0
  3  4  2  0
  4  5  1  0
  5  6  1  0
  5  7  2  0
  7  8  1  0
  8  9  2  0
  9 10  1  0
  1 11  2  0
  1 12  1  0
 12 13  2  0
 13 14  1  0
 14 15  2  0
 15 16  1  0
 16 17  1  0
 17 18  1  0
 18 19  1  0
 19 20  1  0
 20 21  1  0
 15 22  1  0
 22 23  2  0
  3  9  1  0
 12 23  1  0
 21 16  1  0
  2 24  1  0
  4 25  1  0
  6 26  1  0
  6 27  1  0
  6 28  1  0
  7 29  1  0
  8 30  1  0
 10 31  1  0
 10 32  1  0
 10 33  1  0
 13 34  1  0
 14 35  1  0
 17 36  1  0
 17 37  1  0
 18 38  1  0
 18 39  1  0
 19 40  1  0
 19 41  1  0
 20 42  1  0
 20 43  1  0
 21 44  1  0
 21 45  1  0
 22 46  1  0
A    1
 C1 
A    2
 N1 
A    3
 C2 
A    4
 C3 
A    5
 C4 
A    6
 C5 
A    7
 C6 
A    8
 C7 
A    9
 C8 
A   10
 C9 
A   11
 O1 
A   12
 C10
A   13
 C11
A   14
 C12
A   15
 C13
A   16
 N2 
A   17
 C14
A   18
 C15
A   19
 C16
A   20
 C17
A   21
 C18
A   22
 C19
A   23
 N3 
A   24
 H1 
A   25
 H2 
A   26
 H3 
A   27
 H4 
A   28
 H5 
A   29
 H6 
A   30
 H7 
A   31
 H8 
A   32
 H9 
A   33
 H10
A   34
 H11
A   35
 H12
A   36
 H13
A   37
 H14
A   38
 H15
A   39
 H16
A   40
 H17
A   41
 H18
A   42
 H19
A   43
 H20
A   44
 H21
A   45
 H22
A   46
 H23
M  END
>  <ref_pdb>  (85) 
x0051_0B

>  <ref_mols>  (85) 
x0553_0B,x0404_0B

>  <original SMILES>  (85) 
[H]c1nc(C(=O)N([H])c2c([H])c(C([H])([H])[H])c([H])c([H])c2C([H])([H])[H])c([H])c([H])c1N1C([H])([H])C([H])([H])C([H])([H])C([H])([H])C1([H])[H]

>  <index>  (85) 
84

>  <∆∆G>  (85) 
-8.125386

>  <∆G_bound>  (85) 
-7.660961

>  <∆G_unbound>  (85) 
0.464425

>  <comRMSD>  (85) 
0.606361

>  <N_constrained_atoms>  (85) 
24.0

>  <N_unconstrained_atoms>  (85) 
0.0

>  <runtime>  (85) 
83.783421

>  <LE>  (85) 
0.338558

>  <percent_hybrid>  (85) 
38.0

>  <dist>  (85) 
8.0

>  <ecfp4>  (85) 
0.222222

>  <daylight>  (85) 
0.1893

>  <topodist>  (85) 
3.0

>  <mces>  (85) 
25.0

>  <tdn>  (85) 
2.0

>  <tup>  (85) 
0.0

>  <rdn>  (85) 
0.0

>  <rup>  (85) 
0.0

>  <ldn>  (85) 
1.0

>  <lup>  (85) 
0.0

>  <mut>  (85) 
3.0

>  <maj>  (85) 
3.0

>  <min>  (85) 
0.0

>  <hyb>  (85) 
2.0

>  <sub>  (85) 
0.0

>  <query_index>  (85) 
112.0

>  <max_hit_Tanimoto>  (85) 
0.209026

>  <largest_ring>  (85) 
6

>  <N_interactions_kept>  (85) 
2.5

>  <N_interactions_lost>  (85) 
1.0

>  <interaction_uniqueness_metric>  (85) 
0.082184

>  <ad_hoc_penalty>  (85) 
-30.199608

>  <N_rotatable_bonds>  (85) 
5

>  <N_HA>  (85) 
23

>  <cluster>  (85) 
6140

>  <N_interactions>  (85) 
6

>  <Enamine>  (85) 
0

>  <Mcule>  (85) 
1

>  <N_PAINS>  (85) 
0

>  <UFF_Gibbs>  (85) 
139.902026

>  <strain_per_HA>  (85) 
5.829251

>  <saltbridge:HIS:51>  (85) 
0

>  <pistack:HIS:51>  (85) 
1

>  <hydroph_interaction:HIS:51>  (85) 
0

>  <hbond:ALA:132>  (85) 
0

>  <hbond:SER:135>  (85) 
0

>  <hydroph_interaction:TYR:150>  (85) 
1

>  <pistack:TYR:161>  (85) 
0

>  <hydroph_interaction:TYR:161>  (85) 
3

>  <hydroph_interaction:ASP:83>  (85) 
0

>  <hbond:TYR:130>  (85) 
0

>  <hydroph_interaction:ALA:132>  (85) 
1

>  <hbond:HIS:51>  (85) 
0

>  <hbond:ASP:129>  (85) 
0

>  <hbond:TYR:150>  (85) 
0

>  <hbond:GLY:151>  (85) 
0

>  <hbond:TYR:161>  (85) 
0

>  <hydroph_interaction:TYR:130>  (85) 
0

>  <hydroph_interaction:PRO:131>  (85) 
0

>  <hydroph_interaction:ASP:129>  (85) 
0

>  <saltbridge:ASP:75>  (85) 
0

>  <saltbridge:ASP:83>  (85) 
0

>  <hydroph_interaction:ASN:152>  (85) 
0

>  <halogenbond:TYR:150>  (85) 
0

>  <hbond:ASP:83>  (85) 
0

>  <hydroph_interaction:VAL:155>  (85) 
0

>  <pication:TYR:161>  (85) 
0

>  <hbond:PRO:131>  (85) 
0

>  <hbond:LEU:128>  (85) 
0

>  <saltbridge:ASP:129>  (85) 
0

>  <hbond:THR:134>  (85) 
0

>  <pication:HIS:51>  (85) 
0

>  <hbond:SER:81>  (85) 
0

>  <hbond:GLY:159>  (85) 
0

>  <hydroph_interaction:PRO:101>  (85) 
0

>  <hydroph_interaction:THR:134>  (85) 
0

>  <hbond:GLY:82>  (85) 
0

>  <hydroph_interaction:GLU:104>  (85) 
0

>  <hydroph_interaction:VAL:36>  (85) 
0

>  <hydroph_interaction:MET:49>  (85) 
0

>  <halogenbond:GLU:104>  (85) 
0

>  <hydroph_interaction:LYS:107>  (85) 
0

$$$$
IJJFMMVVJWHIPH-UHFFFAOYSA-N
     RDKit          3D

 39 41  0  0  0  0  0  0  0  0999 V2000
   -8.7514    6.1695  -13.8012 C   0  0  0  0  0  0  0  0  0  0  0  0
  -10.0150    5.8888  -13.1792 N   0  0  0  0  0  0  0  0  0  0  0  0
  -10.4241    6.5148  -11.9239 C   0  0  0  0  0  0  0  0  0  0  0  0
   -9.5132    6.1011  -10.8059 C   0  0  0  0  0  0  0  0  0  0  0  0
   -9.1476    4.8244  -10.4289 C   0  0  0  0  0  0  0  0  0  0  0  0
   -8.2869    4.9173   -9.3998 N   0  0  0  0  0  0  0  0  0  0  0  0
   -7.7064    3.7853   -8.6800 C   0  0  0  0  0  0  0  0  0  0  0  0
   -7.7672    2.5095   -9.5362 C   0  0  0  0  0  0  0  0  0  0  0  0
   -9.1565    2.3440  -10.1745 C   0  0  0  0  0  0  0  0  0  0  0  0
   -9.4928    3.5260  -11.0969 C   0  0  0  0  0  0  0  0  0  0  0  0
   -8.1177    6.1867   -9.0644 N   0  0  0  0  0  0  0  0  0  0  0  0
   -8.8548    6.9324   -9.9149 C   0  0  0  0  0  0  0  0  0  0  0  0
   -7.9943    7.0532  -13.3149 O   0  0  0  0  0  0  0  0  0  0  0  0
   -8.3294    5.4255  -15.0078 C   0  0  0  0  0  0  0  0  0  0  0  0
   -7.0079    4.9489  -15.1573 C   0  0  0  0  0  0  0  0  0  0  0  0
   -5.7963    5.1401  -13.8927 Cl  0  0  0  0  0  0  0  0  0  0  0  0
   -6.6462    4.2488  -16.3136 C   0  0  0  0  0  0  0  0  0  0  0  0
   -7.5808    4.0203  -17.3247 C   0  0  0  0  0  0  0  0  0  0  0  0
   -8.8910    4.4988  -17.1957 C   0  0  0  0  0  0  0  0  0  0  0  0
   -9.9058    4.2197  -18.2649 C   0  0  0  0  0  0  0  0  0  0  0  0
   -9.2640    5.1847  -16.0304 C   0  0  0  0  0  0  0  0  0  0  0  0
  -10.6402    5.1598  -13.5907 H   0  0  0  0  0  0  0  0  0  0  0  0
  -11.4595    6.2003  -11.6725 H   0  0  0  0  0  0  0  0  0  0  0  0
  -10.4189    7.6199  -12.0406 H   0  0  0  0  0  0  0  0  0  0  0  0
   -8.2753    3.6267   -7.7386 H   0  0  0  0  0  0  0  0  0  0  0  0
   -6.6493    4.0078   -8.4200 H   0  0  0  0  0  0  0  0  0  0  0  0
   -6.9974    2.5638  -10.3372 H   0  0  0  0  0  0  0  0  0  0  0  0
   -7.5417    1.6268   -8.9000 H   0  0  0  0  0  0  0  0  0  0  0  0
   -9.9237    2.2692   -9.3725 H   0  0  0  0  0  0  0  0  0  0  0  0
   -9.1840    1.4013  -10.7621 H   0  0  0  0  0  0  0  0  0  0  0  0
   -8.9043    3.4404  -12.0358 H   0  0  0  0  0  0  0  0  0  0  0  0
  -10.5740    3.5053  -11.3508 H   0  0  0  0  0  0  0  0  0  0  0  0
   -8.9052    8.0128   -9.8900 H   0  0  0  0  0  0  0  0  0  0  0  0
   -5.6386    3.8685  -16.4253 H   0  0  0  0  0  0  0  0  0  0  0  0
   -7.2828    3.4674  -18.2071 H   0  0  0  0  0  0  0  0  0  0  0  0
  -10.6526    5.0402  -18.3192 H   0  0  0  0  0  0  0  0  0  0  0  0
   -9.4169    4.1353  -19.2589 H   0  0  0  0  0  0  0  0  0  0  0  0
  -10.4292    3.2678  -18.0371 H   0  0  0  0  0  0  0  0  0  0  0  0
  -10.2800    5.5486  -15.9317 H   0  0  0  0  0  0  0  0  0  0  0  0
  1  2  1  0
  2  3  1  0
  3  4  1  0
  4  5  2  0
  5  6  1  0
  6  7  1  0
  7  8  1  0
  8  9  1  0
  9 10  1  0
  6 11  1  0
 11 12  2  0
  1 13  2  0
  1 14  1  0
 14 15  2  0
 15 16  1  0
 15 17  1  0
 17 18  2  0
 18 19  1  0
 19 20  1  0
 19 21  2  0
 12  4  1  0
 10  5  1  0
 14 21  1  0
  2 22  1  0
  3 23  1  0
  3 24  1  0
  7 25  1  0
  7 26  1  0
  8 27  1  0
  8 28  1  0
  9 29  1  0
  9 30  1  0
 10 31  1  0
 10 32  1  0
 12 33  1  0
 17 34  1  0
 18 35  1  0
 20 36  1  0
 20 37  1  0
 20 38  1  0
 21 39  1  0
A    1
 C1 
A    2
 N1 
A    3
 C2 
A    4
 C3 
A    5
 C4 
A    6
 N2 
A    7
 C5 
A    8
 C6 
A    9
 C7 
A   10
 C8 
A   11
 N3 
A   12
 C9 
A   13
 O1 
A   14
 C10
A   15
 C11
A   16
CL1 
A   17
 C12
A   18
 C13
A   19
 C14
A   20
 C15
A   21
 C16
A   22
 H1 
A   23
 H2 
A   24
 H3 
A   25
 H4 
A   26
 H5 
A   27
 H6 
A   28
 H7 
A   29
 H8 
A   30
 H9 
A   31
 H10
A   32
 H11
A   33
 H12
A   34
 H13
A   35
 H14
A   36
 H15
A   37
 H16
A   38
 H17
A   39
 H18
M  END
>  <ref_pdb>  (86) 
x0051_0B

>  <ref_mols>  (86) 
x0553_0B,x0969_1B

>  <original SMILES>  (86) 
[H]c1nn2c(c1C([H])([H])N([H])C(=O)c1c([H])c(C([H])([H])[H])c([H])c([H])c1Cl)C([H])([H])C([H])([H])C([H])([H])C2([H])[H]

>  <index>  (86) 
111

>  <∆∆G>  (86) 
-8.49923

>  <∆G_bound>  (86) 
-7.589219

>  <∆G_unbound>  (86) 
0.910011

>  <comRMSD>  (86) 
0.50036

>  <N_constrained_atoms>  (86) 
19.0

>  <N_unconstrained_atoms>  (86) 
3.0

>  <runtime>  (86) 
58.840242

>  <LE>  (86) 
0.386329

>  <percent_hybrid>  (86) 
48.0

>  <dist>  (86) 
7.0

>  <ecfp4>  (86) 
0.283951

>  <daylight>  (86) 
0.327402

>  <topodist>  (86) 
2.0

>  <mces>  (86) 
22.0

>  <tdn>  (86) 
1.0

>  <tup>  (86) 
1.0

>  <rdn>  (86) 
0.0

>  <rup>  (86) 
0.0

>  <ldn>  (86) 
0.0

>  <lup>  (86) 
0.0

>  <mut>  (86) 
4.0

>  <maj>  (86) 
4.0

>  <min>  (86) 
0.0

>  <hyb>  (86) 
1.0

>  <sub>  (86) 
0.0

>  <query_index>  (86) 
375.0

>  <max_hit_Tanimoto>  (86) 
0.339487

>  <largest_ring>  (86) 
6

>  <N_interactions_kept>  (86) 
1.0

>  <N_interactions_lost>  (86) 
1.5

>  <interaction_uniqueness_metric>  (86) 
0.216008

>  <ad_hoc_penalty>  (86) 
-30.189239

>  <N_rotatable_bonds>  (86) 
4

>  <N_HA>  (86) 
21

>  <cluster>  (86) 
6115

>  <N_interactions>  (86) 
6

>  <Enamine>  (86) 
0

>  <Mcule>  (86) 
1

>  <N_PAINS>  (86) 
0

>  <UFF_Gibbs>  (86) 
115.898103

>  <strain_per_HA>  (86) 
5.268096

>  <saltbridge:HIS:51>  (86) 
0

>  <pistack:HIS:51>  (86) 
1

>  <hydroph_interaction:HIS:51>  (86) 
1

>  <hbond:ALA:132>  (86) 
0

>  <hbond:SER:135>  (86) 
0

>  <hydroph_interaction:TYR:150>  (86) 
1

>  <pistack:TYR:161>  (86) 
1

>  <hydroph_interaction:TYR:161>  (86) 
0

>  <hydroph_interaction:ASP:83>  (86) 
1

>  <hbond:TYR:130>  (86) 
0

>  <hydroph_interaction:ALA:132>  (86) 
0

>  <hbond:HIS:51>  (86) 
0

>  <hbond:ASP:129>  (86) 
0

>  <hbond:TYR:150>  (86) 
0

>  <hbond:GLY:151>  (86) 
1

>  <hbond:TYR:161>  (86) 
0

>  <hydroph_interaction:TYR:130>  (86) 
0

>  <hydroph_interaction:PRO:131>  (86) 
0

>  <hydroph_interaction:ASP:129>  (86) 
0

>  <saltbridge:ASP:75>  (86) 
0

>  <saltbridge:ASP:83>  (86) 
0

>  <hydroph_interaction:ASN:152>  (86) 
0

>  <halogenbond:TYR:150>  (86) 
0

>  <hbond:ASP:83>  (86) 
0

>  <hydroph_interaction:VAL:155>  (86) 
0

>  <pication:TYR:161>  (86) 
0

>  <hbond:PRO:131>  (86) 
0

>  <hbond:LEU:128>  (86) 
0

>  <saltbridge:ASP:129>  (86) 
0

>  <hbond:THR:134>  (86) 
0

>  <pication:HIS:51>  (86) 
0

>  <hbond:SER:81>  (86) 
0

>  <hbond:GLY:159>  (86) 
0

>  <hydroph_interaction:PRO:101>  (86) 
0

>  <hydroph_interaction:THR:134>  (86) 
0

>  <hbond:GLY:82>  (86) 
0

>  <hydroph_interaction:GLU:104>  (86) 
0

>  <hydroph_interaction:VAL:36>  (86) 
0

>  <hydroph_interaction:MET:49>  (86) 
0

>  <halogenbond:GLU:104>  (86) 
0

>  <hydroph_interaction:LYS:107>  (86) 
0

$$$$
Z1627678280
     RDKit          3D

 35 37  0  0  0  0  0  0  0  0999 V2000
   -8.7992    4.7238  -19.9652 C   0  0  0  0  0  0  0  0  0  0  0  0
   -8.9132    5.1410  -18.5313 C   0  0  0  0  0  0  0  0  0  0  0  0
  -10.1312    5.2157  -17.8562 C   0  0  0  0  0  0  0  0  0  0  0  0
   -9.8384    5.6999  -16.2680 S   0  0  0  0  0  0  0  0  0  0  0  0
   -8.1725    5.8247  -16.4310 C   0  0  0  0  0  0  0  0  0  0  0  0
   -7.8113    5.4543  -17.7152 C   0  0  0  0  0  0  0  0  0  0  0  0
   -6.3721    5.4995  -18.1536 C   0  0  0  0  0  0  0  0  0  0  0  0
   -5.4691    5.4372  -16.9840 N   0  0  0  0  0  0  0  0  0  0  0  0
   -3.8177    5.6639  -17.5084 S   0  0  0  0  0  6  0  0  0  0  0  0
   -3.5450    4.8113  -18.7165 O   0  0  0  0  0  0  0  0  0  0  0  0
   -3.6061    7.1104  -17.8639 O   0  0  0  0  0  0  0  0  0  0  0  0
   -2.6948    5.1842  -16.2245 C   0  0  0  0  0  0  0  0  0  0  0  0
   -3.1520    4.3434  -15.1962 C   0  0  0  0  0  0  0  0  0  0  0  0
   -2.2914    3.9418  -14.1721 C   0  0  0  0  0  0  0  0  0  0  0  0
   -0.9619    4.3644  -14.1692 C   0  0  0  0  0  0  0  0  0  0  0  0
   -0.4864    5.1836  -15.1953 C   0  0  0  0  0  0  0  0  0  0  0  0
   -1.3412    5.5934  -16.2287 C   0  0  0  0  0  0  0  0  0  0  0  0
   -0.8000    6.4125  -17.2857 C   0  0  0  0  0  0  0  0  0  0  0  0
   -0.3641    7.0690  -18.1333 N   0  0  0  0  0  0  0  0  0  0  0  0
   -5.8215    6.4704  -15.9857 C   0  0  0  0  0  0  0  0  0  0  0  0
   -7.1876    6.1568  -15.3570 C   0  0  0  0  0  0  0  0  0  0  0  0
   -9.7967    4.7150  -20.4537 H   0  0  0  0  0  0  0  0  0  0  0  0
   -8.3627    3.7048  -20.0212 H   0  0  0  0  0  0  0  0  0  0  0  0
   -8.1454    5.4333  -20.5145 H   0  0  0  0  0  0  0  0  0  0  0  0
  -11.1039    4.9991  -18.2777 H   0  0  0  0  0  0  0  0  0  0  0  0
   -6.1734    4.6296  -18.8152 H   0  0  0  0  0  0  0  0  0  0  0  0
   -6.2059    6.4356  -18.7322 H   0  0  0  0  0  0  0  0  0  0  0  0
   -4.1760    3.9939  -15.1842 H   0  0  0  0  0  0  0  0  0  0  0  0
   -2.6555    3.2988  -13.3812 H   0  0  0  0  0  0  0  0  0  0  0  0
   -0.2965    4.0506  -13.3753 H   0  0  0  0  0  0  0  0  0  0  0  0
    0.5519    5.4936  -15.1861 H   0  0  0  0  0  0  0  0  0  0  0  0
   -5.8539    7.4788  -16.4581 H   0  0  0  0  0  0  0  0  0  0  0  0
   -5.0648    6.4990  -15.1723 H   0  0  0  0  0  0  0  0  0  0  0  0
   -7.0916    5.2837  -14.6768 H   0  0  0  0  0  0  0  0  0  0  0  0
   -7.5449    7.0315  -14.7732 H   0  0  0  0  0  0  0  0  0  0  0  0
  1  2  1  0
  2  3  2  0
  3  4  1  0
  4  5  1  0
  5  6  2  0
  6  7  1  0
  7  8  1  0
  8  9  1  0
  9 10  2  0
  9 11  2  0
  9 12  1  0
 12 13  2  0
 13 14  1  0
 14 15  2  0
 15 16  1  0
 16 17  2  0
 17 18  1  0
 18 19  3  0
  8 20  1  0
 20 21  1  0
  6  2  1  0
 21  5  1  0
 17 12  1  0
  1 22  1  0
  1 23  1  0
  1 24  1  0
  3 25  1  0
  7 26  1  0
  7 27  1  0
 13 28  1  0
 14 29  1  0
 15 30  1  0
 16 31  1  0
 20 32  1  0
 20 33  1  0
 21 34  1  0
 21 35  1  0
A    1
 C1 
A    2
 C2 
A    3
 C3 
A    4
 S1 
A    5
 C4 
A    6
 C5 
A    7
 C6 
A    8
 N1 
A    9
 S2 
A   10
 O1 
A   11
 O2 
A   12
 C7 
A   13
 C8 
A   14
 C9 
A   15
 C10
A   16
 C11
A   17
 C12
A   18
 C13
A   19
 N2 
A   20
 C14
A   21
 C15
A   22
 H1 
A   23
 H2 
A   24
 H3 
A   25
 H4 
A   26
 H5 
A   27
 H6 
A   28
 H7 
A   29
 H8 
A   30
 H9 
A   31
 H10
A   32
 H11
A   33
 H12
A   34
 H13
A   35
 H14
M  END
>  <ref_pdb>  (87) 
x0051_0B

>  <ref_mols>  (87) 
x0472_0B,x0852_0B

>  <original SMILES>  (87) 
[H]c1sc2c(c1C([H])([H])[H])C([H])([H])N(S(=O)(=O)c1c([H])c([H])c([H])c([H])c1C#N)C([H])([H])C2([H])[H]

>  <index>  (87) 
145

>  <∆∆G>  (87) 
-8.355254

>  <∆G_bound>  (87) 
-7.676029

>  <∆G_unbound>  (87) 
0.679224

>  <comRMSD>  (87) 
0.692398

>  <N_constrained_atoms>  (87) 
15.0

>  <N_unconstrained_atoms>  (87) 
7.0

>  <runtime>  (87) 
30.427614

>  <LE>  (87) 
0.379784

>  <percent_hybrid>  (87) 
34.0

>  <dist>  (87) 
9.0

>  <ecfp4>  (87) 
0.188889

>  <daylight>  (87) 
0.300595

>  <topodist>  (87) 
2.0

>  <mces>  (87) 
23.0

>  <tdn>  (87) 
1.0

>  <tup>  (87) 
0.0

>  <rdn>  (87) 
1.0

>  <rup>  (87) 
0.0

>  <ldn>  (87) 
0.0

>  <lup>  (87) 
0.0

>  <mut>  (87) 
6.0

>  <maj>  (87) 
6.0

>  <min>  (87) 
0.0

>  <hyb>  (87) 
1.0

>  <sub>  (87) 
1.0

>  <query_index>  (87) 
178.0

>  <max_hit_Tanimoto>  (87) 
0.352415

>  <largest_ring>  (87) 
6

>  <N_interactions_kept>  (87) 
5.5

>  <N_interactions_lost>  (87) 
1.0

>  <interaction_uniqueness_metric>  (87) 
0.064957

>  <ad_hoc_penalty>  (87) 
-30.04548

>  <N_rotatable_bonds>  (87) 
3

>  <N_HA>  (87) 
21

>  <cluster>  (87) 
6086

>  <N_interactions>  (87) 
5

>  <Enamine>  (87) 
1

>  <Mcule>  (87) 
0

>  <N_PAINS>  (87) 
0

>  <UFF_Gibbs>  (87) 
47.780217

>  <strain_per_HA>  (87) 
2.171828

>  <saltbridge:HIS:51>  (87) 
0

>  <pistack:HIS:51>  (87) 
0

>  <hydroph_interaction:HIS:51>  (87) 
0

>  <hbond:ALA:132>  (87) 
0

>  <hbond:SER:135>  (87) 
0

>  <hydroph_interaction:TYR:150>  (87) 
1

>  <pistack:TYR:161>  (87) 
0

>  <hydroph_interaction:TYR:161>  (87) 
3

>  <hydroph_interaction:ASP:83>  (87) 
0

>  <hbond:TYR:130>  (87) 
0

>  <hydroph_interaction:ALA:132>  (87) 
0

>  <hbond:HIS:51>  (87) 
0

>  <hbond:ASP:129>  (87) 
0

>  <hbond:TYR:150>  (87) 
0

>  <hbond:GLY:151>  (87) 
0

>  <hbond:TYR:161>  (87) 
0

>  <hydroph_interaction:TYR:130>  (87) 
0

>  <hydroph_interaction:PRO:131>  (87) 
0

>  <hydroph_interaction:ASP:129>  (87) 
0

>  <saltbridge:ASP:75>  (87) 
0

>  <saltbridge:ASP:83>  (87) 
0

>  <hydroph_interaction:ASN:152>  (87) 
0

>  <halogenbond:TYR:150>  (87) 
0

>  <hbond:ASP:83>  (87) 
0

>  <hydroph_interaction:VAL:155>  (87) 
1

>  <pication:TYR:161>  (87) 
0

>  <hbond:PRO:131>  (87) 
0

>  <hbond:LEU:128>  (87) 
0

>  <saltbridge:ASP:129>  (87) 
0

>  <hbond:THR:134>  (87) 
0

>  <pication:HIS:51>  (87) 
0

>  <hbond:SER:81>  (87) 
0

>  <hbond:GLY:159>  (87) 
0

>  <hydroph_interaction:PRO:101>  (87) 
0

>  <hydroph_interaction:THR:134>  (87) 
0

>  <hbond:GLY:82>  (87) 
0

>  <hydroph_interaction:GLU:104>  (87) 
0

>  <hydroph_interaction:VAL:36>  (87) 
0

>  <hydroph_interaction:MET:49>  (87) 
0

>  <halogenbond:GLU:104>  (87) 
0

>  <hydroph_interaction:LYS:107>  (87) 
0

$$$$
Z1331703140
     RDKit          3D

 42 45  0  0  0  0  0  0  0  0999 V2000
   -8.5648    2.7999  -17.3940 C   0  0  0  0  0  0  0  0  0  0  0  0
   -7.5309    3.5474  -18.1704 C   0  0  0  0  0  0  0  0  0  0  0  0
   -6.2035    3.3093  -17.9915 N   0  0  0  0  0  0  0  0  0  0  0  0
   -5.4318    4.3117  -19.0691 S   0  0  0  0  0  0  0  0  0  0  0  0
   -6.7479    5.0325  -19.7863 C   0  0  0  0  0  0  0  0  0  0  0  0
   -6.6932    6.0613  -20.7836 N   0  0  0  0  0  0  0  0  0  0  0  0
   -7.8284    6.4979  -21.5478 C   0  0  0  0  0  0  0  0  0  0  0  0
   -8.8121    5.7248  -21.7056 O   0  0  0  0  0  0  0  0  0  0  0  0
   -7.8396    7.8314  -22.1966 C   0  0  0  0  0  0  0  0  0  0  0  0
   -8.7124    8.0893  -23.2687 C   0  0  0  0  0  0  0  0  0  0  0  0
   -8.7330    9.3445  -23.8820 C   0  0  0  0  0  0  0  0  0  0  0  0
   -7.8871   10.3683  -23.4302 C   0  0  0  0  0  0  0  0  0  0  0  0
   -7.8787   11.7089  -24.1139 C   0  0  0  0  0  0  0  0  0  0  0  0
   -6.3788   11.9166  -25.1375 S   0  0  0  0  0  0  0  0  0  0  0  0
   -6.8327   10.6500  -26.3204 C   0  0  0  0  0  0  0  0  0  0  0  0
   -6.4179    9.3603  -26.2132 N   0  0  0  0  0  0  0  0  0  0  0  0
   -7.0145    8.7732  -27.2652 C   0  0  0  0  0  0  0  0  0  0  0  0
   -6.9519    7.4341  -27.6425 C   0  0  0  0  0  0  0  0  0  0  0  0
   -7.6786    7.0419  -28.7831 C   0  0  0  0  0  0  0  0  0  0  0  0
   -8.4414    7.9880  -29.5067 C   0  0  0  0  0  0  0  0  0  0  0  0
   -8.4830    9.3340  -29.0962 C   0  0  0  0  0  0  0  0  0  0  0  0
   -7.7500    9.6835  -27.9648 C   0  0  0  0  0  0  0  0  0  0  0  0
   -7.6448   10.8819  -27.3793 N   0  0  0  0  0  0  0  0  0  0  0  0
   -7.0205   10.1188  -22.3567 C   0  0  0  0  0  0  0  0  0  0  0  0
   -6.9991    8.8637  -21.7418 C   0  0  0  0  0  0  0  0  0  0  0  0
   -7.8683    4.4968  -19.1616 C   0  0  0  0  0  0  0  0  0  0  0  0
   -8.8836    1.9059  -17.9693 H   0  0  0  0  0  0  0  0  0  0  0  0
   -9.4472    3.4470  -17.2044 H   0  0  0  0  0  0  0  0  0  0  0  0
   -8.1477    2.4742  -16.4175 H   0  0  0  0  0  0  0  0  0  0  0  0
   -5.7584    6.4775  -20.9914 H   0  0  0  0  0  0  0  0  0  0  0  0
   -9.3710    7.3158  -23.6430 H   0  0  0  0  0  0  0  0  0  0  0  0
   -9.4015    9.5137  -24.7172 H   0  0  0  0  0  0  0  0  0  0  0  0
   -7.8928   12.5114  -23.3463 H   0  0  0  0  0  0  0  0  0  0  0  0
   -8.7833   11.8447  -24.7457 H   0  0  0  0  0  0  0  0  0  0  0  0
   -6.3675    6.7192  -27.0778 H   0  0  0  0  0  0  0  0  0  0  0  0
   -7.6547    6.0092  -29.1067 H   0  0  0  0  0  0  0  0  0  0  0  0
   -8.9975    7.6760  -30.3809 H   0  0  0  0  0  0  0  0  0  0  0  0
   -9.0628   10.0683  -29.6394 H   0  0  0  0  0  0  0  0  0  0  0  0
   -8.0948   11.7813  -27.6608 H   0  0  0  0  0  0  0  0  0  0  0  0
   -6.3609   10.8985  -21.9956 H   0  0  0  0  0  0  0  0  0  0  0  0
   -6.3358    8.7121  -20.9007 H   0  0  0  0  0  0  0  0  0  0  0  0
   -8.8877    4.7802  -19.3864 H   0  0  0  0  0  0  0  0  0  0  0  0
  1  2  1  0
  2  3  2  0
  3  4  1  0
  4  5  1  0
  5  6  1  0
  6  7  1  0
  7  8  2  0
  7  9  1  0
  9 10  2  0
 10 11  1  0
 11 12  2  0
 12 13  1  0
 13 14  1  0
 14 15  1  0
 15 16  2  0
 16 17  1  0
 17 18  2  0
 18 19  1  0
 19 20  2  0
 20 21  1  0
 21 22  2  0
 22 23  1  0
 12 24  1  0
 24 25  2  0
  5 26  2  0
 26  2  1  0
 25  9  1  0
 23 15  1  0
 22 17  1  0
  1 27  1  0
  1 28  1  0
  1 29  1  0
  6 30  1  0
 10 31  1  0
 11 32  1  0
 13 33  1  0
 13 34  1  0
 18 35  1  0
 19 36  1  0
 20 37  1  0
 21 38  1  0
 23 39  1  0
 24 40  1  0
 25 41  1  0
 26 42  1  0
A    1
 C1 
A    2
 C2 
A    3
 N1 
A    4
 S1 
A    5
 C3 
A    6
 N2 
A    7
 C4 
A    8
 O1 
A    9
 C5 
A   10
 C6 
A   11
 C7 
A   12
 C8 
A   13
 C9 
A   14
 S2 
A   15
 C10
A   16
 N3 
A   17
 C11
A   18
 C12
A   19
 C13
A   20
 C14
A   21
 C15
A   22
 C16
A   23
 N4 
A   24
 C17
A   25
 C18
A   26
 C19
A   27
 H1 
A   28
 H2 
A   29
 H3 
A   30
 H4 
A   31
 H5 
A   32
 H6 
A   33
 H7 
A   34
 H8 
A   35
 H9 
A   36
 H10
A   37
 H11
A   38
 H12
A   39
 H13
A   40
 H14
A   41
 H15
A   42
 H16
M  END
>  <ref_pdb>  (88) 
x0051_0B

>  <ref_mols>  (88) 
x0559_0B,x0846_1B

>  <original SMILES>  (88) 
[H]c1c(C([H])([H])[H])nsc1N([H])C(=O)c1c([H])c([H])c(C([H])([H])Sc2nc3c([H])c([H])c([H])c([H])c3n2[H])c([H])c1[H]

>  <index>  (88) 
169

>  <∆∆G>  (88) 
-9.204951

>  <∆G_bound>  (88) 
-8.57835

>  <∆G_unbound>  (88) 
0.626601

>  <comRMSD>  (88) 
0.714132

>  <N_constrained_atoms>  (88) 
25.0

>  <N_unconstrained_atoms>  (88) 
2.0

>  <runtime>  (88) 
36.492398

>  <LE>  (88) 
0.340924

>  <percent_hybrid>  (88) 
28.0

>  <dist>  (88) 
9.0

>  <ecfp4>  (88) 
0.21978

>  <daylight>  (88) 
0.263566

>  <topodist>  (88) 
3.0

>  <mces>  (88) 
28.0

>  <tdn>  (88) 
2.0

>  <tup>  (88) 
1.0

>  <rdn>  (88) 
0.0

>  <rup>  (88) 
0.0

>  <ldn>  (88) 
0.0

>  <lup>  (88) 
0.0

>  <mut>  (88) 
4.0

>  <maj>  (88) 
4.0

>  <min>  (88) 
0.0

>  <hyb>  (88) 
2.0

>  <sub>  (88) 
1.0

>  <query_index>  (88) 
315.0

>  <max_hit_Tanimoto>  (88) 
0.304833

>  <largest_ring>  (88) 
6

>  <N_interactions_kept>  (88) 
2.0

>  <N_interactions_lost>  (88) 
1.5

>  <interaction_uniqueness_metric>  (88) 
0.173014

>  <ad_hoc_penalty>  (88) 
-29.925448

>  <N_rotatable_bonds>  (88) 
6

>  <N_HA>  (88) 
26

>  <cluster>  (88) 
6066

>  <N_interactions>  (88) 
6

>  <Enamine>  (88) 
1

>  <Mcule>  (88) 
0

>  <N_PAINS>  (88) 
0

>  <UFF_Gibbs>  (88) 
66.272121

>  <strain_per_HA>  (88) 
2.454523

>  <saltbridge:HIS:51>  (88) 
0

>  <pistack:HIS:51>  (88) 
0

>  <hydroph_interaction:HIS:51>  (88) 
0

>  <hbond:ALA:132>  (88) 
0

>  <hbond:SER:135>  (88) 
0

>  <hydroph_interaction:TYR:150>  (88) 
1

>  <pistack:TYR:161>  (88) 
0

>  <hydroph_interaction:TYR:161>  (88) 
2

>  <hydroph_interaction:ASP:83>  (88) 
0

>  <hbond:TYR:130>  (88) 
0

>  <hydroph_interaction:ALA:132>  (88) 
0

>  <hbond:HIS:51>  (88) 
0

>  <hbond:ASP:129>  (88) 
1

>  <hbond:TYR:150>  (88) 
0

>  <hbond:GLY:151>  (88) 
0

>  <hbond:TYR:161>  (88) 
0

>  <hydroph_interaction:TYR:130>  (88) 
1

>  <hydroph_interaction:PRO:131>  (88) 
1

>  <hydroph_interaction:ASP:129>  (88) 
0

>  <saltbridge:ASP:75>  (88) 
0

>  <saltbridge:ASP:83>  (88) 
0

>  <hydroph_interaction:ASN:152>  (88) 
0

>  <halogenbond:TYR:150>  (88) 
0

>  <hbond:ASP:83>  (88) 
0

>  <hydroph_interaction:VAL:155>  (88) 
0

>  <pication:TYR:161>  (88) 
0

>  <hbond:PRO:131>  (88) 
0

>  <hbond:LEU:128>  (88) 
0

>  <saltbridge:ASP:129>  (88) 
0

>  <hbond:THR:134>  (88) 
0

>  <pication:HIS:51>  (88) 
0

>  <hbond:SER:81>  (88) 
0

>  <hbond:GLY:159>  (88) 
0

>  <hydroph_interaction:PRO:101>  (88) 
0

>  <hydroph_interaction:THR:134>  (88) 
0

>  <hbond:GLY:82>  (88) 
0

>  <hydroph_interaction:GLU:104>  (88) 
0

>  <hydroph_interaction:VAL:36>  (88) 
0

>  <hydroph_interaction:MET:49>  (88) 
0

>  <halogenbond:GLU:104>  (88) 
0

>  <hydroph_interaction:LYS:107>  (88) 
0

$$$$
PRYMTGVLYRAFCX-UHFFFAOYSA-N
     RDKit          3D

 39 41  0  0  0  0  0  0  0  0999 V2000
   -7.6159    6.7505  -12.9941 O   0  0  0  0  0  0  0  0  0  0  0  0
   -7.6452    5.4561  -12.4627 C   0  0  0  0  0  0  0  0  0  0  0  0
   -7.0601    4.5087  -13.0536 O   0  0  0  0  0  0  0  0  0  0  0  0
   -8.3697    5.2106  -11.2067 C   0  0  0  0  0  0  0  0  0  0  0  0
   -8.5215    4.0270  -10.5063 C   0  0  0  0  0  0  0  0  0  0  0  0
   -9.3215    4.2626   -9.4500 N   0  0  0  0  0  0  0  0  0  0  0  0
   -9.6937    3.2796   -8.4345 C   0  0  0  0  0  0  0  0  0  0  0  0
   -9.5184    1.8518   -8.9746 C   0  0  0  0  0  0  0  0  0  0  0  0
   -8.1583    1.6979   -9.6736 C   0  0  0  0  0  0  0  0  0  0  0  0
   -8.0272    2.6554  -10.8693 C   0  0  0  0  0  0  0  0  0  0  0  0
   -9.6559    5.5425   -9.4100 N   0  0  0  0  0  0  0  0  0  0  0  0
   -9.0910    6.1429  -10.4783 C   0  0  0  0  0  0  0  0  0  0  0  0
   -6.9995    7.0746  -14.2385 C   0  0  0  0  0  0  0  0  0  0  0  0
   -7.8264    6.5482  -15.3863 C   0  0  0  0  0  0  0  0  0  0  0  0
   -7.3826    5.4698  -16.1864 C   0  0  0  0  0  0  0  0  0  0  0  0
   -6.1266    4.9013  -15.9041 O   0  0  0  0  0  0  0  0  0  0  0  0
   -5.5398    3.7950  -16.5799 C   0  0  0  0  0  0  0  0  0  0  0  0
   -8.2151    5.0056  -17.2339 C   0  0  0  0  0  0  0  0  0  0  0  0
   -7.8465    3.9799  -18.0398 F   0  0  0  0  0  0  0  0  0  0  0  0
   -9.4565    5.6048  -17.4643 C   0  0  0  0  0  0  0  0  0  0  0  0
   -9.8881    6.6621  -16.6662 C   0  0  0  0  0  0  0  0  0  0  0  0
   -9.0799    7.1307  -15.6318 C   0  0  0  0  0  0  0  0  0  0  0  0
   -9.0472    3.4205   -7.5416 H   0  0  0  0  0  0  0  0  0  0  0  0
  -10.7516    3.4343   -8.1318 H   0  0  0  0  0  0  0  0  0  0  0  0
   -9.5900    1.1278   -8.1347 H   0  0  0  0  0  0  0  0  0  0  0  0
  -10.3330    1.6255   -9.6971 H   0  0  0  0  0  0  0  0  0  0  0  0
   -8.0404    0.6512  -10.0276 H   0  0  0  0  0  0  0  0  0  0  0  0
   -7.3450    1.9040   -8.9431 H   0  0  0  0  0  0  0  0  0  0  0  0
   -8.6307    2.2721  -11.7198 H   0  0  0  0  0  0  0  0  0  0  0  0
   -6.9619    2.7033  -11.1789 H   0  0  0  0  0  0  0  0  0  0  0  0
   -9.2058    7.1923  -10.7154 H   0  0  0  0  0  0  0  0  0  0  0  0
   -6.9363    8.1803  -14.3218 H   0  0  0  0  0  0  0  0  0  0  0  0
   -5.9556    6.6955  -14.2540 H   0  0  0  0  0  0  0  0  0  0  0  0
   -6.1856    2.8975  -16.4788 H   0  0  0  0  0  0  0  0  0  0  0  0
   -5.3726    4.0429  -17.6490 H   0  0  0  0  0  0  0  0  0  0  0  0
   -4.5572    3.5714  -16.1164 H   0  0  0  0  0  0  0  0  0  0  0  0
  -10.0892    5.2457  -18.2660 H   0  0  0  0  0  0  0  0  0  0  0  0
  -10.8524    7.1188  -16.8486 H   0  0  0  0  0  0  0  0  0  0  0  0
   -9.4320    7.9499  -15.0166 H   0  0  0  0  0  0  0  0  0  0  0  0
  1  2  1  0
  2  3  2  0
  2  4  1  0
  4  5  2  0
  5  6  1  0
  6  7  1  0
  7  8  1  0
  8  9  1  0
  9 10  1  0
  6 11  1  0
 11 12  2  0
  1 13  1  0
 13 14  1  0
 14 15  2  0
 15 16  1  0
 16 17  1  0
 15 18  1  0
 18 19  1  0
 18 20  2  0
 20 21  1  0
 21 22  2  0
 12  4  1  0
 10  5  1  0
 22 14  1  0
  7 23  1  0
  7 24  1  0
  8 25  1  0
  8 26  1  0
  9 27  1  0
  9 28  1  0
 10 29  1  0
 10 30  1  0
 12 31  1  0
 13 32  1  0
 13 33  1  0
 17 34  1  0
 17 35  1  0
 17 36  1  0
 20 37  1  0
 21 38  1  0
 22 39  1  0
A    1
 O1 
A    2
 C1 
A    3
 O2 
A    4
 C2 
A    5
 C3 
A    6
 N1 
A    7
 C4 
A    8
 C5 
A    9
 C6 
A   10
 C7 
A   11
 N2 
A   12
 C8 
A   13
 C9 
A   14
 C10
A   15
 C11
A   16
 O3 
A   17
 C12
A   18
 C13
A   19
 F1 
A   20
 C14
A   21
 C15
A   22
 C16
A   23
 H1 
A   24
 H2 
A   25
 H3 
A   26
 H4 
A   27
 H5 
A   28
 H6 
A   29
 H7 
A   30
 H8 
A   31
 H9 
A   32
 H10
A   33
 H11
A   34
 H12
A   35
 H13
A   36
 H14
A   37
 H15
A   38
 H16
A   39
 H17
M  END
>  <ref_pdb>  (89) 
x0051_0B

>  <ref_mols>  (89) 
x0969_1B,x0435_0B

>  <original SMILES>  (89) 
[H]c1nn2c(c1C(=O)OC([H])([H])c1c([H])c([H])c([H])c(F)c1OC([H])([H])[H])C([H])([H])C([H])([H])C([H])([H])C2([H])[H]

>  <index>  (89) 
91

>  <∆∆G>  (89) 
-6.57213

>  <∆G_bound>  (89) 
-6.11408

>  <∆G_unbound>  (89) 
0.45805

>  <comRMSD>  (89) 
0.482921

>  <N_constrained_atoms>  (89) 
19.0

>  <N_unconstrained_atoms>  (89) 
3.0

>  <runtime>  (89) 
52.437913

>  <LE>  (89) 
0.298733

>  <percent_hybrid>  (89) 
48.0

>  <dist>  (89) 
9.0

>  <ecfp4>  (89) 
0.157303

>  <daylight>  (89) 
0.318885

>  <topodist>  (89) 
3.0

>  <mces>  (89) 
23.0

>  <tdn>  (89) 
1.0

>  <tup>  (89) 
1.0

>  <rdn>  (89) 
1.0

>  <rup>  (89) 
0.0

>  <ldn>  (89) 
0.0

>  <lup>  (89) 
0.0

>  <mut>  (89) 
5.0

>  <maj>  (89) 
5.0

>  <min>  (89) 
0.0

>  <hyb>  (89) 
1.0

>  <sub>  (89) 
0.0

>  <query_index>  (89) 
343.0

>  <max_hit_Tanimoto>  (89) 
0.302093

>  <largest_ring>  (89) 
6

>  <N_interactions_kept>  (89) 
3.5

>  <N_interactions_lost>  (89) 
0.0

>  <interaction_uniqueness_metric>  (89) 
0.252636

>  <ad_hoc_penalty>  (89) 
-29.833214

>  <N_rotatable_bonds>  (89) 
5

>  <N_HA>  (89) 
22

>  <cluster>  (89) 
6133

>  <N_interactions>  (89) 
5

>  <Enamine>  (89) 
0

>  <Mcule>  (89) 
1

>  <N_PAINS>  (89) 
0

>  <UFF_Gibbs>  (89) 
165.835598

>  <strain_per_HA>  (89) 
7.537982

>  <saltbridge:HIS:51>  (89) 
1

>  <pistack:HIS:51>  (89) 
1

>  <hydroph_interaction:HIS:51>  (89) 
0

>  <hbond:ALA:132>  (89) 
0

>  <hbond:SER:135>  (89) 
0

>  <hydroph_interaction:TYR:150>  (89) 
0

>  <pistack:TYR:161>  (89) 
0

>  <hydroph_interaction:TYR:161>  (89) 
1

>  <hydroph_interaction:ASP:83>  (89) 
1

>  <hbond:TYR:130>  (89) 
0

>  <hydroph_interaction:ALA:132>  (89) 
0

>  <hbond:HIS:51>  (89) 
0

>  <hbond:ASP:129>  (89) 
0

>  <hbond:TYR:150>  (89) 
0

>  <hbond:GLY:151>  (89) 
0

>  <hbond:TYR:161>  (89) 
1

>  <hydroph_interaction:TYR:130>  (89) 
0

>  <hydroph_interaction:PRO:131>  (89) 
0

>  <hydroph_interaction:ASP:129>  (89) 
0

>  <saltbridge:ASP:75>  (89) 
0

>  <saltbridge:ASP:83>  (89) 
0

>  <hydroph_interaction:ASN:152>  (89) 
0

>  <halogenbond:TYR:150>  (89) 
0

>  <hbond:ASP:83>  (89) 
0

>  <hydroph_interaction:VAL:155>  (89) 
0

>  <pication:TYR:161>  (89) 
0

>  <hbond:PRO:131>  (89) 
0

>  <hbond:LEU:128>  (89) 
0

>  <saltbridge:ASP:129>  (89) 
0

>  <hbond:THR:134>  (89) 
0

>  <pication:HIS:51>  (89) 
0

>  <hbond:SER:81>  (89) 
0

>  <hbond:GLY:159>  (89) 
0

>  <hydroph_interaction:PRO:101>  (89) 
0

>  <hydroph_interaction:THR:134>  (89) 
0

>  <hbond:GLY:82>  (89) 
0

>  <hydroph_interaction:GLU:104>  (89) 
0

>  <hydroph_interaction:VAL:36>  (89) 
0

>  <hydroph_interaction:MET:49>  (89) 
0

>  <halogenbond:GLU:104>  (89) 
0

>  <hydroph_interaction:LYS:107>  (89) 
0

$$$$
WHROXXKZTHJNDS-UHFFFAOYSA-N
     RDKit          3D

 30 31  0  0  0  0  0  0  0  0999 V2000
   -5.4108    5.4445  -17.5478 N   0  0  0  0  0  0  0  0  0  0  0  0
   -3.9819    5.8481  -17.7394 C   0  0  0  0  0  0  0  0  0  0  0  0
   -3.0987    5.3227  -16.5863 C   0  0  0  0  0  0  0  0  0  0  0  0
   -3.3928    5.3014  -19.0595 C   0  0  0  0  0  0  0  0  0  0  0  0
   -6.2924    5.6456  -18.7442 C   0  0  0  0  0  0  0  0  0  0  0  0
   -6.3560    7.1087  -19.2331 C   0  0  0  0  0  0  0  0  0  0  0  0
   -7.6883    5.1649  -18.4499 C   0  0  0  0  0  0  0  0  0  0  0  0
   -8.1682    5.0941  -17.1570 C   0  0  0  0  0  0  0  0  0  0  0  0
   -9.7598    4.5600  -17.1898 S   0  0  0  0  0  0  0  0  0  0  0  0
   -9.8697    4.4568  -18.8689 C   0  0  0  0  0  0  0  0  0  0  0  0
   -8.6458    4.8258  -19.4167 C   0  0  0  0  0  0  0  0  0  0  0  0
   -7.3234    5.3075  -15.9481 C   0  0  0  0  0  0  0  0  0  0  0  0
   -6.0178    6.0303  -16.3194 C   0  0  0  0  0  0  0  0  0  0  0  0
   -3.8957    6.9572  -17.7514 H   0  0  0  0  0  0  0  0  0  0  0  0
   -3.2061    5.9517  -15.6796 H   0  0  0  0  0  0  0  0  0  0  0  0
   -2.0197    5.3654  -16.8485 H   0  0  0  0  0  0  0  0  0  0  0  0
   -3.3613    4.2705  -16.3449 H   0  0  0  0  0  0  0  0  0  0  0  0
   -3.8366    5.8017  -19.9431 H   0  0  0  0  0  0  0  0  0  0  0  0
   -3.5599    4.2054  -19.1328 H   0  0  0  0  0  0  0  0  0  0  0  0
   -2.3011    5.4994  -19.1180 H   0  0  0  0  0  0  0  0  0  0  0  0
   -5.9274    5.0109  -19.5786 H   0  0  0  0  0  0  0  0  0  0  0  0
   -6.8611    7.7647  -18.4949 H   0  0  0  0  0  0  0  0  0  0  0  0
   -6.9363    7.1585  -20.1792 H   0  0  0  0  0  0  0  0  0  0  0  0
   -5.3501    7.5182  -19.4478 H   0  0  0  0  0  0  0  0  0  0  0  0
  -10.7431    4.1511  -19.4288 H   0  0  0  0  0  0  0  0  0  0  0  0
   -8.4551    4.8473  -20.4817 H   0  0  0  0  0  0  0  0  0  0  0  0
   -7.0836    4.3159  -15.5077 H   0  0  0  0  0  0  0  0  0  0  0  0
   -7.8845    5.9043  -15.1979 H   0  0  0  0  0  0  0  0  0  0  0  0
   -6.2025    7.1179  -16.4451 H   0  0  0  0  0  0  0  0  0  0  0  0
   -5.3553    5.9203  -15.4408 H   0  0  0  0  0  0  0  0  0  0  0  0
  1  2  1  0
  2  3  1  0
  2  4  1  0
  1  5  1  0
  5  6  1  0
  5  7  1  0
  7  8  2  0
  8  9  1  0
  9 10  1  0
 10 11  2  0
  8 12  1  0
 12 13  1  0
 13  1  1  0
 11  7  1  0
  2 14  1  0
  3 15  1  0
  3 16  1  0
  3 17  1  0
  4 18  1  0
  4 19  1  0
  4 20  1  0
  5 21  1  0
  6 22  1  0
  6 23  1  0
  6 24  1  0
 10 25  1  0
 11 26  1  0
 12 27  1  0
 12 28  1  0
 13 29  1  0
 13 30  1  0
A    1
 N1 
A    2
 C1 
A    3
 C2 
A    4
 C3 
A    5
 C4 
A    6
 C5 
A    7
 C6 
A    8
 C7 
A    9
 S1 
A   10
 C8 
A   11
 C9 
A   12
 C10
A   13
 C11
A   14
 H1 
A   15
 H2 
A   16
 H3 
A   17
 H4 
A   18
 H5 
A   19
 H6 
A   20
 H7 
A   21
 H8 
A   22
 H9 
A   23
 H10
A   24
 H11
A   25
 H12
A   26
 H13
A   27
 H14
A   28
 H15
A   29
 H16
A   30
 H17
M  END
>  <ref_pdb>  (90) 
x0051_0B

>  <ref_mols>  (90) 
x0472_0B,x0386_0B

>  <original SMILES>  (90) 
[H]c1sc2c(c1[H])C([H])(C([H])([H])[H])N(C([H])(C([H])([H])[H])C([H])([H])[H])C([H])([H])C2([H])[H]

>  <index>  (90) 
78

>  <∆∆G>  (90) 
-7.778657

>  <∆G_bound>  (90) 
-8.103471

>  <∆G_unbound>  (90) 
-0.324814

>  <comRMSD>  (90) 
0.549593

>  <N_constrained_atoms>  (90) 
14.0

>  <N_unconstrained_atoms>  (90) 
0.0

>  <runtime>  (90) 
22.779081

>  <LE>  (90) 
0.555618

>  <percent_hybrid>  (90) 
13.0

>  <dist>  (90) 
2.0

>  <ecfp4>  (90) 
0.5

>  <daylight>  (90) 
0.770492

>  <topodist>  (90) 
1.0

>  <mces>  (90) 
14.0

>  <tdn>  (90) 
1.0

>  <tup>  (90) 
0.0

>  <rdn>  (90) 
0.0

>  <rup>  (90) 
0.0

>  <ldn>  (90) 
0.0

>  <lup>  (90) 
0.0

>  <mut>  (90) 
1.0

>  <maj>  (90) 
1.0

>  <min>  (90) 
0.0

>  <hyb>  (90) 
0.0

>  <sub>  (90) 
1.0

>  <query_index>  (90) 
75.0

>  <max_hit_Tanimoto>  (90) 
0.719493

>  <largest_ring>  (90) 
6

>  <N_interactions_kept>  (90) 
3.0

>  <N_interactions_lost>  (90) 
0.0

>  <interaction_uniqueness_metric>  (90) 
0.049434

>  <ad_hoc_penalty>  (90) 
-29.818201

>  <N_rotatable_bonds>  (90) 
4

>  <N_HA>  (90) 
13

>  <cluster>  (90) 
6146

>  <N_interactions>  (90) 
4

>  <Enamine>  (90) 
0

>  <Mcule>  (90) 
1

>  <N_PAINS>  (90) 
0

>  <UFF_Gibbs>  (90) 
84.363096

>  <strain_per_HA>  (90) 
6.025935

>  <saltbridge:HIS:51>  (90) 
0

>  <pistack:HIS:51>  (90) 
0

>  <hydroph_interaction:HIS:51>  (90) 
0

>  <hbond:ALA:132>  (90) 
0

>  <hbond:SER:135>  (90) 
0

>  <hydroph_interaction:TYR:150>  (90) 
0

>  <pistack:TYR:161>  (90) 
0

>  <hydroph_interaction:TYR:161>  (90) 
3

>  <hydroph_interaction:ASP:83>  (90) 
0

>  <hbond:TYR:130>  (90) 
0

>  <hydroph_interaction:ALA:132>  (90) 
0

>  <hbond:HIS:51>  (90) 
0

>  <hbond:ASP:129>  (90) 
0

>  <hbond:TYR:150>  (90) 
0

>  <hbond:GLY:151>  (90) 
0

>  <hbond:TYR:161>  (90) 
0

>  <hydroph_interaction:TYR:130>  (90) 
0

>  <hydroph_interaction:PRO:131>  (90) 
0

>  <hydroph_interaction:ASP:129>  (90) 
0

>  <saltbridge:ASP:75>  (90) 
0

>  <saltbridge:ASP:83>  (90) 
0

>  <hydroph_interaction:ASN:152>  (90) 
0

>  <halogenbond:TYR:150>  (90) 
0

>  <hbond:ASP:83>  (90) 
0

>  <hydroph_interaction:VAL:155>  (90) 
1

>  <pication:TYR:161>  (90) 
0

>  <hbond:PRO:131>  (90) 
0

>  <hbond:LEU:128>  (90) 
0

>  <saltbridge:ASP:129>  (90) 
0

>  <hbond:THR:134>  (90) 
0

>  <pication:HIS:51>  (90) 
0

>  <hbond:SER:81>  (90) 
0

>  <hbond:GLY:159>  (90) 
0

>  <hydroph_interaction:PRO:101>  (90) 
0

>  <hydroph_interaction:THR:134>  (90) 
0

>  <hbond:GLY:82>  (90) 
0

>  <hydroph_interaction:GLU:104>  (90) 
0

>  <hydroph_interaction:VAL:36>  (90) 
0

>  <hydroph_interaction:MET:49>  (90) 
0

>  <halogenbond:GLU:104>  (90) 
0

>  <hydroph_interaction:LYS:107>  (90) 
0

$$$$
MCULE-9198712822
     RDKit          3D

 34 35  0  0  0  0  0  0  0  0999 V2000
   -2.4997    4.1198  -16.3940 C   0  0  0  0  0  0  0  0  0  0  0  0
   -3.0676    5.4889  -16.7905 C   0  0  0  0  0  0  0  0  0  0  0  0
   -4.1491    5.2997  -17.8392 C   0  0  0  0  0  0  0  0  0  0  0  0
   -5.5635    5.2889  -17.5108 N   0  0  0  0  0  0  0  0  0  0  0  0
   -6.5400    5.2483  -18.6300 C   0  0  0  0  0  0  0  0  0  0  0  0
   -6.7200    3.8085  -19.1216 C   0  0  0  0  0  0  0  0  0  0  0  0
   -7.8668    5.8161  -18.2159 C   0  0  0  0  0  0  0  0  0  0  0  0
   -8.8213    6.3762  -19.0751 C   0  0  0  0  0  0  0  0  0  0  0  0
   -9.9998    6.7273  -18.4233 C   0  0  0  0  0  0  0  0  0  0  0  0
   -9.8571    6.3203  -16.7918 S   0  0  0  0  0  0  0  0  0  0  0  0
   -8.2906    5.7289  -16.9121 C   0  0  0  0  0  0  0  0  0  0  0  0
   -7.4821    5.0617  -15.8623 C   0  0  0  0  0  0  0  0  0  0  0  0
   -5.9902    5.3613  -16.0889 C   0  0  0  0  0  0  0  0  0  0  0  0
   -3.7887    5.1016  -19.0334 O   0  0  0  0  0  0  0  0  0  0  0  0
   -1.9647    6.4317  -17.3152 C   0  0  0  0  0  0  0  0  0  0  0  0
   -1.0467    6.8105  -16.2427 N   0  0  0  0  0  0  0  0  0  0  0  0
   -3.3191    3.4394  -16.0785 H   0  0  0  0  0  0  0  0  0  0  0  0
   -1.9629    3.6545  -17.2486 H   0  0  0  0  0  0  0  0  0  0  0  0
   -1.7995    4.2211  -15.5388 H   0  0  0  0  0  0  0  0  0  0  0  0
   -3.4895    5.9671  -15.8834 H   0  0  0  0  0  0  0  0  0  0  0  0
   -6.1650    5.8714  -19.4724 H   0  0  0  0  0  0  0  0  0  0  0  0
   -7.4399    3.7787  -19.9674 H   0  0  0  0  0  0  0  0  0  0  0  0
   -7.0996    3.1616  -18.3023 H   0  0  0  0  0  0  0  0  0  0  0  0
   -5.7528    3.3969  -19.4772 H   0  0  0  0  0  0  0  0  0  0  0  0
   -8.6689    6.5049  -20.1386 H   0  0  0  0  0  0  0  0  0  0  0  0
  -10.8704    7.1654  -18.8919 H   0  0  0  0  0  0  0  0  0  0  0  0
   -7.7906    5.4203  -14.8571 H   0  0  0  0  0  0  0  0  0  0  0  0
   -7.6573    3.9660  -15.9179 H   0  0  0  0  0  0  0  0  0  0  0  0
   -5.7761    6.3819  -15.7036 H   0  0  0  0  0  0  0  0  0  0  0  0
   -5.4119    4.6301  -15.4849 H   0  0  0  0  0  0  0  0  0  0  0  0
   -1.3999    5.9547  -18.1484 H   0  0  0  0  0  0  0  0  0  0  0  0
   -2.4443    7.3538  -17.7143 H   0  0  0  0  0  0  0  0  0  0  0  0
   -0.4816    7.6237  -16.5789 H   0  0  0  0  0  0  0  0  0  0  0  0
   -0.3676    6.0287  -16.0981 H   0  0  0  0  0  0  0  0  0  0  0  0
  1  2  1  0
  2  3  1  0
  3  4  1  0
  4  5  1  0
  5  6  1  0
  5  7  1  0
  7  8  1  0
  8  9  2  0
  9 10  1  0
 10 11  1  0
 11 12  1  0
 12 13  1  0
  3 14  2  0
  2 15  1  0
 15 16  1  0
 13  4  1  0
  7 11  2  0
  1 17  1  0
  1 18  1  0
  1 19  1  0
  2 20  1  0
  5 21  1  0
  6 22  1  0
  6 23  1  0
  6 24  1  0
  8 25  1  0
  9 26  1  0
 12 27  1  0
 12 28  1  0
 13 29  1  0
 13 30  1  0
 15 31  1  0
 15 32  1  0
 16 33  1  0
 16 34  1  0
A    1
 C1 
A    2
 C2 
A    3
 C3 
A    4
 N1 
A    5
 C4 
A    6
 C5 
A    7
 C6 
A    8
 C7 
A    9
 C8 
A   10
 S1 
A   11
 C9 
A   12
 C10
A   13
 C11
A   14
 O1 
A   15
 C12
A   16
 N2 
A   17
 H1 
A   18
 H2 
A   19
 H3 
A   20
 H4 
A   21
 H5 
A   22
 H6 
A   23
 H7 
A   24
 H8 
A   25
 H9 
A   26
 H10
A   27
 H11
A   28
 H12
A   29
 H13
A   30
 H14
A   31
 H15
A   32
 H16
A   33
 H17
A   34
 H18
M  END
>  <ref_pdb>  (91) 
x0051_0B

>  <ref_mols>  (91) 
x0472_0B,x0386_0B

>  <original SMILES>  (91) 
[H]c1sc2c(c1[H])C([H])(C([H])([H])[H])N(C(=O)C([H])(C([H])([H])[H])C([H])([H])N([H])[H])C([H])([H])C2([H])[H]

>  <index>  (91) 
37

>  <∆∆G>  (91) 
-8.4967

>  <∆G_bound>  (91) 
-8.369638

>  <∆G_unbound>  (91) 
0.127062

>  <comRMSD>  (91) 
0.430801

>  <N_constrained_atoms>  (91) 
14.0

>  <N_unconstrained_atoms>  (91) 
2.0

>  <runtime>  (91) 
28.112936

>  <LE>  (91) 
0.531044

>  <percent_hybrid>  (91) 
13.0

>  <dist>  (91) 
3.0

>  <ecfp4>  (91) 
0.461538

>  <daylight>  (91) 
0.639456

>  <topodist>  (91) 
2.0

>  <mces>  (91) 
15.0

>  <tdn>  (91) 
0.0

>  <tup>  (91) 
1.0

>  <rdn>  (91) 
0.0

>  <rup>  (91) 
0.0

>  <ldn>  (91) 
0.0

>  <lup>  (91) 
1.0

>  <mut>  (91) 
1.0

>  <maj>  (91) 
1.0

>  <min>  (91) 
0.0

>  <hyb>  (91) 
0.0

>  <sub>  (91) 
0.0

>  <query_index>  (91) 
75.0

>  <max_hit_Tanimoto>  (91) 
0.56407

>  <largest_ring>  (91) 
6

>  <N_interactions_kept>  (91) 
3.0

>  <N_interactions_lost>  (91) 
0.0

>  <interaction_uniqueness_metric>  (91) 
0.071408

>  <ad_hoc_penalty>  (91) 
-29.689937

>  <N_rotatable_bonds>  (91) 
5

>  <N_HA>  (91) 
16

>  <cluster>  (91) 
6182

>  <N_interactions>  (91) 
5

>  <Enamine>  (91) 
0

>  <Mcule>  (91) 
1

>  <N_PAINS>  (91) 
0

>  <UFF_Gibbs>  (91) 
153.478188

>  <strain_per_HA>  (91) 
9.592387

>  <saltbridge:HIS:51>  (91) 
0

>  <pistack:HIS:51>  (91) 
0

>  <hydroph_interaction:HIS:51>  (91) 
0

>  <hbond:ALA:132>  (91) 
0

>  <hbond:SER:135>  (91) 
0

>  <hydroph_interaction:TYR:150>  (91) 
0

>  <pistack:TYR:161>  (91) 
0

>  <hydroph_interaction:TYR:161>  (91) 
3

>  <hydroph_interaction:ASP:83>  (91) 
0

>  <hbond:TYR:130>  (91) 
0

>  <hydroph_interaction:ALA:132>  (91) 
1

>  <hbond:HIS:51>  (91) 
0

>  <hbond:ASP:129>  (91) 
0

>  <hbond:TYR:150>  (91) 
0

>  <hbond:GLY:151>  (91) 
0

>  <hbond:TYR:161>  (91) 
0

>  <hydroph_interaction:TYR:130>  (91) 
0

>  <hydroph_interaction:PRO:131>  (91) 
0

>  <hydroph_interaction:ASP:129>  (91) 
0

>  <saltbridge:ASP:75>  (91) 
0

>  <saltbridge:ASP:83>  (91) 
0

>  <hydroph_interaction:ASN:152>  (91) 
0

>  <halogenbond:TYR:150>  (91) 
0

>  <hbond:ASP:83>  (91) 
0

>  <hydroph_interaction:VAL:155>  (91) 
1

>  <pication:TYR:161>  (91) 
0

>  <hbond:PRO:131>  (91) 
0

>  <hbond:LEU:128>  (91) 
0

>  <saltbridge:ASP:129>  (91) 
0

>  <hbond:THR:134>  (91) 
0

>  <pication:HIS:51>  (91) 
0

>  <hbond:SER:81>  (91) 
0

>  <hbond:GLY:159>  (91) 
0

>  <hydroph_interaction:PRO:101>  (91) 
0

>  <hydroph_interaction:THR:134>  (91) 
0

>  <hbond:GLY:82>  (91) 
0

>  <hydroph_interaction:GLU:104>  (91) 
0

>  <hydroph_interaction:VAL:36>  (91) 
0

>  <hydroph_interaction:MET:49>  (91) 
0

>  <halogenbond:GLU:104>  (91) 
0

>  <hydroph_interaction:LYS:107>  (91) 
0

$$$$
AWBDERPDCJVSKA-UHFFFAOYSA-N
     RDKit          3D

 43 46  0  0  0  0  0  0  0  0999 V2000
   -8.3222    5.6630  -12.7316 O   0  0  0  0  0  0  0  0  0  0  0  0
   -8.3392    5.8286  -14.1232 C   0  0  0  0  0  0  0  0  0  0  0  0
   -9.1311    6.6799  -14.6103 O   0  0  0  0  0  0  0  0  0  0  0  0
   -7.4077    5.0642  -15.0454 C   0  0  0  0  0  0  0  0  0  0  0  0
   -8.1020    4.7402  -16.3578 C   0  0  0  0  0  0  0  0  0  0  0  0
   -7.7976    5.4341  -17.5555 C   0  0  0  0  0  0  0  0  0  0  0  0
   -8.5031    5.1254  -18.7308 C   0  0  0  0  0  0  0  0  0  0  0  0
   -9.5190    4.1666  -18.7182 C   0  0  0  0  0  0  0  0  0  0  0  0
   -9.8317    3.4952  -17.5367 C   0  0  0  0  0  0  0  0  0  0  0  0
   -9.1287    3.7784  -16.3635 C   0  0  0  0  0  0  0  0  0  0  0  0
   -6.6545    6.4172  -17.6324 C   0  0  0  0  0  0  0  0  0  0  0  0
   -6.2620    6.9747  -16.2628 C   0  0  0  0  0  0  0  0  0  0  0  0
   -6.0915    5.8392  -15.2518 C   0  0  0  0  0  0  0  0  0  0  0  0
   -7.4643    4.7668  -12.0354 C   0  0  0  0  0  0  0  0  0  0  0  0
   -7.6959    4.9112  -10.5682 C   0  0  0  0  0  0  0  0  0  0  0  0
   -8.6137    4.2487   -9.7904 C   0  0  0  0  0  0  0  0  0  0  0  0
   -8.5914    4.7541   -8.5533 N   0  0  0  0  0  0  0  0  0  0  0  0
   -9.4290    4.2686   -7.4605 C   0  0  0  0  0  0  0  0  0  0  0  0
  -10.6648    3.5390   -8.0289 C   0  0  0  0  0  0  0  0  0  0  0  0
  -10.2655    2.5682   -9.1608 C   0  0  0  0  0  0  0  0  0  0  0  0
   -9.4945    3.2355  -10.1646 O   0  0  0  0  0  0  0  0  0  0  0  0
   -7.6924    5.7229   -8.4784 N   0  0  0  0  0  0  0  0  0  0  0  0
   -7.1362    5.8457   -9.7069 C   0  0  0  0  0  0  0  0  0  0  0  0
   -7.1436    4.0950  -14.5725 H   0  0  0  0  0  0  0  0  0  0  0  0
   -8.2625    5.6264  -19.6604 H   0  0  0  0  0  0  0  0  0  0  0  0
  -10.0614    3.9409  -19.6278 H   0  0  0  0  0  0  0  0  0  0  0  0
  -10.6217    2.7561  -17.5293 H   0  0  0  0  0  0  0  0  0  0  0  0
   -9.3894    3.2540  -15.4527 H   0  0  0  0  0  0  0  0  0  0  0  0
   -6.9289    7.2664  -18.2956 H   0  0  0  0  0  0  0  0  0  0  0  0
   -5.7780    5.9022  -18.0809 H   0  0  0  0  0  0  0  0  0  0  0  0
   -5.3039    7.5313  -16.3558 H   0  0  0  0  0  0  0  0  0  0  0  0
   -7.0351    7.6910  -15.9110 H   0  0  0  0  0  0  0  0  0  0  0  0
   -5.7302    6.2561  -14.2863 H   0  0  0  0  0  0  0  0  0  0  0  0
   -5.3084    5.1398  -15.6196 H   0  0  0  0  0  0  0  0  0  0  0  0
   -6.4035    5.0006  -12.2627 H   0  0  0  0  0  0  0  0  0  0  0  0
   -7.6820    3.7207  -12.3382 H   0  0  0  0  0  0  0  0  0  0  0  0
   -8.8371    3.5659   -6.8343 H   0  0  0  0  0  0  0  0  0  0  0  0
   -9.7559    5.1216   -6.8277 H   0  0  0  0  0  0  0  0  0  0  0  0
  -11.1753    2.9800   -7.2168 H   0  0  0  0  0  0  0  0  0  0  0  0
  -11.3758    4.2905   -8.4350 H   0  0  0  0  0  0  0  0  0  0  0  0
   -9.6614    1.7388   -8.7331 H   0  0  0  0  0  0  0  0  0  0  0  0
  -11.1749    2.1329   -9.6261 H   0  0  0  0  0  0  0  0  0  0  0  0
   -6.3830    6.5793   -9.9627 H   0  0  0  0  0  0  0  0  0  0  0  0
  1  2  1  0
  2  3  2  0
  2  4  1  0
  4  5  1  0
  5  6  1  0
  6  7  2  0
  7  8  1  0
  8  9  2  0
  9 10  1  0
  6 11  1  0
 11 12  1  0
 12 13  1  0
  1 14  1  0
 14 15  1  0
 15 16  2  0
 16 17  1  0
 17 18  1  0
 18 19  1  0
 19 20  1  0
 20 21  1  0
 17 22  1  0
 22 23  2  0
 13  4  1  0
 10  5  2  0
 23 15  1  0
 21 16  1  0
  4 24  1  0
  7 25  1  0
  8 26  1  0
  9 27  1  0
 10 28  1  0
 11 29  1  0
 11 30  1  0
 12 31  1  0
 12 32  1  0
 13 33  1  0
 13 34  1  0
 14 35  1  0
 14 36  1  0
 18 37  1  0
 18 38  1  0
 19 39  1  0
 19 40  1  0
 20 41  1  0
 20 42  1  0
 23 43  1  0
A    1
 O1 
A    2
 C1 
A    3
 O2 
A    4
 C2 
A    5
 C3 
A    6
 C4 
A    7
 C5 
A    8
 C6 
A    9
 C7 
A   10
 C8 
A   11
 C9 
A   12
 C10
A   13
 C11
A   14
 C12
A   15
 C13
A   16
 C14
A   17
 N1 
A   18
 C15
A   19
 C16
A   20
 C17
A   21
 O3 
A   22
 N2 
A   23
 C18
A   24
 H1 
A   25
 H2 
A   26
 H3 
A   27
 H4 
A   28
 H5 
A   29
 H6 
A   30
 H7 
A   31
 H8 
A   32
 H9 
A   33
 H10
A   34
 H11
A   35
 H12
A   36
 H13
A   37
 H14
A   38
 H15
A   39
 H16
A   40
 H17
A   41
 H18
A   42
 H19
A   43
 H20
M  END
>  <ref_pdb>  (92) 
x0051_0B

>  <ref_mols>  (92) 
x0969_1B,x0455_0B

>  <original SMILES>  (92) 
[H]c1nn2c(c1C([H])([H])OC(=O)C1([H])c3c([H])c([H])c([H])c([H])c3C([H])([H])C([H])([H])C1([H])[H])OC([H])([H])C([H])([H])C2([H])[H]

>  <index>  (92) 
127

>  <∆∆G>  (92) 
-7.417422

>  <∆G_bound>  (92) 
-6.780605

>  <∆G_unbound>  (92) 
0.636818

>  <comRMSD>  (92) 
0.340014

>  <N_constrained_atoms>  (92) 
20.0

>  <N_unconstrained_atoms>  (92) 
3.0

>  <runtime>  (92) 
61.329285

>  <LE>  (92) 
0.322497

>  <percent_hybrid>  (92) 
50.0

>  <dist>  (92) 
6.0

>  <ecfp4>  (92) 
0.253012

>  <daylight>  (92) 
0.319209

>  <topodist>  (92) 
1.0

>  <mces>  (92) 
25.0

>  <tdn>  (92) 
0.0

>  <tup>  (92) 
1.0

>  <rdn>  (92) 
0.0

>  <rup>  (92) 
0.0

>  <ldn>  (92) 
0.0

>  <lup>  (92) 
0.0

>  <mut>  (92) 
4.0

>  <maj>  (92) 
4.0

>  <min>  (92) 
0.0

>  <hyb>  (92) 
1.0

>  <sub>  (92) 
0.0

>  <query_index>  (92) 
204.0

>  <max_hit_Tanimoto>  (92) 
0.241935

>  <largest_ring>  (92) 
6

>  <N_interactions_kept>  (92) 
1.0

>  <N_interactions_lost>  (92) 
1.5

>  <interaction_uniqueness_metric>  (92) 
0.182959

>  <ad_hoc_penalty>  (92) 
-29.653219

>  <N_rotatable_bonds>  (92) 
3

>  <N_HA>  (92) 
23

>  <cluster>  (92) 
6101

>  <N_interactions>  (92) 
6

>  <Enamine>  (92) 
0

>  <Mcule>  (92) 
1

>  <N_PAINS>  (92) 
0

>  <UFF_Gibbs>  (92) 
115.003761

>  <strain_per_HA>  (92) 
5.000164

>  <saltbridge:HIS:51>  (92) 
1

>  <pistack:HIS:51>  (92) 
1

>  <hydroph_interaction:HIS:51>  (92) 
1

>  <hbond:ALA:132>  (92) 
0

>  <hbond:SER:135>  (92) 
0

>  <hydroph_interaction:TYR:150>  (92) 
1

>  <pistack:TYR:161>  (92) 
0

>  <hydroph_interaction:TYR:161>  (92) 
2

>  <hydroph_interaction:ASP:83>  (92) 
0

>  <hbond:TYR:130>  (92) 
0

>  <hydroph_interaction:ALA:132>  (92) 
0

>  <hbond:HIS:51>  (92) 
0

>  <hbond:ASP:129>  (92) 
0

>  <hbond:TYR:150>  (92) 
0

>  <hbond:GLY:151>  (92) 
0

>  <hbond:TYR:161>  (92) 
0

>  <hydroph_interaction:TYR:130>  (92) 
0

>  <hydroph_interaction:PRO:131>  (92) 
0

>  <hydroph_interaction:ASP:129>  (92) 
0

>  <saltbridge:ASP:75>  (92) 
0

>  <saltbridge:ASP:83>  (92) 
0

>  <hydroph_interaction:ASN:152>  (92) 
0

>  <halogenbond:TYR:150>  (92) 
0

>  <hbond:ASP:83>  (92) 
0

>  <hydroph_interaction:VAL:155>  (92) 
0

>  <pication:TYR:161>  (92) 
0

>  <hbond:PRO:131>  (92) 
0

>  <hbond:LEU:128>  (92) 
0

>  <saltbridge:ASP:129>  (92) 
0

>  <hbond:THR:134>  (92) 
0

>  <pication:HIS:51>  (92) 
0

>  <hbond:SER:81>  (92) 
0

>  <hbond:GLY:159>  (92) 
0

>  <hydroph_interaction:PRO:101>  (92) 
0

>  <hydroph_interaction:THR:134>  (92) 
0

>  <hbond:GLY:82>  (92) 
0

>  <hydroph_interaction:GLU:104>  (92) 
0

>  <hydroph_interaction:VAL:36>  (92) 
0

>  <hydroph_interaction:MET:49>  (92) 
0

>  <halogenbond:GLU:104>  (92) 
0

>  <hydroph_interaction:LYS:107>  (92) 
0

$$$$
MCULE-4267446163
     RDKit          3D

 25 27  0  0  0  0  0  0  0  0999 V2000
   -5.3495    5.0062  -17.9772 C   0  0  0  0  0  0  0  0  0  0  0  0
   -4.2767    5.6148  -18.5940 C   0  0  0  0  0  0  0  0  0  0  0  0
   -4.4983    5.6135  -19.9298 N   0  0  0  0  0  0  0  0  0  0  0  0
   -5.6726    5.0350  -20.1569 N   0  0  0  0  0  0  0  0  0  0  0  0
   -6.3554    5.0884  -21.4427 C   0  0  0  0  0  0  0  0  0  0  0  0
   -6.2047    4.6630  -18.9772 C   0  0  0  0  0  0  0  0  0  0  0  0
   -7.5806    4.8056  -18.4930 C   0  0  0  0  0  0  0  0  0  0  0  0
   -7.5335    5.2280  -17.1678 C   0  0  0  0  0  0  0  0  0  0  0  0
   -8.7106    5.4745  -16.4437 C   0  0  0  0  0  0  0  0  0  0  0  0
   -9.9409    5.2759  -17.1035 C   0  0  0  0  0  0  0  0  0  0  0  0
   -9.9792    4.8491  -18.4456 C   0  0  0  0  0  0  0  0  0  0  0  0
   -8.7919    4.6132  -19.1542 C   0  0  0  0  0  0  0  0  0  0  0  0
   -8.6757    6.0272  -14.7691 S   0  0  0  0  0  6  0  0  0  0  0  0
   -7.9423    7.9570  -14.6911 Cl  0  0  0  0  0  0  0  0  0  0  0  0
   -7.8085    5.1129  -13.9507 O   0  0  0  0  0  0  0  0  0  0  0  0
  -10.0635    6.0181  -14.1921 O   0  0  0  0  0  0  0  0  0  0  0  0
   -6.1180    5.3972  -16.8042 C   0  0  0  0  0  0  0  0  0  0  0  0
   -5.6540    5.8813  -15.7392 O   0  0  0  0  0  0  0  0  0  0  0  0
   -3.4838    6.1691  -18.1102 H   0  0  0  0  0  0  0  0  0  0  0  0
   -7.0871    5.9235  -21.4440 H   0  0  0  0  0  0  0  0  0  0  0  0
   -5.6186    5.2507  -22.2575 H   0  0  0  0  0  0  0  0  0  0  0  0
   -6.8811    4.1291  -21.6313 H   0  0  0  0  0  0  0  0  0  0  0  0
  -10.8743    5.4554  -16.5865 H   0  0  0  0  0  0  0  0  0  0  0  0
  -10.9333    4.7040  -18.9355 H   0  0  0  0  0  0  0  0  0  0  0  0
   -8.8251    4.2833  -20.1830 H   0  0  0  0  0  0  0  0  0  0  0  0
  1  2  1  0
  2  3  2  0
  3  4  1  0
  4  5  1  0
  4  6  1  0
  6  7  1  0
  7  8  2  0
  8  9  1  0
  9 10  2  0
 10 11  1  0
 11 12  2  0
  9 13  1  0
 13 14  1  0
 13 15  2  0
 13 16  2  0
  8 17  1  0
 17 18  2  0
  1  6  2  0
 17  1  1  0
 12  7  1  0
  2 19  1  0
  5 20  1  0
  5 21  1  0
  5 22  1  0
 10 23  1  0
 11 24  1  0
 12 25  1  0
A    1
 C1 
A    2
 C2 
A    3
 N1 
A    4
 N2 
A    5
 C3 
A    6
 C4 
A    7
 C5 
A    8
 C6 
A    9
 C7 
A   10
 C8 
A   11
 C9 
A   12
 C10
A   13
 S1 
A   14
CL1 
A   15
 O1 
A   16
 O2 
A   17
 C11
A   18
 O3 
A   19
 H1 
A   20
 H2 
A   21
 H3 
A   22
 H4 
A   23
 H5 
A   24
 H6 
A   25
 H7 
M  END
>  <ref_pdb>  (93) 
x0051_0B

>  <ref_mols>  (93) 
x1098_0B,x0386_0B

>  <original SMILES>  (93) 
[H]c1nn(C([H])([H])[H])c2c1C(=O)c1c-2c([H])c([H])c([H])c1S(=O)(=O)Cl

>  <index>  (93) 
133

>  <∆∆G>  (93) 
-7.310572

>  <∆G_bound>  (93) 
-6.032371

>  <∆G_unbound>  (93) 
1.278201

>  <comRMSD>  (93) 
0.774214

>  <N_constrained_atoms>  (93) 
14.0

>  <N_unconstrained_atoms>  (93) 
4.0

>  <runtime>  (93) 
37.684619

>  <LE>  (93) 
0.406143

>  <percent_hybrid>  (93) 
13.0

>  <dist>  (93) 
7.0

>  <ecfp4>  (93) 
0.213333

>  <daylight>  (93) 
0.175439

>  <topodist>  (93) 
3.0

>  <mces>  (93) 
19.0

>  <tdn>  (93) 
1.0

>  <tup>  (93) 
0.0

>  <rdn>  (93) 
0.0

>  <rup>  (93) 
1.0

>  <ldn>  (93) 
1.0

>  <lup>  (93) 
0.0

>  <mut>  (93) 
3.0

>  <maj>  (93) 
2.0

>  <min>  (93) 
1.0

>  <hyb>  (93) 
1.0

>  <sub>  (93) 
2.0

>  <query_index>  (93) 
61.0

>  <max_hit_Tanimoto>  (93) 
0.262663

>  <largest_ring>  (93) 
6

>  <N_interactions_kept>  (93) 
4.5

>  <N_interactions_lost>  (93) 
0.5

>  <interaction_uniqueness_metric>  (93) 
0.055993

>  <ad_hoc_penalty>  (93) 
-29.585781

>  <N_rotatable_bonds>  (93) 
2

>  <N_HA>  (93) 
18

>  <cluster>  (93) 
6095

>  <N_interactions>  (93) 
4

>  <Enamine>  (93) 
0

>  <Mcule>  (93) 
1

>  <N_PAINS>  (93) 
0

>  <UFF_Gibbs>  (93) 
63.512384

>  <strain_per_HA>  (93) 
3.528466

>  <saltbridge:HIS:51>  (93) 
0

>  <pistack:HIS:51>  (93) 
0

>  <hydroph_interaction:HIS:51>  (93) 
0

>  <hbond:ALA:132>  (93) 
0

>  <hbond:SER:135>  (93) 
0

>  <hydroph_interaction:TYR:150>  (93) 
1

>  <pistack:TYR:161>  (93) 
2

>  <hydroph_interaction:TYR:161>  (93) 
0

>  <hydroph_interaction:ASP:83>  (93) 
0

>  <hbond:TYR:130>  (93) 
0

>  <hydroph_interaction:ALA:132>  (93) 
1

>  <hbond:HIS:51>  (93) 
0

>  <hbond:ASP:129>  (93) 
0

>  <hbond:TYR:150>  (93) 
0

>  <hbond:GLY:151>  (93) 
0

>  <hbond:TYR:161>  (93) 
0

>  <hydroph_interaction:TYR:130>  (93) 
0

>  <hydroph_interaction:PRO:131>  (93) 
0

>  <hydroph_interaction:ASP:129>  (93) 
0

>  <saltbridge:ASP:75>  (93) 
0

>  <saltbridge:ASP:83>  (93) 
0

>  <hydroph_interaction:ASN:152>  (93) 
0

>  <halogenbond:TYR:150>  (93) 
0

>  <hbond:ASP:83>  (93) 
0

>  <hydroph_interaction:VAL:155>  (93) 
0

>  <pication:TYR:161>  (93) 
0

>  <hbond:PRO:131>  (93) 
0

>  <hbond:LEU:128>  (93) 
0

>  <saltbridge:ASP:129>  (93) 
0

>  <hbond:THR:134>  (93) 
0

>  <pication:HIS:51>  (93) 
0

>  <hbond:SER:81>  (93) 
0

>  <hbond:GLY:159>  (93) 
0

>  <hydroph_interaction:PRO:101>  (93) 
0

>  <hydroph_interaction:THR:134>  (93) 
0

>  <hbond:GLY:82>  (93) 
0

>  <hydroph_interaction:GLU:104>  (93) 
0

>  <hydroph_interaction:VAL:36>  (93) 
0

>  <hydroph_interaction:MET:49>  (93) 
0

>  <halogenbond:GLU:104>  (93) 
0

>  <hydroph_interaction:LYS:107>  (93) 
0

$$$$
LKKQXQQTFARGTR-UHFFFAOYSA-N
     RDKit          3D

 52 56  0  0  0  0  0  0  0  0999 V2000
   -4.9439    6.1887  -20.1701 C   0  0  0  0  0  0  0  0  0  0  0  0
   -5.0334    6.8041  -18.8692 N   0  0  0  0  0  0  0  0  0  0  0  0
   -6.3312    7.1973  -18.3096 C   0  0  0  0  0  0  0  0  0  0  0  0
   -6.6213    6.4343  -17.0393 C   0  0  0  0  0  0  0  0  0  0  0  0
   -7.9231    6.4558  -16.5154 C   0  0  0  0  0  0  0  0  0  0  0  0
   -8.2216    5.7936  -15.3166 C   0  0  0  0  0  0  0  0  0  0  0  0
   -9.6146    5.8431  -14.7609 C   0  0  0  0  0  0  0  0  0  0  0  0
   -7.1968    5.1450  -14.6122 C   0  0  0  0  0  0  0  0  0  0  0  0
   -5.8949    5.1254  -15.1180 C   0  0  0  0  0  0  0  0  0  0  0  0
   -5.5899    5.7758  -16.3237 C   0  0  0  0  0  0  0  0  0  0  0  0
   -4.1936    5.6546  -16.8897 C   0  0  0  0  0  0  0  0  0  0  0  0
   -3.9081    6.7315  -17.9355 C   0  0  0  0  0  0  0  0  0  0  0  0
   -4.1967    5.1844  -20.3297 O   0  0  0  0  0  0  0  0  0  0  0  0
   -5.7058    6.7144  -21.3295 C   0  0  0  0  0  0  0  0  0  0  0  0
   -6.0481    5.8628  -22.3942 C   0  0  0  0  0  0  0  0  0  0  0  0
   -6.7688    6.3501  -23.4885 C   0  0  0  0  0  0  0  0  0  0  0  0
   -7.1673    7.6937  -23.5319 C   0  0  0  0  0  0  0  0  0  0  0  0
   -7.9204    8.2187  -24.7192 C   0  0  0  0  0  0  0  0  0  0  0  0
   -6.7403    8.8069  -25.9754 S   0  0  0  0  0  0  0  0  0  0  0  0
   -8.0135    9.0742  -27.2055 C   0  0  0  0  0  0  0  0  0  0  0  0
   -8.8220   10.5448  -27.4341 S   0  0  0  0  0  0  0  0  0  0  0  0
   -9.7368    9.9170  -28.6946 C   0  0  0  0  0  0  0  0  0  0  0  0
   -9.3864    8.5891  -28.8973 C   0  0  0  0  0  0  0  0  0  0  0  0
  -10.0050    7.8396  -29.9012 C   0  0  0  0  0  0  0  0  0  0  0  0
  -10.9847    8.4590  -30.6967 C   0  0  0  0  0  0  0  0  0  0  0  0
  -11.3367    9.8084  -30.4803 C   0  0  0  0  0  0  0  0  0  0  0  0
  -10.7063   10.5525  -29.4690 C   0  0  0  0  0  0  0  0  0  0  0  0
   -8.4235    8.1119  -28.0683 N   0  0  0  0  0  0  0  0  0  0  0  0
   -6.7974    8.5549  -22.4880 C   0  0  0  0  0  0  0  0  0  0  0  0
   -6.0687    8.0712  -21.3986 C   0  0  0  0  0  0  0  0  0  0  0  0
   -6.3069    8.2823  -18.0714 H   0  0  0  0  0  0  0  0  0  0  0  0
   -7.1512    7.0194  -19.0391 H   0  0  0  0  0  0  0  0  0  0  0  0
   -8.7066    6.9864  -17.0453 H   0  0  0  0  0  0  0  0  0  0  0  0
   -9.7914    5.0056  -14.0546 H   0  0  0  0  0  0  0  0  0  0  0  0
   -9.7669    6.8048  -14.2291 H   0  0  0  0  0  0  0  0  0  0  0  0
  -10.3595    5.7619  -15.5811 H   0  0  0  0  0  0  0  0  0  0  0  0
   -7.4062    4.6460  -13.6737 H   0  0  0  0  0  0  0  0  0  0  0  0
   -5.1227    4.5990  -14.5700 H   0  0  0  0  0  0  0  0  0  0  0  0
   -3.4402    5.7315  -16.0764 H   0  0  0  0  0  0  0  0  0  0  0  0
   -4.0923    4.6560  -17.3646 H   0  0  0  0  0  0  0  0  0  0  0  0
   -3.7852    7.7145  -17.4309 H   0  0  0  0  0  0  0  0  0  0  0  0
   -2.9577    6.5065  -18.4677 H   0  0  0  0  0  0  0  0  0  0  0  0
   -5.7674    4.8170  -22.3758 H   0  0  0  0  0  0  0  0  0  0  0  0
   -7.0230    5.6764  -24.2971 H   0  0  0  0  0  0  0  0  0  0  0  0
   -8.5650    7.4179  -25.1460 H   0  0  0  0  0  0  0  0  0  0  0  0
   -8.5807    9.0589  -24.4139 H   0  0  0  0  0  0  0  0  0  0  0  0
   -9.7327    6.8039  -30.0680 H   0  0  0  0  0  0  0  0  0  0  0  0
  -11.4747    7.8943  -31.4798 H   0  0  0  0  0  0  0  0  0  0  0  0
  -12.0951   10.2731  -31.0984 H   0  0  0  0  0  0  0  0  0  0  0  0
  -10.9671   11.5906  -29.2963 H   0  0  0  0  0  0  0  0  0  0  0  0
   -7.0686    9.6025  -22.5219 H   0  0  0  0  0  0  0  0  0  0  0  0
   -5.7828    8.7590  -20.6130 H   0  0  0  0  0  0  0  0  0  0  0  0
  1  2  1  0
  2  3  1  0
  3  4  1  0
  4  5  2  0
  5  6  1  0
  6  7  1  0
  6  8  2  0
  8  9  1  0
  9 10  2  0
 10 11  1  0
 11 12  1  0
  1 13  2  0
  1 14  1  0
 14 15  2  0
 15 16  1  0
 16 17  2  0
 17 18  1  0
 18 19  1  0
 19 20  1  0
 20 21  1  0
 21 22  1  0
 22 23  2  0
 23 24  1  0
 24 25  2  0
 25 26  1  0
 26 27  2  0
 23 28  1  0
 17 29  1  0
 29 30  2  0
 12  2  1  0
 10  4  1  0
 30 14  1  0
 20 28  2  0
 27 22  1  0
  3 31  1  0
  3 32  1  0
  5 33  1  0
  7 34  1  0
  7 35  1  0
  7 36  1  0
  8 37  1  0
  9 38  1  0
 11 39  1  0
 11 40  1  0
 12 41  1  0
 12 42  1  0
 15 43  1  0
 16 44  1  0
 18 45  1  0
 18 46  1  0
 24 47  1  0
 25 48  1  0
 26 49  1  0
 27 50  1  0
 29 51  1  0
 30 52  1  0
A    1
 C1 
A    2
 N1 
A    3
 C2 
A    4
 C3 
A    5
 C4 
A    6
 C5 
A    7
 C6 
A    8
 C7 
A    9
 C8 
A   10
 C9 
A   11
 C10
A   12
 C11
A   13
 O1 
A   14
 C12
A   15
 C13
A   16
 C14
A   17
 C15
A   18
 C16
A   19
 S1 
A   20
 C17
A   21
 S2 
A   22
 C18
A   23
 C19
A   24
 C20
A   25
 C21
A   26
 C22
A   27
 C23
A   28
 N2 
A   29
 C24
A   30
 C25
A   31
 H1 
A   32
 H2 
A   33
 H3 
A   34
 H4 
A   35
 H5 
A   36
 H6 
A   37
 H7 
A   38
 H8 
A   39
 H9 
A   40
 H10
A   41
 H11
A   42
 H12
A   43
 H13
A   44
 H14
A   45
 H15
A   46
 H16
A   47
 H17
A   48
 H18
A   49
 H19
A   50
 H20
A   51
 H21
A   52
 H22
M  END
>  <ref_pdb>  (94) 
x0051_0B

>  <ref_mols>  (94) 
x0846_1B,x0969_0B

>  <original SMILES>  (94) 
[H]c1c([H])c(C([H])([H])Sc2nc3c([H])c([H])c([H])c([H])c3s2)c([H])c([H])c1C(=O)N1C([H])([H])c2c([H])c(C([H])([H])[H])c([H])c([H])c2C([H])([H])C1([H])[H]

>  <index>  (94) 
189

>  <∆∆G>  (94) 
-9.786413

>  <∆G_bound>  (94) 
-9.626279

>  <∆G_unbound>  (94) 
0.160134

>  <comRMSD>  (94) 
0.874252

>  <N_constrained_atoms>  (94) 
28.0

>  <N_unconstrained_atoms>  (94) 
4.0

>  <runtime>  (94) 
56.977567

>  <LE>  (94) 
0.305825

>  <percent_hybrid>  (94) 
36.0

>  <dist>  (94) 
10.0

>  <ecfp4>  (94) 
0.18

>  <daylight>  (94) 
0.208696

>  <topodist>  (94) 
5.0

>  <mces>  (94) 
31.0

>  <tdn>  (94) 
2.0

>  <tup>  (94) 
2.0

>  <rdn>  (94) 
0.0

>  <rup>  (94) 
0.0

>  <ldn>  (94) 
0.0

>  <lup>  (94) 
1.0

>  <mut>  (94) 
5.0

>  <maj>  (94) 
5.0

>  <min>  (94) 
0.0

>  <hyb>  (94) 
0.0

>  <sub>  (94) 
3.0

>  <query_index>  (94) 
45.0

>  <max_hit_Tanimoto>  (94) 
0.207671

>  <largest_ring>  (94) 
6

>  <N_interactions_kept>  (94) 
0.5

>  <N_interactions_lost>  (94) 
2.0

>  <interaction_uniqueness_metric>  (94) 
0.188654

>  <ad_hoc_penalty>  (94) 
-29.447492

>  <N_rotatable_bonds>  (94) 
5

>  <N_HA>  (94) 
30

>  <cluster>  (94) 
6047

>  <N_interactions>  (94) 
6

>  <Enamine>  (94) 
0

>  <Mcule>  (94) 
1

>  <N_PAINS>  (94) 
0

>  <UFF_Gibbs>  (94) 
79.760129

>  <strain_per_HA>  (94) 
2.492504

>  <saltbridge:HIS:51>  (94) 
0

>  <pistack:HIS:51>  (94) 
0

>  <hydroph_interaction:HIS:51>  (94) 
0

>  <hbond:ALA:132>  (94) 
0

>  <hbond:SER:135>  (94) 
0

>  <hydroph_interaction:TYR:150>  (94) 
0

>  <pistack:TYR:161>  (94) 
1

>  <hydroph_interaction:TYR:161>  (94) 
1

>  <hydroph_interaction:ASP:83>  (94) 
0

>  <hbond:TYR:130>  (94) 
0

>  <hydroph_interaction:ALA:132>  (94) 
1

>  <hbond:HIS:51>  (94) 
0

>  <hbond:ASP:129>  (94) 
1

>  <hbond:TYR:150>  (94) 
0

>  <hbond:GLY:151>  (94) 
0

>  <hbond:TYR:161>  (94) 
0

>  <hydroph_interaction:TYR:130>  (94) 
1

>  <hydroph_interaction:PRO:131>  (94) 
1

>  <hydroph_interaction:ASP:129>  (94) 
0

>  <saltbridge:ASP:75>  (94) 
0

>  <saltbridge:ASP:83>  (94) 
0

>  <hydroph_interaction:ASN:152>  (94) 
0

>  <halogenbond:TYR:150>  (94) 
0

>  <hbond:ASP:83>  (94) 
0

>  <hydroph_interaction:VAL:155>  (94) 
0

>  <pication:TYR:161>  (94) 
0

>  <hbond:PRO:131>  (94) 
0

>  <hbond:LEU:128>  (94) 
0

>  <saltbridge:ASP:129>  (94) 
0

>  <hbond:THR:134>  (94) 
0

>  <pication:HIS:51>  (94) 
0

>  <hbond:SER:81>  (94) 
0

>  <hbond:GLY:159>  (94) 
0

>  <hydroph_interaction:PRO:101>  (94) 
0

>  <hydroph_interaction:THR:134>  (94) 
0

>  <hbond:GLY:82>  (94) 
0

>  <hydroph_interaction:GLU:104>  (94) 
0

>  <hydroph_interaction:VAL:36>  (94) 
0

>  <hydroph_interaction:MET:49>  (94) 
0

>  <halogenbond:GLU:104>  (94) 
0

>  <hydroph_interaction:LYS:107>  (94) 
0

$$$$
CSSB03552410615
     RDKit          3D

 27 28  0  0  0  0  0  0  0  0999 V2000
   -3.3644    5.1019  -16.5863 C   0  0  0  0  0  0  0  0  0  0  0  0
   -4.2624    5.2618  -17.8267 C   0  0  0  0  0  0  0  0  0  0  0  0
   -3.3739    5.2855  -19.0831 C   0  0  0  0  0  0  0  0  0  0  0  0
   -5.1494    6.5455  -17.7499 C   0  0  2  0  0  0  0  0  0  0  0  0
   -6.1424    6.5474  -16.5570 C   0  0  0  0  0  0  0  0  0  0  0  0
   -7.2841    5.6951  -16.8560 N   0  0  0  0  0  0  0  0  0  0  0  0
   -8.1360    5.2149  -15.9663 N   0  0  0  0  0  0  0  0  0  0  0  0
   -9.0940    4.5550  -16.6527 C   0  0  0  0  0  0  0  0  0  0  0  0
   -8.8429    4.6390  -18.0135 C   0  0  0  0  0  0  0  0  0  0  0  0
   -7.6931    5.3922  -18.0931 C   0  0  0  0  0  0  0  0  0  0  0  0
   -6.9063    5.7499  -19.3155 C   0  0  0  0  0  0  0  0  0  0  0  0
   -5.8831    6.7752  -19.0193 N   0  0  0  0  0  0  0  0  0  0  0  0
   -2.8016    6.0380  -16.3829 H   0  0  0  0  0  0  0  0  0  0  0  0
   -2.6347    4.2776  -16.7375 H   0  0  0  0  0  0  0  0  0  0  0  0
   -3.9627    4.8300  -15.6938 H   0  0  0  0  0  0  0  0  0  0  0  0
   -4.9142    4.3631  -17.8853 H   0  0  0  0  0  0  0  0  0  0  0  0
   -3.9892    5.3075  -20.0061 H   0  0  0  0  0  0  0  0  0  0  0  0
   -2.7096    6.1763  -19.0739 H   0  0  0  0  0  0  0  0  0  0  0  0
   -2.7448    4.3709  -19.1298 H   0  0  0  0  0  0  0  0  0  0  0  0
   -4.4620    7.4086  -17.5999 H   0  0  0  0  0  0  0  0  0  0  0  0
   -5.6672    6.2318  -15.6080 H   0  0  0  0  0  0  0  0  0  0  0  0
   -6.5122    7.5842  -16.4030 H   0  0  0  0  0  0  0  0  0  0  0  0
   -9.9277    4.0429  -16.1918 H   0  0  0  0  0  0  0  0  0  0  0  0
   -9.4153    4.2076  -18.8238 H   0  0  0  0  0  0  0  0  0  0  0  0
   -6.4183    4.8371  -19.7157 H   0  0  0  0  0  0  0  0  0  0  0  0
   -7.5972    6.1307  -20.0984 H   0  0  0  0  0  0  0  0  0  0  0  0
   -6.3582    7.7073  -18.9628 H   0  0  0  0  0  0  0  0  0  0  0  0
  1  2  1  0
  2  3  1  0
  2  4  1  0
  4  5  1  0
  5  6  1  0
  6  7  1  0
  7  8  2  0
  8  9  1  0
  9 10  2  0
 10 11  1  0
 11 12  1  0
 12  4  1  0
 10  6  1  0
  1 13  1  0
  1 14  1  0
  1 15  1  0
  2 16  1  0
  3 17  1  0
  3 18  1  0
  3 19  1  0
  4 20  1  1
  5 21  1  0
  5 22  1  0
  8 23  1  0
  9 24  1  0
 11 25  1  0
 11 26  1  0
 12 27  1  0
A    1
 C1 
A    2
 C2 
A    3
 C3 
A    4
 C4 
A    5
 C5 
A    6
 N1 
A    7
 N2 
A    8
 C6 
A    9
 C7 
A   10
 C8 
A   11
 C9 
A   12
 N3 
A   13
 H1 
A   14
 H2 
A   15
 H3 
A   16
 H4 
A   17
 H5 
A   18
 H6 
A   19
 H7 
A   20
 H8 
A   21
 H9 
A   22
 H10
A   23
 H11
A   24
 H12
A   25
 H13
A   26
 H14
A   27
 H15
M  END
>  <ref_pdb>  (95) 
x0051_0B

>  <ref_mols>  (95) 
x0969_0B,x0472_0B

>  <original SMILES>  (95) 
[H]c1nn2c(c1[H])C([H])([H])N([H])[C@]([H])(C([H])(C([H])([H])[H])C([H])([H])[H])C2([H])[H]

>  <index>  (95) 
179

>  <∆∆G>  (95) 
-5.12871

>  <∆G_bound>  (95) 
-5.16177

>  <∆G_unbound>  (95) 
-0.03306

>  <comRMSD>  (95) 
0.544189

>  <N_constrained_atoms>  (95) 
14.0

>  <N_unconstrained_atoms>  (95) 
0.0

>  <runtime>  (95) 
16.32806

>  <LE>  (95) 
0.366336

>  <percent_hybrid>  (95) 
20.0

>  <dist>  (95) 
2.0

>  <ecfp4>  (95) 
0.34

>  <daylight>  (95) 
0.817568

>  <topodist>  (95) 
2.0

>  <mces>  (95) 
13.0

>  <tdn>  (95) 
2.0

>  <tup>  (95) 
0.0

>  <rdn>  (95) 
0.0

>  <rup>  (95) 
0.0

>  <ldn>  (95) 
0.0

>  <lup>  (95) 
0.0

>  <mut>  (95) 
0.0

>  <maj>  (95) 
0.0

>  <min>  (95) 
0.0

>  <hyb>  (95) 
0.0

>  <sub>  (95) 
2.0

>  <query_index>  (95) 
126.0

>  <max_hit_Tanimoto>  (95) 
0.565217

>  <largest_ring>  (95) 
6

>  <N_interactions_kept>  (95) 
3.5

>  <N_interactions_lost>  (95) 
0.0

>  <interaction_uniqueness_metric>  (95) 
0.049434

>  <ad_hoc_penalty>  (95) 
-29.418804

>  <N_rotatable_bonds>  (95) 
3

>  <N_HA>  (95) 
12

>  <cluster>  (95) 
6057

>  <N_interactions>  (95) 
4

>  <Enamine>  (95) 
1

>  <Mcule>  (95) 
0

>  <N_PAINS>  (95) 
0

>  <UFF_Gibbs>  (95) 
18.497015

>  <strain_per_HA>  (95) 
1.321215

>  <saltbridge:HIS:51>  (95) 
0

>  <pistack:HIS:51>  (95) 
0

>  <hydroph_interaction:HIS:51>  (95) 
0

>  <hbond:ALA:132>  (95) 
0

>  <hbond:SER:135>  (95) 
0

>  <hydroph_interaction:TYR:150>  (95) 
0

>  <pistack:TYR:161>  (95) 
0

>  <hydroph_interaction:TYR:161>  (95) 
3

>  <hydroph_interaction:ASP:83>  (95) 
0

>  <hbond:TYR:130>  (95) 
0

>  <hydroph_interaction:ALA:132>  (95) 
0

>  <hbond:HIS:51>  (95) 
0

>  <hbond:ASP:129>  (95) 
0

>  <hbond:TYR:150>  (95) 
0

>  <hbond:GLY:151>  (95) 
0

>  <hbond:TYR:161>  (95) 
0

>  <hydroph_interaction:TYR:130>  (95) 
0

>  <hydroph_interaction:PRO:131>  (95) 
0

>  <hydroph_interaction:ASP:129>  (95) 
0

>  <saltbridge:ASP:75>  (95) 
0

>  <saltbridge:ASP:83>  (95) 
0

>  <hydroph_interaction:ASN:152>  (95) 
0

>  <halogenbond:TYR:150>  (95) 
0

>  <hbond:ASP:83>  (95) 
0

>  <hydroph_interaction:VAL:155>  (95) 
1

>  <pication:TYR:161>  (95) 
0

>  <hbond:PRO:131>  (95) 
0

>  <hbond:LEU:128>  (95) 
0

>  <saltbridge:ASP:129>  (95) 
0

>  <hbond:THR:134>  (95) 
0

>  <pication:HIS:51>  (95) 
0

>  <hbond:SER:81>  (95) 
0

>  <hbond:GLY:159>  (95) 
0

>  <hydroph_interaction:PRO:101>  (95) 
0

>  <hydroph_interaction:THR:134>  (95) 
0

>  <hbond:GLY:82>  (95) 
0

>  <hydroph_interaction:GLU:104>  (95) 
0

>  <hydroph_interaction:VAL:36>  (95) 
0

>  <hydroph_interaction:MET:49>  (95) 
0

>  <halogenbond:GLU:104>  (95) 
0

>  <hydroph_interaction:LYS:107>  (95) 
0

$$$$
Z5484429475
     RDKit          3D

 40 43  0  0  0  0  0  0  0  0999 V2000
   -7.3027    7.2577  -19.8810 C   0  0  0  0  0  0  0  0  0  0  0  0
   -7.1171    6.4262  -18.6539 C   0  0  0  0  0  0  0  0  0  0  0  0
   -5.9130    6.0705  -18.1504 N   0  0  0  0  0  0  0  0  0  0  0  0
   -6.1376    5.3533  -17.0521 N   0  0  0  0  0  0  0  0  0  0  0  0
   -7.4765    5.2889  -16.9090 C   0  0  0  0  0  0  0  0  0  0  0  0
   -8.2067    4.6426  -15.9029 C   0  0  0  0  0  0  0  0  0  0  0  0
   -7.5607    3.9062  -14.7923 C   0  0  0  0  0  0  0  0  0  0  0  0
   -6.3023    3.8541  -14.7219 O   0  0  0  0  0  0  0  0  0  0  0  0
   -8.3577    3.2487  -13.7937 N   0  0  0  0  0  0  0  0  0  0  0  0
   -7.7736    2.6199  -12.6112 C   0  0  0  0  0  0  0  0  0  0  0  0
   -7.7039    3.6073  -11.4853 C   0  0  0  0  0  0  0  0  0  0  0  0
   -8.3370    3.5567  -10.2589 C   0  0  0  0  0  0  0  0  0  0  0  0
   -9.2987    2.5218   -9.7499 C   0  0  0  0  0  0  0  0  0  0  0  0
   -9.4761    2.6561   -8.2291 C   0  0  0  0  0  0  0  0  0  0  0  0
   -9.6675    4.1242   -7.8136 C   0  0  0  0  0  0  0  0  0  0  0  0
   -8.4426    4.9679   -8.2056 C   0  0  0  0  0  0  0  0  0  0  0  0
   -8.0328    4.6771   -9.5788 N   0  0  0  0  0  0  0  0  0  0  0  0
   -7.1995    5.4242  -10.2859 N   0  0  0  0  0  0  0  0  0  0  0  0
   -6.9880    4.7938  -11.4603 C   0  0  0  0  0  0  0  0  0  0  0  0
   -9.5708    4.7215  -15.9774 N   0  0  0  0  0  0  0  0  0  0  0  0
  -10.2113    5.3990  -16.9790 C   0  0  0  0  0  0  0  0  0  0  0  0
   -9.4596    6.0385  -17.9737 C   0  0  0  0  0  0  0  0  0  0  0  0
   -8.1101    5.9458  -17.8869 N   0  0  0  0  0  0  0  0  0  0  0  0
   -7.9247    6.7066  -20.6148 H   0  0  0  0  0  0  0  0  0  0  0  0
   -6.3197    7.4864  -20.3405 H   0  0  0  0  0  0  0  0  0  0  0  0
   -7.8070    8.2079  -19.6125 H   0  0  0  0  0  0  0  0  0  0  0  0
   -9.3993    3.2850  -13.8568 H   0  0  0  0  0  0  0  0  0  0  0  0
   -8.4005    1.7508  -12.3218 H   0  0  0  0  0  0  0  0  0  0  0  0
   -6.7568    2.2307  -12.8312 H   0  0  0  0  0  0  0  0  0  0  0  0
   -8.9235    1.5032   -9.9843 H   0  0  0  0  0  0  0  0  0  0  0  0
  -10.2787    2.6672  -10.2535 H   0  0  0  0  0  0  0  0  0  0  0  0
  -10.3582    2.0599   -7.9083 H   0  0  0  0  0  0  0  0  0  0  0  0
   -8.5808    2.2428   -7.7142 H   0  0  0  0  0  0  0  0  0  0  0  0
   -9.8189    4.1820   -6.7139 H   0  0  0  0  0  0  0  0  0  0  0  0
  -10.5755    4.5333   -8.3100 H   0  0  0  0  0  0  0  0  0  0  0  0
   -8.6889    6.0468   -8.1074 H   0  0  0  0  0  0  0  0  0  0  0  0
   -7.5991    4.7343   -7.5204 H   0  0  0  0  0  0  0  0  0  0  0  0
   -6.3513    5.1758  -12.2473 H   0  0  0  0  0  0  0  0  0  0  0  0
  -11.2918    5.4395  -17.0004 H   0  0  0  0  0  0  0  0  0  0  0  0
   -9.9385    6.5828  -18.7779 H   0  0  0  0  0  0  0  0  0  0  0  0
  1  2  1  0
  2  3  2  0
  3  4  1  0
  4  5  2  0
  5  6  1  0
  6  7  1  0
  7  8  2  0
  7  9  1  0
  9 10  1  0
 10 11  1  0
 11 12  2  0
 12 13  1  0
 13 14  1  0
 14 15  1  0
 15 16  1  0
 16 17  1  0
 17 18  1  0
 18 19  2  0
  6 20  2  0
 20 21  1  0
 21 22  2  0
 22 23  1  0
 23  2  1  0
 23  5  1  0
 19 11  1  0
 17 12  1  0
  1 24  1  0
  1 25  1  0
  1 26  1  0
  9 27  1  0
 10 28  1  0
 10 29  1  0
 13 30  1  0
 13 31  1  0
 14 32  1  0
 14 33  1  0
 15 34  1  0
 15 35  1  0
 16 36  1  0
 16 37  1  0
 19 38  1  0
 21 39  1  0
 22 40  1  0
A    1
 C1 
A    2
 C2 
A    3
 N1 
A    4
 N2 
A    5
 C3 
A    6
 C4 
A    7
 C5 
A    8
 O1 
A    9
 N3 
A   10
 C6 
A   11
 C7 
A   12
 C8 
A   13
 C9 
A   14
 C10
A   15
 C11
A   16
 C12
A   17
 N4 
A   18
 N5 
A   19
 C13
A   20
 N6 
A   21
 C14
A   22
 C15
A   23
 N7 
A   24
 H1 
A   25
 H2 
A   26
 H3 
A   27
 H4 
A   28
 H5 
A   29
 H6 
A   30
 H7 
A   31
 H8 
A   32
 H9 
A   33
 H10
A   34
 H11
A   35
 H12
A   36
 H13
A   37
 H14
A   38
 H15
A   39
 H16
A   40
 H17
M  END
>  <ref_pdb>  (96) 
x0051_0B

>  <ref_mols>  (96) 
x0435_0B,x0969_1B

>  <original SMILES>  (96) 
[H]c1nn2c(c1C([H])([H])N([H])C(=O)c1nc([H])c([H])n3c(C([H])([H])[H])nnc13)C([H])([H])C([H])([H])C([H])([H])C2([H])[H]

>  <index>  (96) 
164

>  <∆∆G>  (96) 
-6.011745

>  <∆G_bound>  (96) 
-4.884782

>  <∆G_unbound>  (96) 
1.126962

>  <comRMSD>  (96) 
0.465215

>  <N_constrained_atoms>  (96) 
20.0

>  <N_unconstrained_atoms>  (96) 
3.0

>  <runtime>  (96) 
70.246014

>  <LE>  (96) 
0.26138

>  <percent_hybrid>  (96) 
50.0

>  <dist>  (96) 
6.0

>  <ecfp4>  (96) 
0.271605

>  <daylight>  (96) 
0.290503

>  <topodist>  (96) 
1.0

>  <mces>  (96) 
25.0

>  <tdn>  (96) 
0.0

>  <tup>  (96) 
1.0

>  <rdn>  (96) 
0.0

>  <rup>  (96) 
0.0

>  <ldn>  (96) 
0.0

>  <lup>  (96) 
0.0

>  <mut>  (96) 
5.0

>  <maj>  (96) 
5.0

>  <min>  (96) 
0.0

>  <hyb>  (96) 
0.0

>  <sub>  (96) 
0.0

>  <query_index>  (96) 
311.0

>  <max_hit_Tanimoto>  (96) 
0.292256

>  <largest_ring>  (96) 
6

>  <N_interactions_kept>  (96) 
2.5

>  <N_interactions_lost>  (96) 
1.0

>  <interaction_uniqueness_metric>  (96) 
0.182744

>  <ad_hoc_penalty>  (96) 
-29.291714

>  <N_rotatable_bonds>  (96) 
4

>  <N_HA>  (96) 
23

>  <cluster>  (96) 
6069

>  <N_interactions>  (96) 
6

>  <Enamine>  (96) 
1

>  <Mcule>  (96) 
0

>  <N_PAINS>  (96) 
0

>  <UFF_Gibbs>  (96) 
73.384901

>  <strain_per_HA>  (96) 
3.190648

>  <saltbridge:HIS:51>  (96) 
0

>  <pistack:HIS:51>  (96) 
1

>  <hydroph_interaction:HIS:51>  (96) 
0

>  <hbond:ALA:132>  (96) 
0

>  <hbond:SER:135>  (96) 
0

>  <hydroph_interaction:TYR:150>  (96) 
0

>  <pistack:TYR:161>  (96) 
2

>  <hydroph_interaction:TYR:161>  (96) 
1

>  <hydroph_interaction:ASP:83>  (96) 
1

>  <hbond:TYR:130>  (96) 
0

>  <hydroph_interaction:ALA:132>  (96) 
0

>  <hbond:HIS:51>  (96) 
0

>  <hbond:ASP:129>  (96) 
0

>  <hbond:TYR:150>  (96) 
0

>  <hbond:GLY:151>  (96) 
0

>  <hbond:TYR:161>  (96) 
1

>  <hydroph_interaction:TYR:130>  (96) 
0

>  <hydroph_interaction:PRO:131>  (96) 
0

>  <hydroph_interaction:ASP:129>  (96) 
0

>  <saltbridge:ASP:75>  (96) 
0

>  <saltbridge:ASP:83>  (96) 
0

>  <hydroph_interaction:ASN:152>  (96) 
0

>  <halogenbond:TYR:150>  (96) 
0

>  <hbond:ASP:83>  (96) 
0

>  <hydroph_interaction:VAL:155>  (96) 
0

>  <pication:TYR:161>  (96) 
0

>  <hbond:PRO:131>  (96) 
0

>  <hbond:LEU:128>  (96) 
0

>  <saltbridge:ASP:129>  (96) 
0

>  <hbond:THR:134>  (96) 
0

>  <pication:HIS:51>  (96) 
0

>  <hbond:SER:81>  (96) 
0

>  <hbond:GLY:159>  (96) 
0

>  <hydroph_interaction:PRO:101>  (96) 
0

>  <hydroph_interaction:THR:134>  (96) 
0

>  <hbond:GLY:82>  (96) 
0

>  <hydroph_interaction:GLU:104>  (96) 
0

>  <hydroph_interaction:VAL:36>  (96) 
0

>  <hydroph_interaction:MET:49>  (96) 
0

>  <halogenbond:GLU:104>  (96) 
0

>  <hydroph_interaction:LYS:107>  (96) 
0

$$$$
BOLHGPCYUBOTID-UHFFFAOYSA-N
     RDKit          3D

 41 44  0  0  0  0  0  0  0  0999 V2000
   -9.4319    4.5470  -14.2026 C   0  0  0  0  0  0  0  0  0  0  0  0
   -9.6265    4.8258  -12.8080 N   0  0  0  0  0  0  0  0  0  0  0  0
   -8.7668    5.7364  -12.0514 C   0  0  0  0  0  0  0  0  0  0  0  0
   -9.0887    5.6726  -10.5896 C   0  0  0  0  0  0  0  0  0  0  0  0
   -8.7645    4.6733   -9.6960 C   0  0  0  0  0  0  0  0  0  0  0  0
   -9.3589    4.9468   -8.5213 N   0  0  0  0  0  0  0  0  0  0  0  0
   -9.2217    4.1532   -7.3017 C   0  0  0  0  0  0  0  0  0  0  0  0
   -8.7787    2.7189   -7.6358 C   0  0  0  0  0  0  0  0  0  0  0  0
   -7.6192    2.7239   -8.6463 C   0  0  0  0  0  0  0  0  0  0  0  0
   -8.0288    3.3945   -9.9673 C   0  0  0  0  0  0  0  0  0  0  0  0
  -10.0250    6.0878   -8.6055 N   0  0  0  0  0  0  0  0  0  0  0  0
   -9.8856    6.5459   -9.8681 C   0  0  0  0  0  0  0  0  0  0  0  0
  -10.1747    3.6933  -14.7604 O   0  0  0  0  0  0  0  0  0  0  0  0
   -8.3114    5.1931  -14.9887 C   0  0  0  0  0  0  0  0  0  0  0  0
   -8.5881    5.2235  -16.4557 C   0  0  0  0  0  0  0  0  0  0  0  0
   -7.6221    4.5269  -17.1246 C   0  0  0  0  0  0  0  0  0  0  0  0
   -7.6335    4.4049  -18.5132 C   0  0  0  0  0  0  0  0  0  0  0  0
   -8.6706    5.0290  -19.2266 C   0  0  0  0  0  0  0  0  0  0  0  0
   -9.6633    5.7584  -18.5418 C   0  0  0  0  0  0  0  0  0  0  0  0
   -9.6241    5.8633  -17.1410 C   0  0  0  0  0  0  0  0  0  0  0  0
   -6.6866    4.0024  -16.2602 O   0  0  0  0  0  0  0  0  0  0  0  0
   -7.0031    4.3548  -14.9134 C   0  0  0  0  0  0  0  0  0  0  0  0
  -10.4114    4.3355  -12.3201 H   0  0  0  0  0  0  0  0  0  0  0  0
   -7.7022    5.4539  -12.1944 H   0  0  0  0  0  0  0  0  0  0  0  0
   -8.9106    6.7748  -12.4190 H   0  0  0  0  0  0  0  0  0  0  0  0
  -10.1916    4.1253   -6.7602 H   0  0  0  0  0  0  0  0  0  0  0  0
   -8.4642    4.6311   -6.6439 H   0  0  0  0  0  0  0  0  0  0  0  0
   -9.6376    2.1561   -8.0631 H   0  0  0  0  0  0  0  0  0  0  0  0
   -8.4587    2.2050   -6.7040 H   0  0  0  0  0  0  0  0  0  0  0  0
   -7.3006    1.6789   -8.8493 H   0  0  0  0  0  0  0  0  0  0  0  0
   -6.7522    3.2662   -8.2086 H   0  0  0  0  0  0  0  0  0  0  0  0
   -8.6959    2.7136  -10.5383 H   0  0  0  0  0  0  0  0  0  0  0  0
   -7.1231    3.5979  -10.5773 H   0  0  0  0  0  0  0  0  0  0  0  0
  -10.3476    7.4497  -10.2424 H   0  0  0  0  0  0  0  0  0  0  0  0
   -8.1297    6.2331  -14.6438 H   0  0  0  0  0  0  0  0  0  0  0  0
   -6.8618    3.8476  -19.0277 H   0  0  0  0  0  0  0  0  0  0  0  0
   -8.7050    4.9523  -20.3055 H   0  0  0  0  0  0  0  0  0  0  0  0
  -10.4575    6.2409  -19.0965 H   0  0  0  0  0  0  0  0  0  0  0  0
  -10.3798    6.4239  -16.6063 H   0  0  0  0  0  0  0  0  0  0  0  0
   -7.1242    3.4301  -14.3077 H   0  0  0  0  0  0  0  0  0  0  0  0
   -6.1776    4.9635  -14.4864 H   0  0  0  0  0  0  0  0  0  0  0  0
  1  2  1  0
  2  3  1  0
  3  4  1  0
  4  5  2  0
  5  6  1  0
  6  7  1  0
  7  8  1  0
  8  9  1  0
  9 10  1  0
  6 11  1  0
 11 12  2  0
  1 13  2  0
  1 14  1  0
 14 15  1  0
 15 16  1  0
 16 17  2  0
 17 18  1  0
 18 19  2  0
 19 20  1  0
 16 21  1  0
 21 22  1  0
 12  4  1  0
 10  5  1  0
 22 14  1  0
 20 15  2  0
  2 23  1  0
  3 24  1  0
  3 25  1  0
  7 26  1  0
  7 27  1  0
  8 28  1  0
  8 29  1  0
  9 30  1  0
  9 31  1  0
 10 32  1  0
 10 33  1  0
 12 34  1  0
 14 35  1  0
 17 36  1  0
 18 37  1  0
 19 38  1  0
 20 39  1  0
 22 40  1  0
 22 41  1  0
A    1
 C1 
A    2
 N1 
A    3
 C2 
A    4
 C3 
A    5
 C4 
A    6
 N2 
A    7
 C5 
A    8
 C6 
A    9
 C7 
A   10
 C8 
A   11
 N3 
A   12
 C9 
A   13
 O1 
A   14
 C10
A   15
 C11
A   16
 C12
A   17
 C13
A   18
 C14
A   19
 C15
A   20
 C16
A   21
 O2 
A   22
 C17
A   23
 H1 
A   24
 H2 
A   25
 H3 
A   26
 H4 
A   27
 H5 
A   28
 H6 
A   29
 H7 
A   30
 H8 
A   31
 H9 
A   32
 H10
A   33
 H11
A   34
 H12
A   35
 H13
A   36
 H14
A   37
 H15
A   38
 H16
A   39
 H17
A   40
 H18
A   41
 H19
M  END
>  <ref_pdb>  (97) 
x0051_0B

>  <ref_mols>  (97) 
x0969_1B,x0455_0B

>  <original SMILES>  (97) 
[H]c1nn2c(c1C([H])([H])N([H])C(=O)C1([H])c3c([H])c([H])c([H])c([H])c3OC1([H])[H])C([H])([H])C([H])([H])C([H])([H])C2([H])[H]

>  <index>  (97) 
136

>  <∆∆G>  (97) 
-5.654858

>  <∆G_bound>  (97) 
-4.982492

>  <∆G_unbound>  (97) 
0.672366

>  <comRMSD>  (97) 
0.419098

>  <N_constrained_atoms>  (97) 
19.0

>  <N_unconstrained_atoms>  (97) 
3.0

>  <runtime>  (97) 
59.604866

>  <LE>  (97) 
0.257039

>  <percent_hybrid>  (97) 
48.0

>  <dist>  (97) 
7.0

>  <ecfp4>  (97) 
0.280488

>  <daylight>  (97) 
0.292818

>  <topodist>  (97) 
2.0

>  <mces>  (97) 
24.0

>  <tdn>  (97) 
0.0

>  <tup>  (97) 
1.0

>  <rdn>  (97) 
0.0

>  <rup>  (97) 
0.0

>  <ldn>  (97) 
1.0

>  <lup>  (97) 
0.0

>  <mut>  (97) 
4.0

>  <maj>  (97) 
4.0

>  <min>  (97) 
0.0

>  <hyb>  (97) 
1.0

>  <sub>  (97) 
0.0

>  <query_index>  (97) 
204.0

>  <max_hit_Tanimoto>  (97) 
0.315044

>  <largest_ring>  (97) 
6

>  <N_interactions_kept>  (97) 
1.5

>  <N_interactions_lost>  (97) 
1.0

>  <interaction_uniqueness_metric>  (97) 
0.179862

>  <ad_hoc_penalty>  (97) 
-29.159351

>  <N_rotatable_bonds>  (97) 
3

>  <N_HA>  (97) 
22

>  <cluster>  (97) 
6093

>  <N_interactions>  (97) 
6

>  <Enamine>  (97) 
0

>  <Mcule>  (97) 
1

>  <N_PAINS>  (97) 
0

>  <UFF_Gibbs>  (97) 
110.385158

>  <strain_per_HA>  (97) 
5.017507

>  <saltbridge:HIS:51>  (97) 
0

>  <pistack:HIS:51>  (97) 
2

>  <hydroph_interaction:HIS:51>  (97) 
1

>  <hbond:ALA:132>  (97) 
0

>  <hbond:SER:135>  (97) 
0

>  <hydroph_interaction:TYR:150>  (97) 
1

>  <pistack:TYR:161>  (97) 
1

>  <hydroph_interaction:TYR:161>  (97) 
0

>  <hydroph_interaction:ASP:83>  (97) 
0

>  <hbond:TYR:130>  (97) 
0

>  <hydroph_interaction:ALA:132>  (97) 
0

>  <hbond:HIS:51>  (97) 
1

>  <hbond:ASP:129>  (97) 
0

>  <hbond:TYR:150>  (97) 
0

>  <hbond:GLY:151>  (97) 
0

>  <hbond:TYR:161>  (97) 
0

>  <hydroph_interaction:TYR:130>  (97) 
0

>  <hydroph_interaction:PRO:131>  (97) 
0

>  <hydroph_interaction:ASP:129>  (97) 
0

>  <saltbridge:ASP:75>  (97) 
0

>  <saltbridge:ASP:83>  (97) 
0

>  <hydroph_interaction:ASN:152>  (97) 
0

>  <halogenbond:TYR:150>  (97) 
0

>  <hbond:ASP:83>  (97) 
0

>  <hydroph_interaction:VAL:155>  (97) 
0

>  <pication:TYR:161>  (97) 
0

>  <hbond:PRO:131>  (97) 
0

>  <hbond:LEU:128>  (97) 
0

>  <saltbridge:ASP:129>  (97) 
0

>  <hbond:THR:134>  (97) 
0

>  <pication:HIS:51>  (97) 
0

>  <hbond:SER:81>  (97) 
0

>  <hbond:GLY:159>  (97) 
0

>  <hydroph_interaction:PRO:101>  (97) 
0

>  <hydroph_interaction:THR:134>  (97) 
0

>  <hbond:GLY:82>  (97) 
0

>  <hydroph_interaction:GLU:104>  (97) 
0

>  <hydroph_interaction:VAL:36>  (97) 
0

>  <hydroph_interaction:MET:49>  (97) 
0

>  <halogenbond:GLU:104>  (97) 
0

>  <hydroph_interaction:LYS:107>  (97) 
0

$$$$
PVFDMSGBIDVRNR-UHFFFAOYSA-N
     RDKit          3D

 26 27  0  0  0  0  0  0  0  0999 V2000
   -3.9656    5.5518  -17.8344 C   0  0  0  0  0  0  0  0  0  0  0  0
   -5.3871    5.7451  -17.6385 N   0  0  0  0  0  0  0  0  0  0  0  0
   -5.8857    6.2109  -16.3278 C   0  0  0  0  0  0  0  0  0  0  0  0
   -7.1091    5.3972  -15.8911 C   0  0  0  0  0  0  0  0  0  0  0  0
   -8.0701    5.2666  -17.0244 C   0  0  0  0  0  0  0  0  0  0  0  0
   -7.7113    5.3569  -18.3590 C   0  0  0  0  0  0  0  0  0  0  0  0
   -8.7697    5.0730  -19.2350 C   0  0  0  0  0  0  0  0  0  0  0  0
   -9.9518    4.7435  -18.5813 C   0  0  0  0  0  0  0  0  0  0  0  0
   -9.6793    4.7983  -16.9194 S   0  0  0  0  0  0  0  0  0  0  0  0
   -6.3165    5.7332  -18.7929 C   0  0  0  0  0  0  0  0  0  0  0  0
   -6.3228    7.1066  -19.4715 C   0  0  0  0  0  0  0  0  0  0  0  0
   -3.1469    5.9551  -16.9639 O   0  0  0  0  0  0  0  0  0  0  0  0
   -3.4235    4.8772  -19.0591 C   0  0  0  0  0  0  0  0  0  0  0  0
   -5.1117    6.1127  -15.5369 H   0  0  0  0  0  0  0  0  0  0  0  0
   -6.1587    7.2859  -16.4006 H   0  0  0  0  0  0  0  0  0  0  0  0
   -6.7858    4.3811  -15.5794 H   0  0  0  0  0  0  0  0  0  0  0  0
   -7.6048    5.8954  -15.0308 H   0  0  0  0  0  0  0  0  0  0  0  0
   -8.6775    5.0977  -20.3129 H   0  0  0  0  0  0  0  0  0  0  0  0
  -10.8849    4.4823  -19.0617 H   0  0  0  0  0  0  0  0  0  0  0  0
   -5.9981    4.9715  -19.5347 H   0  0  0  0  0  0  0  0  0  0  0  0
   -5.2924    7.3888  -19.7730 H   0  0  0  0  0  0  0  0  0  0  0  0
   -6.9562    7.0837  -20.3836 H   0  0  0  0  0  0  0  0  0  0  0  0
   -6.7161    7.8823  -18.7804 H   0  0  0  0  0  0  0  0  0  0  0  0
   -2.3262    4.7297  -18.9685 H   0  0  0  0  0  0  0  0  0  0  0  0
   -3.6202    5.5008  -19.9554 H   0  0  0  0  0  0  0  0  0  0  0  0
   -3.8990    3.8818  -19.1818 H   0  0  0  0  0  0  0  0  0  0  0  0
  1  2  1  0
  2  3  1  0
  3  4  1  0
  4  5  1  0
  5  6  2  0
  6  7  1  0
  7  8  2  0
  8  9  1  0
  6 10  1  0
 10 11  1  0
  1 12  2  0
  1 13  1  0
 10  2  1  0
  9  5  1  0
  3 14  1  0
  3 15  1  0
  4 16  1  0
  4 17  1  0
  7 18  1  0
  8 19  1  0
 10 20  1  0
 11 21  1  0
 11 22  1  0
 11 23  1  0
 13 24  1  0
 13 25  1  0
 13 26  1  0
A    1
 C1 
A    2
 N1 
A    3
 C2 
A    4
 C3 
A    5
 C4 
A    6
 C5 
A    7
 C6 
A    8
 C7 
A    9
 S1 
A   10
 C8 
A   11
 C9 
A   12
 O1 
A   13
 C10
A   14
 H1 
A   15
 H2 
A   16
 H3 
A   17
 H4 
A   18
 H5 
A   19
 H6 
A   20
 H7 
A   21
 H8 
A   22
 H9 
A   23
 H10
A   24
 H11
A   25
 H12
A   26
 H13
M  END
>  <ref_pdb>  (98) 
x0051_0B

>  <ref_mols>  (98) 
x0472_0B,x0386_0B

>  <original SMILES>  (98) 
[H]c1sc2c(c1[H])C([H])(C([H])([H])[H])N(C(=O)C([H])([H])[H])C([H])([H])C2([H])[H]

>  <index>  (98) 
156

>  <∆∆G>  (98) 
-7.939358

>  <∆G_bound>  (98) 
-8.014017

>  <∆G_unbound>  (98) 
-0.074659

>  <comRMSD>  (98) 
0.445265

>  <N_constrained_atoms>  (98) 
13.0

>  <N_unconstrained_atoms>  (98) 
0.0

>  <runtime>  (98) 
26.064494

>  <LE>  (98) 
0.61072

>  <percent_hybrid>  (98) 
15.0

>  <dist>  (98) 
4.0

>  <ecfp4>  (98) 
0.4

>  <daylight>  (98) 
0.686131

>  <topodist>  (98) 
1.0

>  <mces>  (98) 
14.0

>  <tdn>  (98) 
1.0

>  <tup>  (98) 
0.0

>  <rdn>  (98) 
0.0

>  <rup>  (98) 
0.0

>  <ldn>  (98) 
0.0

>  <lup>  (98) 
0.0

>  <mut>  (98) 
2.0

>  <maj>  (98) 
2.0

>  <min>  (98) 
0.0

>  <hyb>  (98) 
1.0

>  <sub>  (98) 
1.0

>  <query_index>  (98) 
75.0

>  <max_hit_Tanimoto>  (98) 
0.598621

>  <largest_ring>  (98) 
6

>  <N_interactions_kept>  (98) 
3.0

>  <N_interactions_lost>  (98) 
0.0

>  <interaction_uniqueness_metric>  (98) 
0.013281

>  <ad_hoc_penalty>  (98) 
-29.054467

>  <N_rotatable_bonds>  (98) 
2

>  <N_HA>  (98) 
13

>  <cluster>  (98) 
6076

>  <N_interactions>  (98) 
2

>  <Enamine>  (98) 
0

>  <Mcule>  (98) 
1

>  <N_PAINS>  (98) 
0

>  <UFF_Gibbs>  (98) 
28.961988

>  <strain_per_HA>  (98) 
2.227845

>  <saltbridge:HIS:51>  (98) 
0

>  <pistack:HIS:51>  (98) 
0

>  <hydroph_interaction:HIS:51>  (98) 
0

>  <hbond:ALA:132>  (98) 
0

>  <hbond:SER:135>  (98) 
0

>  <hydroph_interaction:TYR:150>  (98) 
0

>  <pistack:TYR:161>  (98) 
0

>  <hydroph_interaction:TYR:161>  (98) 
2

>  <hydroph_interaction:ASP:83>  (98) 
0

>  <hbond:TYR:130>  (98) 
0

>  <hydroph_interaction:ALA:132>  (98) 
0

>  <hbond:HIS:51>  (98) 
0

>  <hbond:ASP:129>  (98) 
0

>  <hbond:TYR:150>  (98) 
0

>  <hbond:GLY:151>  (98) 
0

>  <hbond:TYR:161>  (98) 
0

>  <hydroph_interaction:TYR:130>  (98) 
0

>  <hydroph_interaction:PRO:131>  (98) 
0

>  <hydroph_interaction:ASP:129>  (98) 
0

>  <saltbridge:ASP:75>  (98) 
0

>  <saltbridge:ASP:83>  (98) 
0

>  <hydroph_interaction:ASN:152>  (98) 
0

>  <halogenbond:TYR:150>  (98) 
0

>  <hbond:ASP:83>  (98) 
0

>  <hydroph_interaction:VAL:155>  (98) 
0

>  <pication:TYR:161>  (98) 
0

>  <hbond:PRO:131>  (98) 
0

>  <hbond:LEU:128>  (98) 
0

>  <saltbridge:ASP:129>  (98) 
0

>  <hbond:THR:134>  (98) 
0

>  <pication:HIS:51>  (98) 
0

>  <hbond:SER:81>  (98) 
0

>  <hbond:GLY:159>  (98) 
0

>  <hydroph_interaction:PRO:101>  (98) 
0

>  <hydroph_interaction:THR:134>  (98) 
0

>  <hbond:GLY:82>  (98) 
0

>  <hydroph_interaction:GLU:104>  (98) 
0

>  <hydroph_interaction:VAL:36>  (98) 
0

>  <hydroph_interaction:MET:49>  (98) 
0

>  <halogenbond:GLU:104>  (98) 
0

>  <hydroph_interaction:LYS:107>  (98) 
0

$$$$
BDRHWCPXAHAAIK-UHFFFAOYSA-N
     RDKit          3D

 27 28  0  0  0  0  0  0  0  0999 V2000
   -5.4629    5.4349  -17.4548 N   0  0  0  0  0  0  0  0  0  0  0  0
   -4.0332    5.5330  -17.8170 C   0  0  0  0  0  0  0  0  0  0  0  0
   -3.1614    4.9360  -16.7157 C   0  0  0  0  0  0  0  0  0  0  0  0
   -6.3513    5.2044  -18.6303 C   0  0  0  0  0  0  0  0  0  0  0  0
   -6.2388    6.2965  -19.7148 C   0  0  0  0  0  0  0  0  0  0  0  0
   -7.7815    5.0972  -18.1733 C   0  0  0  0  0  0  0  0  0  0  0  0
   -8.2008    5.6604  -16.9804 C   0  0  0  0  0  0  0  0  0  0  0  0
   -9.8473    5.3876  -16.7969 S   0  0  0  0  0  0  0  0  0  0  0  0
  -10.0532    4.5839  -18.2649 C   0  0  0  0  0  0  0  0  0  0  0  0
   -8.8211    4.5076  -18.9058 C   0  0  0  0  0  0  0  0  0  0  0  0
   -7.2763    6.2608  -15.9711 C   0  0  0  0  0  0  0  0  0  0  0  0
   -5.9105    6.5677  -16.6070 C   0  0  0  0  0  0  0  0  0  0  0  0
   -3.7359    6.5897  -18.0026 H   0  0  0  0  0  0  0  0  0  0  0  0
   -3.8200    4.9538  -18.7432 H   0  0  0  0  0  0  0  0  0  0  0  0
   -2.1004    4.9308  -17.0433 H   0  0  0  0  0  0  0  0  0  0  0  0
   -3.2346    5.5321  -15.7832 H   0  0  0  0  0  0  0  0  0  0  0  0
   -3.4752    3.8912  -16.5068 H   0  0  0  0  0  0  0  0  0  0  0  0
   -6.0752    4.2306  -19.0925 H   0  0  0  0  0  0  0  0  0  0  0  0
   -6.8556    6.0125  -20.5941 H   0  0  0  0  0  0  0  0  0  0  0  0
   -5.1944    6.4095  -20.0694 H   0  0  0  0  0  0  0  0  0  0  0  0
   -6.6052    7.2768  -19.3471 H   0  0  0  0  0  0  0  0  0  0  0  0
  -10.9854    4.1888  -18.6450 H   0  0  0  0  0  0  0  0  0  0  0  0
   -8.6826    4.0391  -19.8713 H   0  0  0  0  0  0  0  0  0  0  0  0
   -7.1410    5.5349  -15.1411 H   0  0  0  0  0  0  0  0  0  0  0  0
   -7.7198    7.1930  -15.5613 H   0  0  0  0  0  0  0  0  0  0  0  0
   -5.1896    6.7482  -15.7817 H   0  0  0  0  0  0  0  0  0  0  0  0
   -5.9688    7.5079  -17.1954 H   0  0  0  0  0  0  0  0  0  0  0  0
  1  2  1  0
  2  3  1  0
  1  4  1  0
  4  5  1  0
  4  6  1  0
  6  7  2  0
  7  8  1  0
  8  9  1  0
  9 10  2  0
  7 11  1  0
 11 12  1  0
 12  1  1  0
 10  6  1  0
  2 13  1  0
  2 14  1  0
  3 15  1  0
  3 16  1  0
  3 17  1  0
  4 18  1  0
  5 19  1  0
  5 20  1  0
  5 21  1  0
  9 22  1  0
 10 23  1  0
 11 24  1  0
 11 25  1  0
 12 26  1  0
 12 27  1  0
A    1
 N1 
A    2
 C1 
A    3
 C2 
A    4
 C3 
A    5
 C4 
A    6
 C5 
A    7
 C6 
A    8
 S1 
A    9
 C7 
A   10
 C8 
A   11
 C9 
A   12
 C10
A   13
 H1 
A   14
 H2 
A   15
 H3 
A   16
 H4 
A   17
 H5 
A   18
 H6 
A   19
 H7 
A   20
 H8 
A   21
 H9 
A   22
 H10
A   23
 H11
A   24
 H12
A   25
 H13
A   26
 H14
A   27
 H15
M  END
>  <ref_pdb>  (99) 
x0051_0B

>  <ref_mols>  (99) 
x0472_0B,x0386_0B

>  <original SMILES>  (99) 
[H]c1sc2c(c1[H])C([H])(C([H])([H])[H])N(C([H])([H])C([H])([H])[H])C([H])([H])C2([H])[H]

>  <index>  (99) 
137

>  <∆∆G>  (99) 
-7.393602

>  <∆G_bound>  (99) 
-7.562548

>  <∆G_unbound>  (99) 
-0.168946

>  <comRMSD>  (99) 
0.642238

>  <N_constrained_atoms>  (99) 
14.0

>  <N_unconstrained_atoms>  (99) 
0.0

>  <runtime>  (99) 
22.687302

>  <LE>  (99) 
0.528114

>  <percent_hybrid>  (99) 
13.0

>  <dist>  (99) 
3.0

>  <ecfp4>  (99) 
0.425532

>  <daylight>  (99) 
0.770492

>  <topodist>  (99) 
2.0

>  <mces>  (99) 
13.0

>  <tdn>  (99) 
2.0

>  <tup>  (99) 
0.0

>  <rdn>  (99) 
0.0

>  <rup>  (99) 
0.0

>  <ldn>  (99) 
0.0

>  <lup>  (99) 
0.0

>  <mut>  (99) 
1.0

>  <maj>  (99) 
1.0

>  <min>  (99) 
0.0

>  <hyb>  (99) 
0.0

>  <sub>  (99) 
1.0

>  <query_index>  (99) 
75.0

>  <max_hit_Tanimoto>  (99) 
0.6832

>  <largest_ring>  (99) 
6

>  <N_interactions_kept>  (99) 
3.0

>  <N_interactions_lost>  (99) 
0.0

>  <interaction_uniqueness_metric>  (99) 
0.046449

>  <ad_hoc_penalty>  (99) 
-28.981757

>  <N_rotatable_bonds>  (99) 
3

>  <N_HA>  (99) 
12

>  <cluster>  (99) 
506

>  <N_interactions>  (99) 
3

>  <Enamine>  (99) 
0

>  <Mcule>  (99) 
1

>  <N_PAINS>  (99) 
0

>  <UFF_Gibbs>  (99) 
50.557139

>  <strain_per_HA>  (99) 
3.611224

>  <saltbridge:HIS:51>  (99) 
0

>  <pistack:HIS:51>  (99) 
0

>  <hydroph_interaction:HIS:51>  (99) 
0

>  <hbond:ALA:132>  (99) 
0

>  <hbond:SER:135>  (99) 
0

>  <hydroph_interaction:TYR:150>  (99) 
0

>  <pistack:TYR:161>  (99) 
0

>  <hydroph_interaction:TYR:161>  (99) 
2

>  <hydroph_interaction:ASP:83>  (99) 
0

>  <hbond:TYR:130>  (99) 
0

>  <hydroph_interaction:ALA:132>  (99) 
0

>  <hbond:HIS:51>  (99) 
0

>  <hbond:ASP:129>  (99) 
0

>  <hbond:TYR:150>  (99) 
0

>  <hbond:GLY:151>  (99) 
0

>  <hbond:TYR:161>  (99) 
0

>  <hydroph_interaction:TYR:130>  (99) 
0

>  <hydroph_interaction:PRO:131>  (99) 
0

>  <hydroph_interaction:ASP:129>  (99) 
0

>  <saltbridge:ASP:75>  (99) 
0

>  <saltbridge:ASP:83>  (99) 
0

>  <hydroph_interaction:ASN:152>  (99) 
0

>  <halogenbond:TYR:150>  (99) 
0

>  <hbond:ASP:83>  (99) 
0

>  <hydroph_interaction:VAL:155>  (99) 
1

>  <pication:TYR:161>  (99) 
0

>  <hbond:PRO:131>  (99) 
0

>  <hbond:LEU:128>  (99) 
0

>  <saltbridge:ASP:129>  (99) 
0

>  <hbond:THR:134>  (99) 
0

>  <pication:HIS:51>  (99) 
0

>  <hbond:SER:81>  (99) 
0

>  <hbond:GLY:159>  (99) 
0

>  <hydroph_interaction:PRO:101>  (99) 
0

>  <hydroph_interaction:THR:134>  (99) 
0

>  <hbond:GLY:82>  (99) 
0

>  <hydroph_interaction:GLU:104>  (99) 
0

>  <hydroph_interaction:VAL:36>  (99) 
0

>  <hydroph_interaction:MET:49>  (99) 
0

>  <halogenbond:GLU:104>  (99) 
0

>  <hydroph_interaction:LYS:107>  (99) 
0

$$$$
YNWMZRNWSADURW-UHFFFAOYSA-N
     RDKit          3D

 48 51  0  0  0  0  0  0  0  0999 V2000
   -8.8285    7.2818  -13.8343 C   0  0  0  0  0  0  0  0  0  0  0  0
   -8.4458    6.6304  -15.0540 N   0  0  0  0  0  0  0  0  0  0  0  0
   -7.4916    5.5194  -15.0762 C   0  0  0  0  0  0  0  0  0  0  0  0
   -7.4279    4.8989  -16.4552 C   0  0  0  0  0  0  0  0  0  0  0  0
   -6.7456    5.5143  -17.5414 C   0  0  0  0  0  0  0  0  0  0  0  0
   -6.7500    4.8805  -18.8146 C   0  0  0  0  0  0  0  0  0  0  0  0
   -6.0842    5.4724  -19.8993 C   0  0  0  0  0  0  0  0  0  0  0  0
   -5.4164    6.6865  -19.7369 C   0  0  0  0  0  0  0  0  0  0  0  0
   -5.4070    7.3200  -18.4945 C   0  0  0  0  0  0  0  0  0  0  0  0
   -6.0643    6.7451  -17.4040 C   0  0  0  0  0  0  0  0  0  0  0  0
   -7.4234    3.6644  -18.9899 C   0  0  0  0  0  0  0  0  0  0  0  0
   -8.1001    3.0754  -17.9233 C   0  0  0  0  0  0  0  0  0  0  0  0
   -8.1102    3.6885  -16.6715 C   0  0  0  0  0  0  0  0  0  0  0  0
   -9.0939    8.5131  -13.8557 O   0  0  0  0  0  0  0  0  0  0  0  0
   -8.9601    6.5332  -12.5651 C   0  0  0  0  0  0  0  0  0  0  0  0
   -8.4149    7.0204  -11.3585 C   0  0  0  0  0  0  0  0  0  0  0  0
   -7.4893    8.5188  -11.2939 Cl  0  0  0  0  0  0  0  0  0  0  0  0
   -8.5745    6.2893  -10.1748 C   0  0  0  0  0  0  0  0  0  0  0  0
   -9.2736    5.0721  -10.1711 C   0  0  0  0  0  0  0  0  0  0  0  0
   -9.4203    4.3237   -8.9483 N   0  0  0  0  0  0  0  0  0  0  0  0
  -10.6790    3.6333   -8.6488 C   0  0  0  0  0  0  0  0  0  0  0  0
  -10.8518    3.5049   -7.1318 C   0  0  0  0  0  0  0  0  0  0  0  0
   -9.7061    2.9178   -6.5438 O   0  0  0  0  0  0  0  0  0  0  0  0
   -8.5914    3.7756   -6.7071 C   0  0  0  0  0  0  0  0  0  0  0  0
   -8.2305    3.9244   -8.1887 C   0  0  0  0  0  0  0  0  0  0  0  0
   -9.8307    4.6015  -11.3704 C   0  0  0  0  0  0  0  0  0  0  0  0
   -9.6794    5.3274  -12.5531 C   0  0  0  0  0  0  0  0  0  0  0  0
   -8.6469    7.1360  -15.9479 H   0  0  0  0  0  0  0  0  0  0  0  0
   -6.4898    5.8775  -14.7599 H   0  0  0  0  0  0  0  0  0  0  0  0
   -7.7827    4.7495  -14.3332 H   0  0  0  0  0  0  0  0  0  0  0  0
   -6.0820    4.9974  -20.8732 H   0  0  0  0  0  0  0  0  0  0  0  0
   -4.9062    7.1404  -20.5778 H   0  0  0  0  0  0  0  0  0  0  0  0
   -4.8882    8.2612  -18.3749 H   0  0  0  0  0  0  0  0  0  0  0  0
   -6.0359    7.2799  -16.4645 H   0  0  0  0  0  0  0  0  0  0  0  0
   -7.4322    3.1715  -19.9553 H   0  0  0  0  0  0  0  0  0  0  0  0
   -8.6243    2.1387  -18.0681 H   0  0  0  0  0  0  0  0  0  0  0  0
   -8.6550    3.2136  -15.8648 H   0  0  0  0  0  0  0  0  0  0  0  0
   -8.1621    6.6787   -9.2521 H   0  0  0  0  0  0  0  0  0  0  0  0
  -11.5407    4.2012   -9.0629 H   0  0  0  0  0  0  0  0  0  0  0  0
  -10.6617    2.6200   -9.1064 H   0  0  0  0  0  0  0  0  0  0  0  0
  -11.7277    2.8530   -6.9262 H   0  0  0  0  0  0  0  0  0  0  0  0
  -11.0723    4.4993   -6.6792 H   0  0  0  0  0  0  0  0  0  0  0  0
   -7.7243    3.3329   -6.1733 H   0  0  0  0  0  0  0  0  0  0  0  0
   -8.7821    4.7745   -6.2507 H   0  0  0  0  0  0  0  0  0  0  0  0
   -7.4163    4.6730   -8.2896 H   0  0  0  0  0  0  0  0  0  0  0  0
   -7.8586    2.9519   -8.5792 H   0  0  0  0  0  0  0  0  0  0  0  0
  -10.3745    3.6670  -11.3950 H   0  0  0  0  0  0  0  0  0  0  0  0
  -10.1280    4.9487  -13.4633 H   0  0  0  0  0  0  0  0  0  0  0  0
  1  2  1  0
  2  3  1  0
  3  4  1  0
  4  5  1  0
  5  6  1  0
  6  7  2  0
  7  8  1  0
  8  9  2  0
  9 10  1  0
  6 11  1  0
 11 12  2  0
 12 13  1  0
  1 14  2  0
  1 15  1  0
 15 16  2  0
 16 17  1  0
 16 18  1  0
 18 19  2  0
 19 20  1  0
 20 21  1  0
 21 22  1  0
 22 23  1  0
 23 24  1  0
 24 25  1  0
 19 26  1  0
 26 27  2  0
  4 13  2  0
  5 10  2  0
 27 15  1  0
 25 20  1  0
  2 28  1  0
  3 29  1  0
  3 30  1  0
  7 31  1  0
  8 32  1  0
  9 33  1  0
 10 34  1  0
 11 35  1  0
 12 36  1  0
 13 37  1  0
 18 38  1  0
 21 39  1  0
 21 40  1  0
 22 41  1  0
 22 42  1  0
 24 43  1  0
 24 44  1  0
 25 45  1  0
 25 46  1  0
 26 47  1  0
 27 48  1  0
A    1
 C1 
A    2
 N1 
A    3
 C2 
A    4
 C3 
A    5
 C4 
A    6
 C5 
A    7
 C6 
A    8
 C7 
A    9
 C8 
A   10
 C9 
A   11
 C10
A   12
 C11
A   13
 C12
A   14
 O1 
A   15
 C13
A   16
 C14
A   17
CL1 
A   18
 C15
A   19
 C16
A   20
 N2 
A   21
 C17
A   22
 C18
A   23
 O2 
A   24
 C19
A   25
 C20
A   26
 C21
A   27
 C22
A   28
 H1 
A   29
 H2 
A   30
 H3 
A   31
 H4 
A   32
 H5 
A   33
 H6 
A   34
 H7 
A   35
 H8 
A   36
 H9 
A   37
 H10
A   38
 H11
A   39
 H12
A   40
 H13
A   41
 H14
A   42
 H15
A   43
 H16
A   44
 H17
A   45
 H18
A   46
 H19
A   47
 H20
A   48
 H21
M  END
>  <ref_pdb>  (100) 
x0051_0B

>  <ref_mols>  (100) 
x0727_0B,x0404_0B

>  <original SMILES>  (100) 
[H]c1c([H])c(N2C([H])([H])C([H])([H])OC([H])([H])C2([H])[H])c([H])c(Cl)c1C(=O)N([H])C([H])([H])c1c([H])c([H])c([H])c2c([H])c([H])c([H])c([H])c12

>  <index>  (100) 
94

>  <∆∆G>  (100) 
-8.695405

>  <∆G_bound>  (100) 
-7.893189

>  <∆G_unbound>  (100) 
0.802216

>  <comRMSD>  (100) 
0.590381

>  <N_constrained_atoms>  (100) 
26.0

>  <N_unconstrained_atoms>  (100) 
2.0

>  <runtime>  (100) 
80.23446

>  <LE>  (100) 
0.31055

>  <percent_hybrid>  (100) 
43.0

>  <dist>  (100) 
9.0

>  <ecfp4>  (100) 
0.195402

>  <daylight>  (100) 
0.174107

>  <topodist>  (100) 
4.0

>  <mces>  (100) 
29.0

>  <tdn>  (100) 
3.0

>  <tup>  (100) 
1.0

>  <rdn>  (100) 
0.0

>  <rup>  (100) 
0.0

>  <ldn>  (100) 
0.0

>  <lup>  (100) 
0.0

>  <mut>  (100) 
4.0

>  <maj>  (100) 
4.0

>  <min>  (100) 
0.0

>  <hyb>  (100) 
1.0

>  <sub>  (100) 
2.0

>  <query_index>  (100) 
0.0

>  <max_hit_Tanimoto>  (100) 
0.216931

>  <largest_ring>  (100) 
6

>  <N_interactions_kept>  (100) 
2.0

>  <N_interactions_lost>  (100) 
2.5

>  <interaction_uniqueness_metric>  (100) 
0.122046

>  <ad_hoc_penalty>  (100) 
-28.949041

>  <N_rotatable_bonds>  (100) 
4

>  <N_HA>  (100) 
27

>  <cluster>  (100) 
6130

>  <N_interactions>  (100) 
8

>  <Enamine>  (100) 
0

>  <Mcule>  (100) 
1

>  <N_PAINS>  (100) 
0

>  <UFF_Gibbs>  (100) 
195.860594

>  <strain_per_HA>  (100) 
6.995021

>  <saltbridge:HIS:51>  (100) 
0

>  <pistack:HIS:51>  (100) 
1

>  <hydroph_interaction:HIS:51>  (100) 
1

>  <hbond:ALA:132>  (100) 
0

>  <hbond:SER:135>  (100) 
0

>  <hydroph_interaction:TYR:150>  (100) 
1

>  <pistack:TYR:161>  (100) 
0

>  <hydroph_interaction:TYR:161>  (100) 
4

>  <hydroph_interaction:ASP:83>  (100) 
0

>  <hbond:TYR:130>  (100) 
0

>  <hydroph_interaction:ALA:132>  (100) 
1

>  <hbond:HIS:51>  (100) 
0

>  <hbond:ASP:129>  (100) 
0

>  <hbond:TYR:150>  (100) 
0

>  <hbond:GLY:151>  (100) 
0

>  <hbond:TYR:161>  (100) 
0

>  <hydroph_interaction:TYR:130>  (100) 
0

>  <hydroph_interaction:PRO:131>  (100) 
0

>  <hydroph_interaction:ASP:129>  (100) 
0

>  <saltbridge:ASP:75>  (100) 
0

>  <saltbridge:ASP:83>  (100) 
0

>  <hydroph_interaction:ASN:152>  (100) 
0

>  <halogenbond:TYR:150>  (100) 
0

>  <hbond:ASP:83>  (100) 
0

>  <hydroph_interaction:VAL:155>  (100) 
0

>  <pication:TYR:161>  (100) 
0

>  <hbond:PRO:131>  (100) 
0

>  <hbond:LEU:128>  (100) 
0

>  <saltbridge:ASP:129>  (100) 
0

>  <hbond:THR:134>  (100) 
0

>  <pication:HIS:51>  (100) 
0

>  <hbond:SER:81>  (100) 
0

>  <hbond:GLY:159>  (100) 
0

>  <hydroph_interaction:PRO:101>  (100) 
0

>  <hydroph_interaction:THR:134>  (100) 
0

>  <hbond:GLY:82>  (100) 
0

>  <hydroph_interaction:GLU:104>  (100) 
0

>  <hydroph_interaction:VAL:36>  (100) 
0

>  <hydroph_interaction:MET:49>  (100) 
0

>  <halogenbond:GLU:104>  (100) 
0

>  <hydroph_interaction:LYS:107>  (100) 
0

$$$$
PV-003810011278
     RDKit          3D

 40 43  0  0  0  0  0  0  0  0999 V2000
   -7.8257    6.9107  -13.2502 O   0  0  0  0  0  0  0  0  0  0  0  0
   -7.9228    5.6975  -13.5781 C   0  0  0  0  0  0  0  0  0  0  0  0
   -8.4231    4.7347  -12.6358 N   0  0  0  0  0  0  0  0  0  0  0  0
   -9.1907    5.0847  -11.4738 C   0  0  0  0  0  0  0  0  0  0  0  0
   -9.4827    4.2726  -10.4016 C   0  0  0  0  0  0  0  0  0  0  0  0
   -9.0991    2.9680  -10.1072 C   0  0  0  0  0  0  0  0  0  0  0  0
   -9.5772    2.4169   -8.9094 C   0  0  0  0  0  0  0  0  0  0  0  0
  -10.4082    3.1829   -8.0693 C   0  0  0  0  0  0  0  0  0  0  0  0
  -10.7435    4.4558   -8.4261 N   0  0  0  0  0  0  0  0  0  0  0  0
  -10.2750    4.9568   -9.5671 N   0  0  0  0  0  0  0  0  0  0  0  0
  -10.5316    6.1668  -10.0343 N   0  0  0  0  0  0  0  0  0  0  0  0
   -9.8759    6.2721  -11.2156 C   0  0  0  0  0  0  0  0  0  0  0  0
   -7.4744    5.2871  -14.9226 C   0  0  0  0  0  0  0  0  0  0  0  0
   -7.6861    4.0185  -15.4655 C   0  0  0  0  0  0  0  0  0  0  0  0
   -7.0386    4.0061  -17.0165 S   0  0  0  0  0  0  0  0  0  0  0  0
   -6.5103    5.6026  -16.9344 C   0  0  0  0  0  0  0  0  0  0  0  0
   -5.8298    6.3593  -18.0422 C   0  0  0  0  0  0  0  0  0  0  0  0
   -6.8272    6.6876  -19.1809 C   0  0  0  0  0  0  0  0  0  0  0  0
   -6.1452    6.8944  -20.5496 C   0  0  0  0  0  0  0  0  0  0  0  0
   -4.7104    7.4110  -20.4016 C   0  0  0  0  0  0  0  0  0  0  0  0
   -3.8261    6.4222  -19.6144 C   0  0  0  0  0  0  0  0  0  0  0  0
   -4.6063    5.5922  -18.5736 C   0  0  0  0  0  0  0  0  0  0  0  0
   -6.8313    6.1601  -15.7468 N   0  0  0  0  0  0  0  0  0  0  0  0
   -8.1787    3.7292  -12.7691 H   0  0  0  0  0  0  0  0  0  0  0  0
   -8.4580    2.3983  -10.7668 H   0  0  0  0  0  0  0  0  0  0  0  0
   -9.3080    1.4061   -8.6317 H   0  0  0  0  0  0  0  0  0  0  0  0
  -10.7818    2.7651   -7.1441 H   0  0  0  0  0  0  0  0  0  0  0  0
   -9.9227    7.1454  -11.8508 H   0  0  0  0  0  0  0  0  0  0  0  0
   -8.1953    3.1878  -14.9973 H   0  0  0  0  0  0  0  0  0  0  0  0
   -5.4604    7.3201  -17.6168 H   0  0  0  0  0  0  0  0  0  0  0  0
   -7.5784    5.8748  -19.2930 H   0  0  0  0  0  0  0  0  0  0  0  0
   -7.3843    7.6104  -18.9070 H   0  0  0  0  0  0  0  0  0  0  0  0
   -6.1227    5.9289  -21.1020 H   0  0  0  0  0  0  0  0  0  0  0  0
   -6.7387    7.6127  -21.1555 H   0  0  0  0  0  0  0  0  0  0  0  0
   -4.7329    8.3905  -19.8747 H   0  0  0  0  0  0  0  0  0  0  0  0
   -4.2704    7.5820  -21.4078 H   0  0  0  0  0  0  0  0  0  0  0  0
   -3.3300    5.7256  -20.3249 H   0  0  0  0  0  0  0  0  0  0  0  0
   -3.0238    6.9960  -19.1015 H   0  0  0  0  0  0  0  0  0  0  0  0
   -3.9266    5.3285  -17.7336 H   0  0  0  0  0  0  0  0  0  0  0  0
   -4.9429    4.6429  -19.0466 H   0  0  0  0  0  0  0  0  0  0  0  0
  1  2  2  0
  2  3  1  0
  3  4  1  0
  4  5  2  0
  5  6  1  0
  6  7  2  0
  7  8  1  0
  8  9  2  0
  9 10  1  0
 10 11  1  0
 11 12  2  0
  2 13  1  0
 13 14  2  0
 14 15  1  0
 15 16  1  0
 16 17  1  0
 17 18  1  0
 18 19  1  0
 19 20  1  0
 20 21  1  0
 21 22  1  0
 16 23  2  0
 12  4  1  0
 10  5  1  0
 23 13  1  0
 22 17  1  0
  3 24  1  0
  6 25  1  0
  7 26  1  0
  8 27  1  0
 12 28  1  0
 14 29  1  0
 17 30  1  0
 18 31  1  0
 18 32  1  0
 19 33  1  0
 19 34  1  0
 20 35  1  0
 20 36  1  0
 21 37  1  0
 21 38  1  0
 22 39  1  0
 22 40  1  0
A    1
 O1 
A    2
 C1 
A    3
 N1 
A    4
 C2 
A    5
 C3 
A    6
 C4 
A    7
 C5 
A    8
 C6 
A    9
 N2 
A   10
 N3 
A   11
 N4 
A   12
 C7 
A   13
 C8 
A   14
 C9 
A   15
 S1 
A   16
 C10
A   17
 C11
A   18
 C12
A   19
 C13
A   20
 C14
A   21
 C15
A   22
 C16
A   23
 N5 
A   24
 H1 
A   25
 H2 
A   26
 H3 
A   27
 H4 
A   28
 H5 
A   29
 H6 
A   30
 H7 
A   31
 H8 
A   32
 H9 
A   33
 H10
A   34
 H11
A   35
 H12
A   36
 H13
A   37
 H14
A   38
 H15
A   39
 H16
A   40
 H17
M  END
>  <ref_pdb>  (101) 
x0051_0B

>  <ref_mols>  (101) 
x0917_1B,x0969_1B

>  <original SMILES>  (101) 
[H]c1nn2nc([H])c(N([H])C(=O)c3nc(C4([H])C([H])([H])C([H])([H])C([H])([H])C([H])([H])C4([H])[H])sc3[H])c2c([H])c1[H]

>  <index>  (101) 
131

>  <∆∆G>  (101) 
-5.20595

>  <∆G_bound>  (101) 
-4.153176

>  <∆G_unbound>  (101) 
1.052774

>  <comRMSD>  (101) 
0.679352

>  <N_constrained_atoms>  (101) 
24.0

>  <N_unconstrained_atoms>  (101) 
0.0

>  <runtime>  (101) 
49.236144

>  <LE>  (101) 
0.216915

>  <percent_hybrid>  (101) 
40.0

>  <dist>  (101) 
11.0

>  <ecfp4>  (101) 
0.164835

>  <daylight>  (101) 
0.194805

>  <topodist>  (101) 
2.0

>  <mces>  (101) 
26.0

>  <tdn>  (101) 
2.0

>  <tup>  (101) 
0.0

>  <rdn>  (101) 
0.0

>  <rup>  (101) 
0.0

>  <ldn>  (101) 
0.0

>  <lup>  (101) 
0.0

>  <mut>  (101) 
6.0

>  <maj>  (101) 
6.0

>  <min>  (101) 
0.0

>  <hyb>  (101) 
3.0

>  <sub>  (101) 
0.0

>  <query_index>  (101) 
298.0

>  <max_hit_Tanimoto>  (101) 
0.252297

>  <largest_ring>  (101) 
6

>  <N_interactions_kept>  (101) 
2.5

>  <N_interactions_lost>  (101) 
0.5

>  <interaction_uniqueness_metric>  (101) 
0.1011

>  <ad_hoc_penalty>  (101) 
-28.875416

>  <N_rotatable_bonds>  (101) 
3

>  <N_HA>  (101) 
23

>  <cluster>  (101) 
6097

>  <N_interactions>  (101) 
5

>  <Enamine>  (101) 
1

>  <Mcule>  (101) 
0

>  <N_PAINS>  (101) 
0

>  <UFF_Gibbs>  (101) 
115.601597

>  <strain_per_HA>  (101) 
4.816733

>  <saltbridge:HIS:51>  (101) 
0

>  <pistack:HIS:51>  (101) 
1

>  <hydroph_interaction:HIS:51>  (101) 
0

>  <hbond:ALA:132>  (101) 
0

>  <hbond:SER:135>  (101) 
0

>  <hydroph_interaction:TYR:150>  (101) 
0

>  <pistack:TYR:161>  (101) 
0

>  <hydroph_interaction:TYR:161>  (101) 
2

>  <hydroph_interaction:ASP:83>  (101) 
0

>  <hbond:TYR:130>  (101) 
0

>  <hydroph_interaction:ALA:132>  (101) 
1

>  <hbond:HIS:51>  (101) 
0

>  <hbond:ASP:129>  (101) 
0

>  <hbond:TYR:150>  (101) 
0

>  <hbond:GLY:151>  (101) 
1

>  <hbond:TYR:161>  (101) 
0

>  <hydroph_interaction:TYR:130>  (101) 
0

>  <hydroph_interaction:PRO:131>  (101) 
0

>  <hydroph_interaction:ASP:129>  (101) 
0

>  <saltbridge:ASP:75>  (101) 
0

>  <saltbridge:ASP:83>  (101) 
0

>  <hydroph_interaction:ASN:152>  (101) 
0

>  <halogenbond:TYR:150>  (101) 
0

>  <hbond:ASP:83>  (101) 
0

>  <hydroph_interaction:VAL:155>  (101) 
0

>  <pication:TYR:161>  (101) 
0

>  <hbond:PRO:131>  (101) 
0

>  <hbond:LEU:128>  (101) 
0

>  <saltbridge:ASP:129>  (101) 
0

>  <hbond:THR:134>  (101) 
0

>  <pication:HIS:51>  (101) 
0

>  <hbond:SER:81>  (101) 
0

>  <hbond:GLY:159>  (101) 
0

>  <hydroph_interaction:PRO:101>  (101) 
0

>  <hydroph_interaction:THR:134>  (101) 
0

>  <hbond:GLY:82>  (101) 
0

>  <hydroph_interaction:GLU:104>  (101) 
0

>  <hydroph_interaction:VAL:36>  (101) 
0

>  <hydroph_interaction:MET:49>  (101) 
0

>  <halogenbond:GLU:104>  (101) 
0

>  <hydroph_interaction:LYS:107>  (101) 
0

$$$$
MCULE-6944238997
     RDKit          3D

 21 22  0  0  0  0  0  0  0  0999 V2000
   -8.1007    5.7988  -16.9893 N   0  0  0  0  0  0  0  0  0  0  0  0
   -9.3976    5.5829  -16.6886 C   0  0  0  0  0  0  0  0  0  0  0  0
  -10.1795    6.2182  -15.2577 Cl  0  0  0  0  0  0  0  0  0  0  0  0
  -10.1540    4.6398  -17.8516 S   0  0  0  0  0  0  0  0  0  0  0  0
   -8.7662    4.4946  -18.7902 C   0  0  0  0  0  0  0  0  0  0  0  0
   -7.7376    5.1927  -18.1538 C   0  0  0  0  0  0  0  0  0  0  0  0
   -6.3636    5.3021  -18.7060 C   0  0  0  0  0  0  0  0  0  0  0  0
   -6.2000    5.4427  -20.0977 C   0  0  0  0  0  0  0  0  0  0  0  0
   -4.9290    5.5810  -20.6570 C   0  0  0  0  0  0  0  0  0  0  0  0
   -3.8016    5.5833  -19.8387 C   0  0  0  0  0  0  0  0  0  0  0  0
   -3.9392    5.4376  -18.4580 C   0  0  0  0  0  0  0  0  0  0  0  0
   -5.2101    5.2815  -17.8760 C   0  0  0  0  0  0  0  0  0  0  0  0
   -5.3019    5.0956  -16.3837 C   0  0  0  0  0  0  0  0  0  0  0  0
   -8.6890    3.9424  -19.7174 H   0  0  0  0  0  0  0  0  0  0  0  0
   -7.0602    5.4698  -20.7550 H   0  0  0  0  0  0  0  0  0  0  0  0
   -4.8192    5.6957  -21.7277 H   0  0  0  0  0  0  0  0  0  0  0  0
   -2.8176    5.6970  -20.2751 H   0  0  0  0  0  0  0  0  0  0  0  0
   -3.0482    5.4383  -17.8422 H   0  0  0  0  0  0  0  0  0  0  0  0
   -6.0116    4.2772  -16.1393 H   0  0  0  0  0  0  0  0  0  0  0  0
   -4.3179    4.8198  -15.9479 H   0  0  0  0  0  0  0  0  0  0  0  0
   -5.6401    6.0402  -15.9092 H   0  0  0  0  0  0  0  0  0  0  0  0
  1  2  2  0
  2  3  1  0
  2  4  1  0
  4  5  1  0
  5  6  2  0
  6  7  1  0
  7  8  2  0
  8  9  1  0
  9 10  2  0
 10 11  1  0
 11 12  2  0
 12 13  1  0
  6  1  1  0
  7 12  1  0
  5 14  1  0
  8 15  1  0
  9 16  1  0
 10 17  1  0
 11 18  1  0
 13 19  1  0
 13 20  1  0
 13 21  1  0
A    1
 N1 
A    2
 C1 
A    3
CL1 
A    4
 S1 
A    5
 C2 
A    6
 C3 
A    7
 C4 
A    8
 C5 
A    9
 C6 
A   10
 C7 
A   11
 C8 
A   12
 C9 
A   13
 C10
A   14
 H1 
A   15
 H2 
A   16
 H3 
A   17
 H4 
A   18
 H5 
A   19
 H6 
A   20
 H7 
A   21
 H8 
M  END
>  <ref_pdb>  (102) 
x0051_0B

>  <ref_mols>  (102) 
x0680_0B,x0386_0B

>  <original SMILES>  (102) 
[H]c1sc(Cl)nc1-c1c([H])c([H])c([H])c([H])c1C([H])([H])[H]

>  <index>  (102) 
149

>  <∆∆G>  (102) 
-6.691587

>  <∆G_bound>  (102) 
-6.829613

>  <∆G_unbound>  (102) 
-0.138026

>  <comRMSD>  (102) 
0.659682

>  <N_constrained_atoms>  (102) 
12.0

>  <N_unconstrained_atoms>  (102) 
1.0

>  <runtime>  (102) 
26.406347

>  <LE>  (102) 
0.514737

>  <percent_hybrid>  (102) 
17.0

>  <dist>  (102) 
3.0

>  <ecfp4>  (102) 
0.26

>  <daylight>  (102) 
0.2

>  <topodist>  (102) 
1.0

>  <mces>  (102) 
13.0

>  <tdn>  (102) 
0.0

>  <tup>  (102) 
1.0

>  <rdn>  (102) 
0.0

>  <rup>  (102) 
0.0

>  <ldn>  (102) 
0.0

>  <lup>  (102) 
0.0

>  <mut>  (102) 
2.0

>  <maj>  (102) 
1.0

>  <min>  (102) 
1.0

>  <hyb>  (102) 
0.0

>  <sub>  (102) 
1.0

>  <query_index>  (102) 
296.0

>  <max_hit_Tanimoto>  (102) 
0.11437

>  <largest_ring>  (102) 
6

>  <N_interactions_kept>  (102) 
3.5

>  <N_interactions_lost>  (102) 
0.5

>  <interaction_uniqueness_metric>  (102) 
0.018782

>  <ad_hoc_penalty>  (102) 
-28.865152

>  <N_rotatable_bonds>  (102) 
2

>  <N_HA>  (102) 
13

>  <cluster>  (102) 
6082

>  <N_interactions>  (102) 
4

>  <Enamine>  (102) 
0

>  <Mcule>  (102) 
1

>  <N_PAINS>  (102) 
0

>  <UFF_Gibbs>  (102) 
33.795034

>  <strain_per_HA>  (102) 
2.599618

>  <saltbridge:HIS:51>  (102) 
0

>  <pistack:HIS:51>  (102) 
0

>  <hydroph_interaction:HIS:51>  (102) 
0

>  <hbond:ALA:132>  (102) 
0

>  <hbond:SER:135>  (102) 
0

>  <hydroph_interaction:TYR:150>  (102) 
0

>  <pistack:TYR:161>  (102) 
0

>  <hydroph_interaction:TYR:161>  (102) 
4

>  <hydroph_interaction:ASP:83>  (102) 
0

>  <hbond:TYR:130>  (102) 
0

>  <hydroph_interaction:ALA:132>  (102) 
0

>  <hbond:HIS:51>  (102) 
0

>  <hbond:ASP:129>  (102) 
0

>  <hbond:TYR:150>  (102) 
0

>  <hbond:GLY:151>  (102) 
0

>  <hbond:TYR:161>  (102) 
0

>  <hydroph_interaction:TYR:130>  (102) 
0

>  <hydroph_interaction:PRO:131>  (102) 
0

>  <hydroph_interaction:ASP:129>  (102) 
0

>  <saltbridge:ASP:75>  (102) 
0

>  <saltbridge:ASP:83>  (102) 
0

>  <hydroph_interaction:ASN:152>  (102) 
0

>  <halogenbond:TYR:150>  (102) 
0

>  <hbond:ASP:83>  (102) 
0

>  <hydroph_interaction:VAL:155>  (102) 
0

>  <pication:TYR:161>  (102) 
0

>  <hbond:PRO:131>  (102) 
0

>  <hbond:LEU:128>  (102) 
0

>  <saltbridge:ASP:129>  (102) 
0

>  <hbond:THR:134>  (102) 
0

>  <pication:HIS:51>  (102) 
0

>  <hbond:SER:81>  (102) 
0

>  <hbond:GLY:159>  (102) 
0

>  <hydroph_interaction:PRO:101>  (102) 
0

>  <hydroph_interaction:THR:134>  (102) 
0

>  <hbond:GLY:82>  (102) 
0

>  <hydroph_interaction:GLU:104>  (102) 
0

>  <hydroph_interaction:VAL:36>  (102) 
0

>  <hydroph_interaction:MET:49>  (102) 
0

>  <halogenbond:GLU:104>  (102) 
0

>  <hydroph_interaction:LYS:107>  (102) 
0

$$$$
AXQZMZQPFSSVKN-UHFFFAOYSA-N
     RDKit          3D

 38 39  0  0  0  0  0  0  0  0999 V2000
   -3.6419    5.8196  -17.7100 C   0  0  0  0  0  0  0  0  0  0  0  0
   -5.0457    6.0585  -17.4909 N   0  0  0  0  0  0  0  0  0  0  0  0
   -5.5028    7.1494  -16.6097 C   0  0  0  0  0  0  0  0  0  0  0  0
   -6.5724    6.6553  -15.6202 C   0  0  0  0  0  0  0  0  0  0  0  0
   -7.5046    5.6805  -16.2687 C   0  0  0  0  0  0  0  0  0  0  0  0
   -7.2455    5.0118  -17.4557 C   0  0  0  0  0  0  0  0  0  0  0  0
   -8.2246    4.0640  -17.7850 C   0  0  0  0  0  0  0  0  0  0  0  0
   -9.2404    3.9735  -16.8403 C   0  0  0  0  0  0  0  0  0  0  0  0
   -8.9190    5.0694  -15.6014 S   0  0  0  0  0  0  0  0  0  0  0  0
   -6.0353    5.3171  -18.2944 C   0  0  0  0  0  0  0  0  0  0  0  0
   -6.4331    6.1233  -19.5344 C   0  0  0  0  0  0  0  0  0  0  0  0
   -3.2147    5.6495  -18.8838 O   0  0  0  0  0  0  0  0  0  0  0  0
   -2.6783    5.6880  -16.5596 C   0  0  0  0  0  0  0  0  0  0  0  0
   -3.1573    4.6629  -15.5215 C   0  0  0  0  0  0  0  0  0  0  0  0
   -3.2585    3.2406  -16.1012 C   0  0  0  0  0  0  0  0  0  0  0  0
   -3.9071    2.2550  -15.1173 C   0  0  0  0  0  0  0  0  0  0  0  0
   -5.4265    2.4221  -15.0383 C   0  0  0  0  0  0  0  0  0  0  0  0
   -5.9311    7.9621  -17.2344 H   0  0  0  0  0  0  0  0  0  0  0  0
   -4.6602    7.5909  -16.0387 H   0  0  0  0  0  0  0  0  0  0  0  0
   -7.1509    7.5218  -15.2353 H   0  0  0  0  0  0  0  0  0  0  0  0
   -6.0864    6.1575  -14.7565 H   0  0  0  0  0  0  0  0  0  0  0  0
   -8.1915    3.4556  -18.6792 H   0  0  0  0  0  0  0  0  0  0  0  0
  -10.0879    3.3035  -16.8894 H   0  0  0  0  0  0  0  0  0  0  0  0
   -5.5969    4.3493  -18.6265 H   0  0  0  0  0  0  0  0  0  0  0  0
   -7.1172    5.5260  -20.1742 H   0  0  0  0  0  0  0  0  0  0  0  0
   -5.5322    6.3761  -20.1314 H   0  0  0  0  0  0  0  0  0  0  0  0
   -6.9474    7.0646  -19.2462 H   0  0  0  0  0  0  0  0  0  0  0  0
   -1.6788    5.3804  -16.9382 H   0  0  0  0  0  0  0  0  0  0  0  0
   -2.5492    6.6757  -16.0706 H   0  0  0  0  0  0  0  0  0  0  0  0
   -2.4378    4.6552  -14.6740 H   0  0  0  0  0  0  0  0  0  0  0  0
   -4.1335    4.9879  -15.1171 H   0  0  0  0  0  0  0  0  0  0  0  0
   -3.8352    3.2379  -17.0508 H   0  0  0  0  0  0  0  0  0  0  0  0
   -2.2322    2.8835  -16.3365 H   0  0  0  0  0  0  0  0  0  0  0  0
   -3.6909    1.2206  -15.4620 H   0  0  0  0  0  0  0  0  0  0  0  0
   -3.4633    2.3720  -14.1048 H   0  0  0  0  0  0  0  0  0  0  0  0
   -5.8520    1.6232  -14.3955 H   0  0  0  0  0  0  0  0  0  0  0  0
   -5.6979    3.4018  -14.5946 H   0  0  0  0  0  0  0  0  0  0  0  0
   -5.8810    2.3399  -16.0487 H   0  0  0  0  0  0  0  0  0  0  0  0
  1  2  1  0
  2  3  1  0
  3  4  1  0
  4  5  1  0
  5  6  2  0
  6  7  1  0
  7  8  2  0
  8  9  1  0
  6 10  1  0
 10 11  1  0
  1 12  2  0
  1 13  1  0
 13 14  1  0
 14 15  1  0
 15 16  1  0
 16 17  1  0
 10  2  1  0
  9  5  1  0
  3 18  1  0
  3 19  1  0
  4 20  1  0
  4 21  1  0
  7 22  1  0
  8 23  1  0
 10 24  1  0
 11 25  1  0
 11 26  1  0
 11 27  1  0
 13 28  1  0
 13 29  1  0
 14 30  1  0
 14 31  1  0
 15 32  1  0
 15 33  1  0
 16 34  1  0
 16 35  1  0
 17 36  1  0
 17 37  1  0
 17 38  1  0
A    1
 C1 
A    2
 N1 
A    3
 C2 
A    4
 C3 
A    5
 C4 
A    6
 C5 
A    7
 C6 
A    8
 C7 
A    9
 S1 
A   10
 C8 
A   11
 C9 
A   12
 O1 
A   13
 C10
A   14
 C11
A   15
 C12
A   16
 C13
A   17
 C14
A   18
 H1 
A   19
 H2 
A   20
 H3 
A   21
 H4 
A   22
 H5 
A   23
 H6 
A   24
 H7 
A   25
 H8 
A   26
 H9 
A   27
 H10
A   28
 H11
A   29
 H12
A   30
 H13
A   31
 H14
A   32
 H15
A   33
 H16
A   34
 H17
A   35
 H18
A   36
 H19
A   37
 H20
A   38
 H21
M  END
>  <ref_pdb>  (103) 
x0051_0B

>  <ref_mols>  (103) 
x0472_0B,x0803_0B

>  <original SMILES>  (103) 
[H]c1sc2c(c1[H])C([H])(C([H])([H])[H])N(C(=O)C([H])([H])C([H])([H])C([H])([H])C([H])([H])C([H])([H])[H])C([H])([H])C2([H])[H]

>  <index>  (103) 
165

>  <∆∆G>  (103) 
-8.563703

>  <∆G_bound>  (103) 
-8.316625

>  <∆G_unbound>  (103) 
0.247078

>  <comRMSD>  (103) 
0.615978

>  <N_constrained_atoms>  (103) 
17.0

>  <N_unconstrained_atoms>  (103) 
3.0

>  <runtime>  (103) 
28.770051

>  <LE>  (103) 
0.428185

>  <percent_hybrid>  (103) 
40.0

>  <dist>  (103) 
7.0

>  <ecfp4>  (103) 
0.214286

>  <daylight>  (103) 
0.427481

>  <topodist>  (103) 
3.0

>  <mces>  (103) 
18.0

>  <tdn>  (103) 
1.0

>  <tup>  (103) 
0.0

>  <rdn>  (103) 
2.0

>  <rup>  (103) 
0.0

>  <ldn>  (103) 
0.0

>  <lup>  (103) 
0.0

>  <mut>  (103) 
3.0

>  <maj>  (103) 
3.0

>  <min>  (103) 
0.0

>  <hyb>  (103) 
1.0

>  <sub>  (103) 
4.0

>  <query_index>  (103) 
219.0

>  <max_hit_Tanimoto>  (103) 
0.556818

>  <largest_ring>  (103) 
6

>  <N_interactions_kept>  (103) 
6.0

>  <N_interactions_lost>  (103) 
0.5

>  <interaction_uniqueness_metric>  (103) 
0.05195

>  <ad_hoc_penalty>  (103) 
-28.80191

>  <N_rotatable_bonds>  (103) 
6

>  <N_HA>  (103) 
17

>  <cluster>  (103) 
526

>  <N_interactions>  (103) 
5

>  <Enamine>  (103) 
0

>  <Mcule>  (103) 
1

>  <N_PAINS>  (103) 
0

>  <UFF_Gibbs>  (103) 
47.700328

>  <strain_per_HA>  (103) 
2.385016

>  <saltbridge:HIS:51>  (103) 
0

>  <pistack:HIS:51>  (103) 
0

>  <hydroph_interaction:HIS:51>  (103) 
0

>  <hbond:ALA:132>  (103) 
0

>  <hbond:SER:135>  (103) 
0

>  <hydroph_interaction:TYR:150>  (103) 
0

>  <pistack:TYR:161>  (103) 
0

>  <hydroph_interaction:TYR:161>  (103) 
4

>  <hydroph_interaction:ASP:83>  (103) 
0

>  <hbond:TYR:130>  (103) 
0

>  <hydroph_interaction:ALA:132>  (103) 
0

>  <hbond:HIS:51>  (103) 
0

>  <hbond:ASP:129>  (103) 
0

>  <hbond:TYR:150>  (103) 
0

>  <hbond:GLY:151>  (103) 
0

>  <hbond:TYR:161>  (103) 
0

>  <hydroph_interaction:TYR:130>  (103) 
0

>  <hydroph_interaction:PRO:131>  (103) 
0

>  <hydroph_interaction:ASP:129>  (103) 
0

>  <saltbridge:ASP:75>  (103) 
0

>  <saltbridge:ASP:83>  (103) 
0

>  <hydroph_interaction:ASN:152>  (103) 
0

>  <halogenbond:TYR:150>  (103) 
0

>  <hbond:ASP:83>  (103) 
0

>  <hydroph_interaction:VAL:155>  (103) 
1

>  <pication:TYR:161>  (103) 
0

>  <hbond:PRO:131>  (103) 
0

>  <hbond:LEU:128>  (103) 
0

>  <saltbridge:ASP:129>  (103) 
0

>  <hbond:THR:134>  (103) 
0

>  <pication:HIS:51>  (103) 
0

>  <hbond:SER:81>  (103) 
0

>  <hbond:GLY:159>  (103) 
0

>  <hydroph_interaction:PRO:101>  (103) 
0

>  <hydroph_interaction:THR:134>  (103) 
0

>  <hbond:GLY:82>  (103) 
0

>  <hydroph_interaction:GLU:104>  (103) 
0

>  <hydroph_interaction:VAL:36>  (103) 
0

>  <hydroph_interaction:MET:49>  (103) 
0

>  <halogenbond:GLU:104>  (103) 
0

>  <hydroph_interaction:LYS:107>  (103) 
0

$$$$
PV-004832382280
     RDKit          3D

 50 53  0  0  0  0  0  0  0  0999 V2000
   -8.4635    7.7254  -12.7013 O   0  0  0  0  0  0  0  0  0  0  0  0
   -7.5517    6.9018  -12.4188 C   0  0  0  0  0  0  0  0  0  0  0  0
   -7.0863    6.7791  -10.9999 C   0  0  0  0  0  0  0  0  0  0  0  0
   -8.1206    6.0794  -10.1729 C   0  0  0  0  0  0  0  0  0  0  0  0
   -8.5302    4.7634  -10.2507 C   0  0  0  0  0  0  0  0  0  0  0  0
   -8.1000    3.7160  -11.2341 C   0  0  0  0  0  0  0  0  0  0  0  0
   -8.5294    2.3225  -10.7495 C   0  0  0  0  0  0  0  0  0  0  0  0
   -9.9881    2.3242  -10.2601 C   0  0  0  0  0  0  0  0  0  0  0  0
  -10.1738    3.2968   -9.0833 C   0  0  0  0  0  0  0  0  0  0  0  0
   -9.5198    4.5746   -9.3593 N   0  0  0  0  0  0  0  0  0  0  0  0
   -9.7411    5.6918   -8.6843 N   0  0  0  0  0  0  0  0  0  0  0  0
   -8.9026    6.6315   -9.1714 C   0  0  0  0  0  0  0  0  0  0  0  0
   -6.9550    6.0953  -13.4451 N   0  0  0  0  0  0  0  0  0  0  0  0
   -7.5621    5.8564  -14.7252 C   0  0  0  0  0  0  0  0  0  0  0  0
   -6.7457    5.6770  -15.8520 C   0  0  0  0  0  0  0  0  0  0  0  0
   -7.3064    5.4067  -17.1096 C   0  0  0  0  0  0  0  0  0  0  0  0
   -6.4441    5.2788  -18.2532 N   0  0  0  0  0  0  0  0  0  0  0  0
   -6.6525    4.3241  -19.3093 C   0  0  0  0  0  0  0  0  0  0  0  0
   -7.5950    3.4901  -19.2310 O   0  0  0  0  0  0  0  0  0  0  0  0
   -5.7787    4.3067  -20.5030 C   0  0  0  0  0  0  0  0  0  0  0  0
   -6.3488    4.0886  -21.7699 C   0  0  0  0  0  0  0  0  0  0  0  0
   -5.5470    4.0755  -22.9155 C   0  0  0  0  0  0  0  0  0  0  0  0
   -4.1678    4.2674  -22.8073 C   0  0  0  0  0  0  0  0  0  0  0  0
   -3.5866    4.4642  -21.5527 C   0  0  0  0  0  0  0  0  0  0  0  0
   -4.3824    4.4801  -20.4010 C   0  0  0  0  0  0  0  0  0  0  0  0
   -3.7784    4.6121  -19.1931 F   0  0  0  0  0  0  0  0  0  0  0  0
   -8.7042    5.3349  -17.2367 C   0  0  0  0  0  0  0  0  0  0  0  0
   -9.5216    5.4894  -16.1142 C   0  0  0  0  0  0  0  0  0  0  0  0
   -8.9561    5.7413  -14.8619 C   0  0  0  0  0  0  0  0  0  0  0  0
   -6.1353    6.2098  -10.9492 H   0  0  0  0  0  0  0  0  0  0  0  0
   -6.8944    7.7919  -10.5893 H   0  0  0  0  0  0  0  0  0  0  0  0
   -8.5809    3.9271  -12.2136 H   0  0  0  0  0  0  0  0  0  0  0  0
   -6.9969    3.7438  -11.3617 H   0  0  0  0  0  0  0  0  0  0  0  0
   -7.8630    1.9963   -9.9207 H   0  0  0  0  0  0  0  0  0  0  0  0
   -8.4198    1.5950  -11.5826 H   0  0  0  0  0  0  0  0  0  0  0  0
  -10.2742    1.2989   -9.9371 H   0  0  0  0  0  0  0  0  0  0  0  0
  -10.6582    2.6219  -11.0972 H   0  0  0  0  0  0  0  0  0  0  0  0
  -11.2585    3.4593   -8.9044 H   0  0  0  0  0  0  0  0  0  0  0  0
   -9.7263    2.8566   -8.1663 H   0  0  0  0  0  0  0  0  0  0  0  0
   -8.8664    7.6551   -8.8218 H   0  0  0  0  0  0  0  0  0  0  0  0
   -6.0045    5.6978  -13.2697 H   0  0  0  0  0  0  0  0  0  0  0  0
   -5.6693    5.7496  -15.7513 H   0  0  0  0  0  0  0  0  0  0  0  0
   -5.6001    5.8932  -18.2842 H   0  0  0  0  0  0  0  0  0  0  0  0
   -7.4179    3.9463  -21.8750 H   0  0  0  0  0  0  0  0  0  0  0  0
   -5.9948    3.9220  -23.8897 H   0  0  0  0  0  0  0  0  0  0  0  0
   -3.5479    4.2574  -23.6954 H   0  0  0  0  0  0  0  0  0  0  0  0
   -2.5156    4.5972  -21.4730 H   0  0  0  0  0  0  0  0  0  0  0  0
   -9.1654    5.1820  -18.2031 H   0  0  0  0  0  0  0  0  0  0  0  0
  -10.5969    5.4192  -16.2166 H   0  0  0  0  0  0  0  0  0  0  0  0
   -9.6063    5.8291  -14.0020 H   0  0  0  0  0  0  0  0  0  0  0  0
  1  2  2  0
  2  3  1  0
  3  4  1  0
  4  5  2  0
  5  6  1  0
  6  7  1  0
  7  8  1  0
  8  9  1  0
  9 10  1  0
 10 11  1  0
 11 12  2  0
  2 13  1  0
 13 14  1  0
 14 15  2  0
 15 16  1  0
 16 17  1  0
 17 18  1  0
 18 19  2  0
 18 20  1  0
 20 21  2  0
 21 22  1  0
 22 23  2  0
 23 24  1  0
 24 25  2  0
 25 26  1  0
 16 27  2  0
 27 28  1  0
 28 29  2  0
 12  4  1  0
 10  5  1  0
 29 14  1  0
 25 20  1  0
  3 30  1  0
  3 31  1  0
  6 32  1  0
  6 33  1  0
  7 34  1  0
  7 35  1  0
  8 36  1  0
  8 37  1  0
  9 38  1  0
  9 39  1  0
 12 40  1  0
 13 41  1  0
 15 42  1  0
 17 43  1  0
 21 44  1  0
 22 45  1  0
 23 46  1  0
 24 47  1  0
 27 48  1  0
 28 49  1  0
 29 50  1  0
A    1
 O1 
A    2
 C1 
A    3
 C2 
A    4
 C3 
A    5
 C4 
A    6
 C5 
A    7
 C6 
A    8
 C7 
A    9
 C8 
A   10
 N1 
A   11
 N2 
A   12
 C9 
A   13
 N3 
A   14
 C10
A   15
 C11
A   16
 C12
A   17
 N4 
A   18
 C13
A   19
 O2 
A   20
 C14
A   21
 C15
A   22
 C16
A   23
 C17
A   24
 C18
A   25
 C19
A   26
 F1 
A   27
 C20
A   28
 C21
A   29
 C22
A   30
 H1 
A   31
 H2 
A   32
 H3 
A   33
 H4 
A   34
 H5 
A   35
 H6 
A   36
 H7 
A   37
 H8 
A   38
 H9 
A   39
 H10
A   40
 H11
A   41
 H12
A   42
 H13
A   43
 H14
A   44
 H15
A   45
 H16
A   46
 H17
A   47
 H18
A   48
 H19
A   49
 H20
A   50
 H21
M  END
>  <ref_pdb>  (104) 
x0051_0B

>  <ref_mols>  (104) 
x0852_0B,x0969_1B

>  <original SMILES>  (104) 
[H]c1nn2c(c1C([H])([H])C(=O)N([H])c1c([H])c([H])c([H])c(N([H])C(=O)c3c([H])c([H])c([H])c([H])c3F)c1[H])C([H])([H])C([H])([H])C([H])([H])C2([H])[H]

>  <index>  (104) 
200

>  <∆∆G>  (104) 
-7.429649

>  <∆G_bound>  (104) 
-6.080176

>  <∆G_unbound>  (104) 
1.349474

>  <comRMSD>  (104) 
0.35688

>  <N_constrained_atoms>  (104) 
28.0

>  <N_unconstrained_atoms>  (104) 
3.0

>  <runtime>  (104) 
100.217578

>  <LE>  (104) 
0.239666

>  <percent_hybrid>  (104) 
36.0

>  <dist>  (104) 
7.0

>  <ecfp4>  (104) 
0.358696

>  <daylight>  (104) 
0.371345

>  <topodist>  (104) 
3.0

>  <mces>  (104) 
31.0

>  <tdn>  (104) 
2.0

>  <tup>  (104) 
1.0

>  <rdn>  (104) 
0.0

>  <rup>  (104) 
0.0

>  <ldn>  (104) 
0.0

>  <lup>  (104) 
0.0

>  <mut>  (104) 
3.0

>  <maj>  (104) 
3.0

>  <min>  (104) 
0.0

>  <hyb>  (104) 
1.0

>  <sub>  (104) 
2.0

>  <query_index>  (104) 
46.0

>  <max_hit_Tanimoto>  (104) 
0.362143

>  <largest_ring>  (104) 
6

>  <N_interactions_kept>  (104) 
3.0

>  <N_interactions_lost>  (104) 
3.0

>  <interaction_uniqueness_metric>  (104) 
0.282103

>  <ad_hoc_penalty>  (104) 
-28.767164

>  <N_rotatable_bonds>  (104) 
5

>  <N_HA>  (104) 
29

>  <cluster>  (104) 
6037

>  <N_interactions>  (104) 
9

>  <Enamine>  (104) 
1

>  <Mcule>  (104) 
0

>  <N_PAINS>  (104) 
0

>  <UFF_Gibbs>  (104) 
112.405617

>  <strain_per_HA>  (104) 
3.625988

>  <saltbridge:HIS:51>  (104) 
0

>  <pistack:HIS:51>  (104) 
1

>  <hydroph_interaction:HIS:51>  (104) 
1

>  <hbond:ALA:132>  (104) 
0

>  <hbond:SER:135>  (104) 
0

>  <hydroph_interaction:TYR:150>  (104) 
1

>  <pistack:TYR:161>  (104) 
0

>  <hydroph_interaction:TYR:161>  (104) 
2

>  <hydroph_interaction:ASP:83>  (104) 
1

>  <hbond:TYR:130>  (104) 
1

>  <hydroph_interaction:ALA:132>  (104) 
0

>  <hbond:HIS:51>  (104) 
0

>  <hbond:ASP:129>  (104) 
0

>  <hbond:TYR:150>  (104) 
0

>  <hbond:GLY:151>  (104) 
0

>  <hbond:TYR:161>  (104) 
1

>  <hydroph_interaction:TYR:130>  (104) 
0

>  <hydroph_interaction:PRO:131>  (104) 
0

>  <hydroph_interaction:ASP:129>  (104) 
1

>  <saltbridge:ASP:75>  (104) 
0

>  <saltbridge:ASP:83>  (104) 
0

>  <hydroph_interaction:ASN:152>  (104) 
0

>  <halogenbond:TYR:150>  (104) 
0

>  <hbond:ASP:83>  (104) 
0

>  <hydroph_interaction:VAL:155>  (104) 
0

>  <pication:TYR:161>  (104) 
0

>  <hbond:PRO:131>  (104) 
0

>  <hbond:LEU:128>  (104) 
0

>  <saltbridge:ASP:129>  (104) 
0

>  <hbond:THR:134>  (104) 
0

>  <pication:HIS:51>  (104) 
0

>  <hbond:SER:81>  (104) 
0

>  <hbond:GLY:159>  (104) 
0

>  <hydroph_interaction:PRO:101>  (104) 
0

>  <hydroph_interaction:THR:134>  (104) 
0

>  <hbond:GLY:82>  (104) 
0

>  <hydroph_interaction:GLU:104>  (104) 
0

>  <hydroph_interaction:VAL:36>  (104) 
0

>  <hydroph_interaction:MET:49>  (104) 
0

>  <halogenbond:GLU:104>  (104) 
0

>  <hydroph_interaction:LYS:107>  (104) 
0

$$$$
Z1395072713
     RDKit          3D

 36 37  0  0  0  0  0  0  0  0999 V2000
   -1.7334    3.9296  -15.2197 C   0  0  0  0  0  0  0  0  0  0  0  0
   -3.0178    4.6257  -15.6737 C   0  0  0  0  0  0  0  0  0  0  0  0
   -2.9724    5.0756  -17.1519 C   0  0  0  0  0  0  0  0  0  0  0  0
   -2.9611    3.8759  -18.1120 C   0  0  0  0  0  0  0  0  0  0  0  0
   -4.1196    6.0610  -17.4929 C   0  0  0  0  0  0  0  0  0  0  0  0
   -5.4586    5.4119  -17.4152 N   0  0  0  0  0  0  0  0  0  0  0  0
   -6.1463    5.8100  -16.1603 C   0  0  0  0  0  0  0  0  0  0  0  0
   -7.3778    4.9344  -15.9277 C   0  0  0  0  0  0  0  0  0  0  0  0
   -8.2398    5.0135  -17.1349 C   0  0  0  0  0  0  0  0  0  0  0  0
   -7.7638    5.3569  -18.3874 C   0  0  0  0  0  0  0  0  0  0  0  0
   -8.7875    5.4467  -19.3467 C   0  0  0  0  0  0  0  0  0  0  0  0
  -10.0443    5.1218  -18.8472 C   0  0  0  0  0  0  0  0  0  0  0  0
   -9.8973    4.7599  -17.2089 S   0  0  0  0  0  0  0  0  0  0  0  0
   -6.3001    5.6984  -18.6230 C   0  0  0  0  0  0  0  0  0  0  0  0
   -5.7922    4.8845  -19.8270 C   0  0  0  0  0  0  0  0  0  0  0  0
   -1.7715    3.7671  -14.1218 H   0  0  0  0  0  0  0  0  0  0  0  0
   -0.8460    4.5562  -15.4512 H   0  0  0  0  0  0  0  0  0  0  0  0
   -1.6265    2.9386  -15.7064 H   0  0  0  0  0  0  0  0  0  0  0  0
   -3.8764    3.9395  -15.5063 H   0  0  0  0  0  0  0  0  0  0  0  0
   -3.1523    5.5192  -15.0261 H   0  0  0  0  0  0  0  0  0  0  0  0
   -2.0215    5.6331  -17.3076 H   0  0  0  0  0  0  0  0  0  0  0  0
   -2.0658    3.2441  -17.9419 H   0  0  0  0  0  0  0  0  0  0  0  0
   -2.9072    4.2268  -19.1626 H   0  0  0  0  0  0  0  0  0  0  0  0
   -3.8699    3.2522  -17.9766 H   0  0  0  0  0  0  0  0  0  0  0  0
   -4.0500    6.9471  -16.8203 H   0  0  0  0  0  0  0  0  0  0  0  0
   -3.9172    6.4772  -18.5034 H   0  0  0  0  0  0  0  0  0  0  0  0
   -6.4497    6.8815  -16.2073 H   0  0  0  0  0  0  0  0  0  0  0  0
   -5.4825    5.6916  -15.2806 H   0  0  0  0  0  0  0  0  0  0  0  0
   -7.0690    3.8799  -15.7642 H   0  0  0  0  0  0  0  0  0  0  0  0
   -7.9354    5.2961  -15.0376 H   0  0  0  0  0  0  0  0  0  0  0  0
   -8.6290    5.7487  -20.3729 H   0  0  0  0  0  0  0  0  0  0  0  0
  -10.9650    5.1214  -19.4145 H   0  0  0  0  0  0  0  0  0  0  0  0
   -6.2502    6.7826  -18.8727 H   0  0  0  0  0  0  0  0  0  0  0  0
   -5.7787    3.8012  -19.5816 H   0  0  0  0  0  0  0  0  0  0  0  0
   -4.7761    5.2024  -20.1279 H   0  0  0  0  0  0  0  0  0  0  0  0
   -6.4359    5.0397  -20.7169 H   0  0  0  0  0  0  0  0  0  0  0  0
  1  2  1  0
  2  3  1  0
  3  4  1  0
  3  5  1  0
  5  6  1  0
  6  7  1  0
  7  8  1  0
  8  9  1  0
  9 10  2  0
 10 11  1  0
 11 12  2  0
 12 13  1  0
 10 14  1  0
 14 15  1  0
 14  6  1  0
 13  9  1  0
  1 16  1  0
  1 17  1  0
  1 18  1  0
  2 19  1  0
  2 20  1  0
  3 21  1  0
  4 22  1  0
  4 23  1  0
  4 24  1  0
  5 25  1  0
  5 26  1  0
  7 27  1  0
  7 28  1  0
  8 29  1  0
  8 30  1  0
 11 31  1  0
 12 32  1  0
 14 33  1  0
 15 34  1  0
 15 35  1  0
 15 36  1  0
A    1
 C1 
A    2
 C2 
A    3
 C3 
A    4
 C4 
A    5
 C5 
A    6
 N1 
A    7
 C6 
A    8
 C7 
A    9
 C8 
A   10
 C9 
A   11
 C10
A   12
 C11
A   13
 S1 
A   14
 C12
A   15
 C13
A   16
 H1 
A   17
 H2 
A   18
 H3 
A   19
 H4 
A   20
 H5 
A   21
 H6 
A   22
 H7 
A   23
 H8 
A   24
 H9 
A   25
 H10
A   26
 H11
A   27
 H12
A   28
 H13
A   29
 H14
A   30
 H15
A   31
 H16
A   32
 H17
A   33
 H18
A   34
 H19
A   35
 H20
A   36
 H21
M  END
>  <ref_pdb>  (105) 
x0051_0B

>  <ref_mols>  (105) 
x0472_0B,x0386_0B

>  <original SMILES>  (105) 
[H]c1sc2c(c1[H])C([H])(C([H])([H])[H])N(C([H])([H])C([H])(C([H])([H])[H])C([H])([H])C([H])([H])[H])C([H])([H])C2([H])[H]

>  <index>  (105) 
124

>  <∆∆G>  (105) 
-9.030439

>  <∆G_bound>  (105) 
-9.014852

>  <∆G_unbound>  (105) 
0.015587

>  <comRMSD>  (105) 
0.471987

>  <N_constrained_atoms>  (105) 
14.0

>  <N_unconstrained_atoms>  (105) 
2.0

>  <runtime>  (105) 
28.239668

>  <LE>  (105) 
0.564402

>  <percent_hybrid>  (105) 
13.0

>  <dist>  (105) 
3.0

>  <ecfp4>  (105) 
0.384615

>  <daylight>  (105) 
0.712121

>  <topodist>  (105) 
1.0

>  <mces>  (105) 
15.0

>  <tdn>  (105) 
0.0

>  <tup>  (105) 
0.0

>  <rdn>  (105) 
0.0

>  <rup>  (105) 
0.0

>  <ldn>  (105) 
0.0

>  <lup>  (105) 
1.0

>  <mut>  (105) 
2.0

>  <maj>  (105) 
2.0

>  <min>  (105) 
0.0

>  <hyb>  (105) 
0.0

>  <sub>  (105) 
0.0

>  <query_index>  (105) 
75.0

>  <max_hit_Tanimoto>  (105) 
0.644444

>  <largest_ring>  (105) 
6

>  <N_interactions_kept>  (105) 
2.0

>  <N_interactions_lost>  (105) 
1.0

>  <interaction_uniqueness_metric>  (105) 
0.156227

>  <ad_hoc_penalty>  (105) 
-28.658573

>  <N_rotatable_bonds>  (105) 
6

>  <N_HA>  (105) 
15

>  <cluster>  (105) 
6104

>  <N_interactions>  (105) 
6

>  <Enamine>  (105) 
1

>  <Mcule>  (105) 
0

>  <N_PAINS>  (105) 
0

>  <UFF_Gibbs>  (105) 
96.027521

>  <strain_per_HA>  (105) 
6.00172

>  <saltbridge:HIS:51>  (105) 
0

>  <pistack:HIS:51>  (105) 
0

>  <hydroph_interaction:HIS:51>  (105) 
0

>  <hbond:ALA:132>  (105) 
0

>  <hbond:SER:135>  (105) 
0

>  <hydroph_interaction:TYR:150>  (105) 
0

>  <pistack:TYR:161>  (105) 
0

>  <hydroph_interaction:TYR:161>  (105) 
3

>  <hydroph_interaction:ASP:83>  (105) 
0

>  <hbond:TYR:130>  (105) 
0

>  <hydroph_interaction:ALA:132>  (105) 
1

>  <hbond:HIS:51>  (105) 
0

>  <hbond:ASP:129>  (105) 
0

>  <hbond:TYR:150>  (105) 
0

>  <hbond:GLY:151>  (105) 
0

>  <hbond:TYR:161>  (105) 
0

>  <hydroph_interaction:TYR:130>  (105) 
0

>  <hydroph_interaction:PRO:131>  (105) 
0

>  <hydroph_interaction:ASP:129>  (105) 
0

>  <saltbridge:ASP:75>  (105) 
0

>  <saltbridge:ASP:83>  (105) 
0

>  <hydroph_interaction:ASN:152>  (105) 
0

>  <halogenbond:TYR:150>  (105) 
0

>  <hbond:ASP:83>  (105) 
0

>  <hydroph_interaction:VAL:155>  (105) 
1

>  <pication:TYR:161>  (105) 
1

>  <hbond:PRO:131>  (105) 
0

>  <hbond:LEU:128>  (105) 
0

>  <saltbridge:ASP:129>  (105) 
0

>  <hbond:THR:134>  (105) 
0

>  <pication:HIS:51>  (105) 
0

>  <hbond:SER:81>  (105) 
0

>  <hbond:GLY:159>  (105) 
0

>  <hydroph_interaction:PRO:101>  (105) 
0

>  <hydroph_interaction:THR:134>  (105) 
0

>  <hbond:GLY:82>  (105) 
0

>  <hydroph_interaction:GLU:104>  (105) 
0

>  <hydroph_interaction:VAL:36>  (105) 
0

>  <hydroph_interaction:MET:49>  (105) 
0

>  <halogenbond:GLU:104>  (105) 
0

>  <hydroph_interaction:LYS:107>  (105) 
0

$$$$
YWCZRRNVXJVEGY-UHFFFAOYSA-N
     RDKit          3D

 31 33  0  0  0  0  0  0  0  0999 V2000
   -5.4932    5.1885  -17.5379 N   0  0  0  0  0  0  0  0  0  0  0  0
   -4.0630    5.4364  -17.8965 C   0  0  0  0  0  0  0  0  0  0  0  0
   -3.0718    4.8308  -16.9035 C   0  0  0  0  0  0  0  0  0  0  0  0
   -2.5345    6.2251  -16.5966 C   0  0  0  0  0  0  0  0  0  0  0  0
   -3.4959    6.8330  -17.6125 C   0  0  0  0  0  0  0  0  0  0  0  0
   -6.4102    5.4311  -18.6968 C   0  0  0  0  0  0  0  0  0  0  0  0
   -6.3222    4.2532  -19.6859 C   0  0  0  0  0  0  0  0  0  0  0  0
   -7.8621    5.5672  -18.2668 C   0  0  0  0  0  0  0  0  0  0  0  0
   -8.2505    5.4434  -16.9457 C   0  0  0  0  0  0  0  0  0  0  0  0
   -9.9119    5.6489  -16.8243 S   0  0  0  0  0  0  0  0  0  0  0  0
  -10.1626    5.9181  -18.4690 C   0  0  0  0  0  0  0  0  0  0  0  0
   -8.9373    5.8511  -19.1242 C   0  0  0  0  0  0  0  0  0  0  0  0
   -7.2856    5.2361  -15.8350 C   0  0  0  0  0  0  0  0  0  0  0  0
   -5.9466    5.8291  -16.2723 C   0  0  0  0  0  0  0  0  0  0  0  0
   -3.8057    5.1105  -18.9254 H   0  0  0  0  0  0  0  0  0  0  0  0
   -2.3106    4.1946  -17.4064 H   0  0  0  0  0  0  0  0  0  0  0  0
   -3.5316    4.3314  -16.0249 H   0  0  0  0  0  0  0  0  0  0  0  0
   -2.7583    6.5457  -15.5557 H   0  0  0  0  0  0  0  0  0  0  0  0
   -1.4684    6.3477  -16.8880 H   0  0  0  0  0  0  0  0  0  0  0  0
   -2.9545    7.2433  -18.4930 H   0  0  0  0  0  0  0  0  0  0  0  0
   -4.1796    7.5781  -17.1647 H   0  0  0  0  0  0  0  0  0  0  0  0
   -6.1210    6.3706  -19.2194 H   0  0  0  0  0  0  0  0  0  0  0  0
   -6.5405    3.2975  -19.1626 H   0  0  0  0  0  0  0  0  0  0  0  0
   -5.3230    4.1798  -20.1562 H   0  0  0  0  0  0  0  0  0  0  0  0
   -7.0481    4.3772  -20.5167 H   0  0  0  0  0  0  0  0  0  0  0  0
  -11.1158    6.1203  -18.9383 H   0  0  0  0  0  0  0  0  0  0  0  0
   -8.8313    6.0045  -20.1899 H   0  0  0  0  0  0  0  0  0  0  0  0
   -7.6452    5.7476  -14.9167 H   0  0  0  0  0  0  0  0  0  0  0  0
   -7.1767    4.1490  -15.6340 H   0  0  0  0  0  0  0  0  0  0  0  0
   -6.0886    6.9233  -16.4098 H   0  0  0  0  0  0  0  0  0  0  0  0
   -5.2198    5.6730  -15.4502 H   0  0  0  0  0  0  0  0  0  0  0  0
  1  2  1  0
  2  3  1  0
  3  4  1  0
  4  5  1  0
  1  6  1  0
  6  7  1  0
  6  8  1  0
  8  9  2  0
  9 10  1  0
 10 11  1  0
 11 12  2  0
  9 13  1  0
 13 14  1  0
 14  1  1  0
  5  2  1  0
 12  8  1  0
  2 15  1  0
  3 16  1  0
  3 17  1  0
  4 18  1  0
  4 19  1  0
  5 20  1  0
  5 21  1  0
  6 22  1  0
  7 23  1  0
  7 24  1  0
  7 25  1  0
 11 26  1  0
 12 27  1  0
 13 28  1  0
 13 29  1  0
 14 30  1  0
 14 31  1  0
A    1
 N1 
A    2
 C1 
A    3
 C2 
A    4
 C3 
A    5
 C4 
A    6
 C5 
A    7
 C6 
A    8
 C7 
A    9
 C8 
A   10
 S1 
A   11
 C9 
A   12
 C10
A   13
 C11
A   14
 C12
A   15
 H1 
A   16
 H2 
A   17
 H3 
A   18
 H4 
A   19
 H5 
A   20
 H6 
A   21
 H7 
A   22
 H8 
A   23
 H9 
A   24
 H10
A   25
 H11
A   26
 H12
A   27
 H13
A   28
 H14
A   29
 H15
A   30
 H16
A   31
 H17
M  END
>  <ref_pdb>  (106) 
x0051_0B

>  <ref_mols>  (106) 
x0472_0B,x0386_0B

>  <original SMILES>  (106) 
[H]c1sc2c(c1[H])C([H])(C([H])([H])[H])N(C1([H])C([H])([H])C([H])([H])C1([H])[H])C([H])([H])C2([H])[H]

>  <index>  (106) 
121

>  <∆∆G>  (106) 
-6.425285

>  <∆G_bound>  (106) 
-6.393499

>  <∆G_unbound>  (106) 
0.031786

>  <comRMSD>  (106) 
0.709837

>  <N_constrained_atoms>  (106) 
14.0

>  <N_unconstrained_atoms>  (106) 
0.0

>  <runtime>  (106) 
22.237219

>  <LE>  (106) 
0.458949

>  <percent_hybrid>  (106) 
13.0

>  <dist>  (106) 
3.0

>  <ecfp4>  (106) 
0.468085

>  <daylight>  (106) 
0.712121

>  <topodist>  (106) 
1.0

>  <mces>  (106) 
15.0

>  <tdn>  (106) 
0.0

>  <tup>  (106) 
0.0

>  <rdn>  (106) 
0.0

>  <rup>  (106) 
1.0

>  <ldn>  (106) 
0.0

>  <lup>  (106) 
0.0

>  <mut>  (106) 
2.0

>  <maj>  (106) 
2.0

>  <min>  (106) 
0.0

>  <hyb>  (106) 
0.0

>  <sub>  (106) 
1.0

>  <query_index>  (106) 
75.0

>  <max_hit_Tanimoto>  (106) 
0.670571

>  <largest_ring>  (106) 
6

>  <N_interactions_kept>  (106) 
2.0

>  <N_interactions_lost>  (106) 
1.0

>  <interaction_uniqueness_metric>  (106) 
0.153242

>  <ad_hoc_penalty>  (106) 
-28.651936

>  <N_rotatable_bonds>  (106) 
2

>  <N_HA>  (106) 
14

>  <cluster>  (106) 
6106

>  <N_interactions>  (106) 
5

>  <Enamine>  (106) 
0

>  <Mcule>  (106) 
1

>  <N_PAINS>  (106) 
0

>  <UFF_Gibbs>  (106) 
86.23054

>  <strain_per_HA>  (106) 
6.159324

>  <saltbridge:HIS:51>  (106) 
0

>  <pistack:HIS:51>  (106) 
0

>  <hydroph_interaction:HIS:51>  (106) 
0

>  <hbond:ALA:132>  (106) 
0

>  <hbond:SER:135>  (106) 
0

>  <hydroph_interaction:TYR:150>  (106) 
0

>  <pistack:TYR:161>  (106) 
0

>  <hydroph_interaction:TYR:161>  (106) 
2

>  <hydroph_interaction:ASP:83>  (106) 
0

>  <hbond:TYR:130>  (106) 
0

>  <hydroph_interaction:ALA:132>  (106) 
1

>  <hbond:HIS:51>  (106) 
0

>  <hbond:ASP:129>  (106) 
0

>  <hbond:TYR:150>  (106) 
0

>  <hbond:GLY:151>  (106) 
0

>  <hbond:TYR:161>  (106) 
0

>  <hydroph_interaction:TYR:130>  (106) 
0

>  <hydroph_interaction:PRO:131>  (106) 
0

>  <hydroph_interaction:ASP:129>  (106) 
0

>  <saltbridge:ASP:75>  (106) 
0

>  <saltbridge:ASP:83>  (106) 
0

>  <hydroph_interaction:ASN:152>  (106) 
0

>  <halogenbond:TYR:150>  (106) 
0

>  <hbond:ASP:83>  (106) 
0

>  <hydroph_interaction:VAL:155>  (106) 
1

>  <pication:TYR:161>  (106) 
1

>  <hbond:PRO:131>  (106) 
0

>  <hbond:LEU:128>  (106) 
0

>  <saltbridge:ASP:129>  (106) 
0

>  <hbond:THR:134>  (106) 
0

>  <pication:HIS:51>  (106) 
0

>  <hbond:SER:81>  (106) 
0

>  <hbond:GLY:159>  (106) 
0

>  <hydroph_interaction:PRO:101>  (106) 
0

>  <hydroph_interaction:THR:134>  (106) 
0

>  <hbond:GLY:82>  (106) 
0

>  <hydroph_interaction:GLU:104>  (106) 
0

>  <hydroph_interaction:VAL:36>  (106) 
0

>  <hydroph_interaction:MET:49>  (106) 
0

>  <halogenbond:GLU:104>  (106) 
0

>  <hydroph_interaction:LYS:107>  (106) 
0

$$$$
MCULE-9315423388
     RDKit          3D

 45 46  0  0  0  0  0  0  0  0999 V2000
   -8.3022    4.0528   -9.2870 N   0  0  0  0  0  0  0  0  0  0  0  0
   -8.0579    2.5921   -9.3627 C   0  0  0  0  0  0  0  0  0  0  0  0
   -8.7513    1.8251   -8.2160 C   0  0  0  0  0  0  0  0  0  0  0  0
   -9.8513    2.6069   -7.6413 N   0  0  0  0  0  0  0  0  0  0  0  0
   -9.3576    3.8637   -7.0541 C   0  0  0  0  0  0  0  0  0  0  0  0
   -8.2335    4.5124   -7.8879 C   0  0  0  0  0  0  0  0  0  0  0  0
   -7.3433    4.8083  -10.1236 C   0  0  0  0  0  0  0  0  0  0  0  0
   -7.6049    4.6114  -11.6253 C   0  0  0  0  0  0  0  0  0  0  0  0
   -9.0339    5.0165  -12.0186 C   0  0  0  0  0  0  0  0  0  0  0  0
   -9.2713    4.8568  -13.5199 C   0  0  0  0  0  0  0  0  0  0  0  0
   -8.4451    5.7662  -14.2436 O   0  0  0  0  0  0  0  0  0  0  0  0
   -8.4107    5.8686  -15.6420 C   0  0  0  0  0  0  0  0  0  0  0  0
   -9.2145    5.0699  -16.4775 C   0  0  0  0  0  0  0  0  0  0  0  0
   -9.1424    5.2047  -17.8722 C   0  0  0  0  0  0  0  0  0  0  0  0
  -10.0336    4.3842  -18.7574 C   0  0  0  0  0  0  0  0  0  0  0  0
   -8.2824    6.1609  -18.4319 C   0  0  0  0  0  0  0  0  0  0  0  0
   -7.4645    6.9482  -17.6088 C   0  0  0  0  0  0  0  0  0  0  0  0
   -6.5667    7.9883  -18.2114 C   0  0  0  0  0  0  0  0  0  0  0  0
   -7.5440    6.8051  -16.2159 C   0  0  0  0  0  0  0  0  0  0  0  0
   -8.4688    2.2126  -10.3226 H   0  0  0  0  0  0  0  0  0  0  0  0
   -6.9691    2.3600   -9.3395 H   0  0  0  0  0  0  0  0  0  0  0  0
   -9.1457    0.8573   -8.5947 H   0  0  0  0  0  0  0  0  0  0  0  0
   -8.0121    1.5872   -7.4189 H   0  0  0  0  0  0  0  0  0  0  0  0
  -10.5328    2.8338   -8.4042 H   0  0  0  0  0  0  0  0  0  0  0  0
   -8.9866    3.6657   -6.0253 H   0  0  0  0  0  0  0  0  0  0  0  0
  -10.2066    4.5766   -6.9624 H   0  0  0  0  0  0  0  0  0  0  0  0
   -7.2427    4.2550   -7.4470 H   0  0  0  0  0  0  0  0  0  0  0  0
   -8.3525    5.6173   -7.8322 H   0  0  0  0  0  0  0  0  0  0  0  0
   -6.2952    4.5154   -9.8887 H   0  0  0  0  0  0  0  0  0  0  0  0
   -7.4288    5.8987   -9.9159 H   0  0  0  0  0  0  0  0  0  0  0  0
   -6.8781    5.2393  -12.1856 H   0  0  0  0  0  0  0  0  0  0  0  0
   -7.4152    3.5551  -11.9114 H   0  0  0  0  0  0  0  0  0  0  0  0
   -9.7648    4.3764  -11.4787 H   0  0  0  0  0  0  0  0  0  0  0  0
   -9.2190    6.0745  -11.7305 H   0  0  0  0  0  0  0  0  0  0  0  0
  -10.3392    5.0750  -13.7381 H   0  0  0  0  0  0  0  0  0  0  0  0
   -9.0460    3.8115  -13.8254 H   0  0  0  0  0  0  0  0  0  0  0  0
   -9.8974    4.3460  -16.0534 H   0  0  0  0  0  0  0  0  0  0  0  0
   -9.5451    4.1942  -19.7374 H   0  0  0  0  0  0  0  0  0  0  0  0
  -10.2539    3.4005  -18.2889 H   0  0  0  0  0  0  0  0  0  0  0  0
  -10.9876    4.9270  -18.9260 H   0  0  0  0  0  0  0  0  0  0  0  0
   -8.2473    6.2899  -19.5076 H   0  0  0  0  0  0  0  0  0  0  0  0
   -6.1969    7.6572  -19.2051 H   0  0  0  0  0  0  0  0  0  0  0  0
   -7.1305    8.9367  -18.3319 H   0  0  0  0  0  0  0  0  0  0  0  0
   -5.6848    8.1713  -17.5612 H   0  0  0  0  0  0  0  0  0  0  0  0
   -6.9330    7.4254  -15.5712 H   0  0  0  0  0  0  0  0  0  0  0  0
  1  2  1  0
  2  3  1  0
  3  4  1  0
  4  5  1  0
  5  6  1  0
  1  7  1  0
  7  8  1  0
  8  9  1  0
  9 10  1  0
 10 11  1  0
 11 12  1  0
 12 13  2  0
 13 14  1  0
 14 15  1  0
 14 16  2  0
 16 17  1  0
 17 18  1  0
 17 19  2  0
  6  1  1  0
 19 12  1  0
  2 20  1  0
  2 21  1  0
  3 22  1  0
  3 23  1  0
  4 24  1  0
  5 25  1  0
  5 26  1  0
  6 27  1  0
  6 28  1  0
  7 29  1  0
  7 30  1  0
  8 31  1  0
  8 32  1  0
  9 33  1  0
  9 34  1  0
 10 35  1  0
 10 36  1  0
 13 37  1  0
 15 38  1  0
 15 39  1  0
 15 40  1  0
 16 41  1  0
 18 42  1  0
 18 43  1  0
 18 44  1  0
 19 45  1  0
A    1
 N1 
A    2
 C1 
A    3
 C2 
A    4
 N2 
A    5
 C3 
A    6
 C4 
A    7
 C5 
A    8
 C6 
A    9
 C7 
A   10
 C8 
A   11
 O1 
A   12
 C9 
A   13
 C10
A   14
 C11
A   15
 C12
A   16
 C13
A   17
 C14
A   18
 C15
A   19
 C16
A   20
 H1 
A   21
 H2 
A   22
 H3 
A   23
 H4 
A   24
 H5 
A   25
 H6 
A   26
 H7 
A   27
 H8 
A   28
 H9 
A   29
 H10
A   30
 H11
A   31
 H12
A   32
 H13
A   33
 H14
A   34
 H15
A   35
 H16
A   36
 H17
A   37
 H18
A   38
 H19
A   39
 H20
A   40
 H21
A   41
 H22
A   42
 H23
A   43
 H24
A   44
 H25
A   45
 H26
M  END
>  <ref_pdb>  (107) 
x0051_0B

>  <ref_mols>  (107) 
x0589_0B,x0969_1B

>  <original SMILES>  (107) 
[H]c1c(OC([H])([H])C([H])([H])C([H])([H])C([H])([H])N2C([H])([H])C([H])([H])N([H])C([H])([H])C2([H])[H])c([H])c(C([H])([H])[H])c([H])c1C([H])([H])[H]

>  <index>  (107) 
743

>  <∆∆G>  (107) 
-6.44875

>  <∆G_bound>  (107) 
-6.155237

>  <∆G_unbound>  (107) 
0.293513

>  <comRMSD>  (107) 
0.847378

>  <N_constrained_atoms>  (107) 
18.0

>  <N_unconstrained_atoms>  (107) 
1.0

>  <runtime>  (107) 
67.189426

>  <LE>  (107) 
0.339408

>  <percent_hybrid>  (107) 
45.0

>  <dist>  (107) 
6.0

>  <ecfp4>  (107) 
0.372881

>  <daylight>  (107) 
0.251232

>  <topodist>  (107) 
2.0

>  <mces>  (107) 
20.0

>  <tdn>  (107) 
0.0

>  <tup>  (107) 
0.0

>  <rdn>  (107) 
1.0

>  <rup>  (107) 
0.0

>  <ldn>  (107) 
1.0

>  <lup>  (107) 
0.0

>  <mut>  (107) 
1.0

>  <maj>  (107) 
1.0

>  <min>  (107) 
0.0

>  <hyb>  (107) 
3.0

>  <sub>  (107) 
0.0

>  <query_index>  (107) 
379.0

>  <max_hit_Tanimoto>  (107) 
0.097345

>  <largest_ring>  (107) 
6

>  <N_interactions_kept>  (107) 
1.5

>  <N_interactions_lost>  (107) 
1.0

>  <interaction_uniqueness_metric>  (107) 
1.140055

>  <ad_hoc_penalty>  (107) 
-28.48246

>  <N_rotatable_bonds>  (107) 
8

>  <N_HA>  (107) 
19

>  <cluster>  (107) 
5539

>  <N_interactions>  (107) 
5

>  <Enamine>  (107) 
0

>  <Mcule>  (107) 
1

>  <N_PAINS>  (107) 
0

>  <UFF_Gibbs>  (107) 
149.38244

>  <strain_per_HA>  (107) 
7.862234

>  <saltbridge:HIS:51>  (107) 
0

>  <pistack:HIS:51>  (107) 
0

>  <hydroph_interaction:HIS:51>  (107) 
0

>  <hbond:ALA:132>  (107) 
0

>  <hbond:SER:135>  (107) 
0

>  <hydroph_interaction:TYR:150>  (107) 
1

>  <pistack:TYR:161>  (107) 
1

>  <hydroph_interaction:TYR:161>  (107) 
1

>  <hydroph_interaction:ASP:83>  (107) 
0

>  <hbond:TYR:130>  (107) 
0

>  <hydroph_interaction:ALA:132>  (107) 
0

>  <hbond:HIS:51>  (107) 
0

>  <hbond:ASP:129>  (107) 
0

>  <hbond:TYR:150>  (107) 
0

>  <hbond:GLY:151>  (107) 
0

>  <hbond:TYR:161>  (107) 
0

>  <hydroph_interaction:TYR:130>  (107) 
0

>  <hydroph_interaction:PRO:131>  (107) 
0

>  <hydroph_interaction:ASP:129>  (107) 
0

>  <saltbridge:ASP:75>  (107) 
1

>  <saltbridge:ASP:83>  (107) 
0

>  <hydroph_interaction:ASN:152>  (107) 
0

>  <halogenbond:TYR:150>  (107) 
0

>  <hbond:ASP:83>  (107) 
0

>  <hydroph_interaction:VAL:155>  (107) 
0

>  <pication:TYR:161>  (107) 
0

>  <hbond:PRO:131>  (107) 
0

>  <hbond:LEU:128>  (107) 
0

>  <saltbridge:ASP:129>  (107) 
0

>  <hbond:THR:134>  (107) 
0

>  <pication:HIS:51>  (107) 
0

>  <hbond:SER:81>  (107) 
0

>  <hbond:GLY:159>  (107) 
0

>  <hydroph_interaction:PRO:101>  (107) 
0

>  <hydroph_interaction:THR:134>  (107) 
0

>  <hbond:GLY:82>  (107) 
1

>  <hydroph_interaction:GLU:104>  (107) 
0

>  <hydroph_interaction:VAL:36>  (107) 
0

>  <hydroph_interaction:MET:49>  (107) 
0

>  <halogenbond:GLU:104>  (107) 
0

>  <hydroph_interaction:LYS:107>  (107) 
0

$$$$
CSSB00008030654
     RDKit          3D

 34 36  0  0  0  0  0  0  0  0999 V2000
   -5.8278    4.3813  -15.2541 O   0  0  0  0  0  0  0  0  0  0  0  0
   -5.2609    5.3768  -16.0806 C   0  0  0  0  0  0  0  0  0  0  0  0
   -5.5289    6.8200  -15.5240 C   0  0  0  0  0  0  0  0  0  0  0  0
   -4.3934    7.3581  -14.6318 C   0  0  0  0  0  0  0  0  0  0  0  0
   -3.8048    6.2726  -13.8425 N   0  0  0  0  0  0  0  0  0  0  0  0
   -3.0939    5.2966  -14.6896 C   0  0  0  0  0  0  0  0  0  0  0  0
   -3.7233    5.1357  -16.0917 C   0  0  0  0  0  0  0  0  0  0  0  0
   -5.9195    5.2418  -17.4808 C   0  0  0  0  0  0  0  0  0  0  0  0
   -5.1155    5.1597  -18.6475 C   0  0  0  0  0  0  0  0  0  0  0  0
   -5.6735    5.0751  -19.9190 C   0  0  0  0  0  0  0  0  0  0  0  0
   -7.0487    5.0736  -20.0856 C   0  0  0  0  0  0  0  0  0  0  0  0
   -7.8922    5.1524  -18.9755 C   0  0  0  0  0  0  0  0  0  0  0  0
   -9.2825    5.1495  -19.1749 C   0  0  0  0  0  0  0  0  0  0  0  0
  -10.1506    5.2245  -18.0898 C   0  0  0  0  0  0  0  0  0  0  0  0
   -9.6422    5.2998  -16.7976 C   0  0  0  0  0  0  0  0  0  0  0  0
   -8.2628    5.3036  -16.5788 C   0  0  0  0  0  0  0  0  0  0  0  0
   -7.3477    5.2345  -17.6591 C   0  0  0  0  0  0  0  0  0  0  0  0
   -5.7220    4.6416  -14.3031 H   0  0  0  0  0  0  0  0  0  0  0  0
   -6.4653    6.8428  -14.9307 H   0  0  0  0  0  0  0  0  0  0  0  0
   -5.6643    7.5393  -16.3621 H   0  0  0  0  0  0  0  0  0  0  0  0
   -4.8035    8.1331  -13.9480 H   0  0  0  0  0  0  0  0  0  0  0  0
   -3.6110    7.8469  -15.2562 H   0  0  0  0  0  0  0  0  0  0  0  0
   -3.1169    6.6900  -13.1727 H   0  0  0  0  0  0  0  0  0  0  0  0
   -2.0260    5.5916  -14.8024 H   0  0  0  0  0  0  0  0  0  0  0  0
   -3.1109    4.3132  -14.1729 H   0  0  0  0  0  0  0  0  0  0  0  0
   -3.4910    4.1208  -16.4831 H   0  0  0  0  0  0  0  0  0  0  0  0
   -3.2309    5.8878  -16.7464 H   0  0  0  0  0  0  0  0  0  0  0  0
   -4.0388    5.1524  -18.6113 H   0  0  0  0  0  0  0  0  0  0  0  0
   -5.0289    5.0118  -20.7867 H   0  0  0  0  0  0  0  0  0  0  0  0
   -7.4550    5.0094  -21.0884 H   0  0  0  0  0  0  0  0  0  0  0  0
   -9.6988    5.0888  -20.1738 H   0  0  0  0  0  0  0  0  0  0  0  0
  -11.2209    5.2216  -18.2511 H   0  0  0  0  0  0  0  0  0  0  0  0
  -10.3217    5.3533  -15.9564 H   0  0  0  0  0  0  0  0  0  0  0  0
   -7.9506    5.3526  -15.5521 H   0  0  0  0  0  0  0  0  0  0  0  0
  1  2  1  0
  2  3  1  0
  3  4  1  0
  4  5  1  0
  5  6  1  0
  6  7  1  0
  2  8  1  0
  8  9  2  0
  9 10  1  0
 10 11  2  0
 11 12  1  0
 12 13  2  0
 13 14  1  0
 14 15  2  0
 15 16  1  0
 16 17  2  0
  7  2  1  0
 17  8  1  0
 17 12  1  0
  1 18  1  0
  3 19  1  0
  3 20  1  0
  4 21  1  0
  4 22  1  0
  5 23  1  0
  6 24  1  0
  6 25  1  0
  7 26  1  0
  7 27  1  0
  9 28  1  0
 10 29  1  0
 11 30  1  0
 13 31  1  0
 14 32  1  0
 15 33  1  0
 16 34  1  0
A    1
 O1 
A    2
 C1 
A    3
 C2 
A    4
 C3 
A    5
 N1 
A    6
 C4 
A    7
 C5 
A    8
 C6 
A    9
 C7 
A   10
 C8 
A   11
 C9 
A   12
 C10
A   13
 C11
A   14
 C12
A   15
 C13
A   16
 C14
A   17
 C15
A   18
 H1 
A   19
 H2 
A   20
 H3 
A   21
 H4 
A   22
 H5 
A   23
 H6 
A   24
 H7 
A   25
 H8 
A   26
 H9 
A   27
 H10
A   28
 H11
A   29
 H12
A   30
 H13
A   31
 H14
A   32
 H15
A   33
 H16
A   34
 H17
M  END
>  <ref_pdb>  (108) 
x0051_0B

>  <ref_mols>  (108) 
x0429_0B,x0455_0B

>  <original SMILES>  (108) 
[H]OC1(c2c([H])c([H])c([H])c3c([H])c([H])c([H])c([H])c23)C([H])([H])C([H])([H])N([H])C([H])([H])C1([H])[H]

>  <index>  (108) 
201

>  <∆∆G>  (108) 
-6.994044

>  <∆G_bound>  (108) 
-6.748231

>  <∆G_unbound>  (108) 
0.245812

>  <comRMSD>  (108) 
0.324347

>  <N_constrained_atoms>  (108) 
18.0

>  <N_unconstrained_atoms>  (108) 
0.0

>  <runtime>  (108) 
25.441622

>  <LE>  (108) 
0.388558

>  <percent_hybrid>  (108) 
20.0

>  <dist>  (108) 
4.0

>  <ecfp4>  (108) 
0.306122

>  <daylight>  (108) 
0.447619

>  <topodist>  (108) 
2.0

>  <mces>  (108) 
19.0

>  <tdn>  (108) 
1.0

>  <tup>  (108) 
0.0

>  <rdn>  (108) 
1.0

>  <rup>  (108) 
0.0

>  <ldn>  (108) 
0.0

>  <lup>  (108) 
0.0

>  <mut>  (108) 
2.0

>  <maj>  (108) 
2.0

>  <min>  (108) 
0.0

>  <hyb>  (108) 
0.0

>  <sub>  (108) 
1.0

>  <query_index>  (108) 
158.0

>  <max_hit_Tanimoto>  (108) 
0.174033

>  <largest_ring>  (108) 
6

>  <N_interactions_kept>  (108) 
0.0

>  <N_interactions_lost>  (108) 
2.5

>  <interaction_uniqueness_metric>  (108) 
0.089604

>  <ad_hoc_penalty>  (108) 
-28.389143

>  <N_rotatable_bonds>  (108) 
2

>  <N_HA>  (108) 
17

>  <cluster>  (108) 
6036

>  <N_interactions>  (108) 
7

>  <Enamine>  (108) 
1

>  <Mcule>  (108) 
0

>  <N_PAINS>  (108) 
0

>  <UFF_Gibbs>  (108) 
38.863803

>  <strain_per_HA>  (108) 
2.1591

>  <saltbridge:HIS:51>  (108) 
0

>  <pistack:HIS:51>  (108) 
0

>  <hydroph_interaction:HIS:51>  (108) 
0

>  <hbond:ALA:132>  (108) 
0

>  <hbond:SER:135>  (108) 
0

>  <hydroph_interaction:TYR:150>  (108) 
1

>  <pistack:TYR:161>  (108) 
1

>  <hydroph_interaction:TYR:161>  (108) 
4

>  <hydroph_interaction:ASP:83>  (108) 
0

>  <hbond:TYR:130>  (108) 
0

>  <hydroph_interaction:ALA:132>  (108) 
0

>  <hbond:HIS:51>  (108) 
0

>  <hbond:ASP:129>  (108) 
0

>  <hbond:TYR:150>  (108) 
0

>  <hbond:GLY:151>  (108) 
0

>  <hbond:TYR:161>  (108) 
1

>  <hydroph_interaction:TYR:130>  (108) 
0

>  <hydroph_interaction:PRO:131>  (108) 
0

>  <hydroph_interaction:ASP:129>  (108) 
0

>  <saltbridge:ASP:75>  (108) 
0

>  <saltbridge:ASP:83>  (108) 
0

>  <hydroph_interaction:ASN:152>  (108) 
0

>  <halogenbond:TYR:150>  (108) 
0

>  <hbond:ASP:83>  (108) 
0

>  <hydroph_interaction:VAL:155>  (108) 
0

>  <pication:TYR:161>  (108) 
0

>  <hbond:PRO:131>  (108) 
0

>  <hbond:LEU:128>  (108) 
0

>  <saltbridge:ASP:129>  (108) 
0

>  <hbond:THR:134>  (108) 
0

>  <pication:HIS:51>  (108) 
0

>  <hbond:SER:81>  (108) 
0

>  <hbond:GLY:159>  (108) 
0

>  <hydroph_interaction:PRO:101>  (108) 
0

>  <hydroph_interaction:THR:134>  (108) 
0

>  <hbond:GLY:82>  (108) 
0

>  <hydroph_interaction:GLU:104>  (108) 
0

>  <hydroph_interaction:VAL:36>  (108) 
0

>  <hydroph_interaction:MET:49>  (108) 
0

>  <halogenbond:GLU:104>  (108) 
0

>  <hydroph_interaction:LYS:107>  (108) 
0

$$$$
MCULE-2143027345
     RDKit          3D

 54 57  0  0  0  0  0  0  0  0999 V2000
   -6.1472    6.4783  -19.5712 C   0  0  0  0  0  0  0  0  0  0  0  0
   -6.8689    6.9125  -20.6956 C   0  0  0  0  0  0  0  0  0  0  0  0
   -6.2002    7.2295  -21.8824 C   0  0  0  0  0  0  0  0  0  0  0  0
   -4.8083    7.1238  -21.9521 C   0  0  0  0  0  0  0  0  0  0  0  0
   -4.0827    6.7039  -20.8340 C   0  0  0  0  0  0  0  0  0  0  0  0
   -4.7474    6.3869  -19.6451 C   0  0  0  0  0  0  0  0  0  0  0  0
   -6.8442    6.1611  -18.3053 C   0  0  0  0  0  0  0  0  0  0  0  0
   -7.7960    5.1256  -18.1992 C   0  0  0  0  0  0  0  0  0  0  0  0
   -8.1510    4.2467  -19.3626 C   0  0  0  0  0  0  0  0  0  0  0  0
   -8.4010    4.8969  -17.0023 N   0  0  0  0  0  0  0  0  0  0  0  0
   -8.1072    5.6345  -15.8996 C   0  0  0  0  0  0  0  0  0  0  0  0
   -8.7540    5.3345  -14.6544 N   0  0  0  0  0  0  0  0  0  0  0  0
   -8.5761    6.1085  -13.4543 C   0  0  0  0  0  0  0  0  0  0  0  0
   -8.9033    5.5410  -12.1226 C   0  0  0  0  0  0  0  0  0  0  0  0
   -9.1205    6.3946  -11.0261 C   0  0  0  0  0  0  0  0  0  0  0  0
   -9.4041    5.8710   -9.7617 C   0  0  0  0  0  0  0  0  0  0  0  0
   -9.4678    4.4839   -9.5635 C   0  0  0  0  0  0  0  0  0  0  0  0
   -9.7562    3.9522   -8.2566 N   0  0  0  0  0  0  0  0  0  0  0  0
  -10.6494    2.7990   -8.1069 C   0  0  0  0  0  0  0  0  0  0  0  0
  -11.4104    2.8968   -6.7824 C   0  0  0  0  0  0  0  0  0  0  0  0
  -10.4671    3.0904   -5.6640 N   0  0  0  0  0  0  0  0  0  0  0  0
  -11.1997    3.1117   -4.3887 C   0  0  0  0  0  0  0  0  0  0  0  0
   -9.7230    4.3529   -5.8378 C   0  0  0  0  0  0  0  0  0  0  0  0
   -8.8942    4.3001   -7.1220 C   0  0  0  0  0  0  0  0  0  0  0  0
   -9.2469    3.6278  -10.6540 C   0  0  0  0  0  0  0  0  0  0  0  0
   -8.9640    4.1501  -11.9198 C   0  0  0  0  0  0  0  0  0  0  0  0
   -8.1583    7.2972  -13.5315 O   0  0  0  0  0  0  0  0  0  0  0  0
   -7.1757    6.6205  -15.9827 N   0  0  0  0  0  0  0  0  0  0  0  0
   -6.5446    6.8953  -17.1516 C   0  0  0  0  0  0  0  0  0  0  0  0
   -7.9449    7.0218  -20.6490 H   0  0  0  0  0  0  0  0  0  0  0  0
   -6.7605    7.5641  -22.7459 H   0  0  0  0  0  0  0  0  0  0  0  0
   -4.2921    7.3709  -22.8710 H   0  0  0  0  0  0  0  0  0  0  0  0
   -3.0047    6.6261  -20.8876 H   0  0  0  0  0  0  0  0  0  0  0  0
   -4.1735    6.0633  -18.7853 H   0  0  0  0  0  0  0  0  0  0  0  0
   -7.2288    3.8740  -19.8580 H   0  0  0  0  0  0  0  0  0  0  0  0
   -8.7632    4.8146  -20.0947 H   0  0  0  0  0  0  0  0  0  0  0  0
   -8.7429    3.3698  -19.0207 H   0  0  0  0  0  0  0  0  0  0  0  0
   -9.4032    4.5163  -14.6348 H   0  0  0  0  0  0  0  0  0  0  0  0
   -9.0789    7.4695  -11.1472 H   0  0  0  0  0  0  0  0  0  0  0  0
   -9.5858    6.5488   -8.9370 H   0  0  0  0  0  0  0  0  0  0  0  0
  -11.3837    2.7645   -8.9417 H   0  0  0  0  0  0  0  0  0  0  0  0
  -10.0485    1.8643   -8.1235 H   0  0  0  0  0  0  0  0  0  0  0  0
  -11.9806    1.9527   -6.6404 H   0  0  0  0  0  0  0  0  0  0  0  0
  -12.1389    3.7378   -6.8372 H   0  0  0  0  0  0  0  0  0  0  0  0
  -10.4909    3.2340   -3.5413 H   0  0  0  0  0  0  0  0  0  0  0  0
  -11.9428    3.9407   -4.3611 H   0  0  0  0  0  0  0  0  0  0  0  0
  -11.7284    2.1456   -4.2365 H   0  0  0  0  0  0  0  0  0  0  0  0
  -10.4198    5.2223   -5.8833 H   0  0  0  0  0  0  0  0  0  0  0  0
   -9.0287    4.5090   -4.9813 H   0  0  0  0  0  0  0  0  0  0  0  0
   -8.4017    5.2838   -7.2758 H   0  0  0  0  0  0  0  0  0  0  0  0
   -8.0999    3.5294   -7.0194 H   0  0  0  0  0  0  0  0  0  0  0  0
   -9.2717    2.5541  -10.5204 H   0  0  0  0  0  0  0  0  0  0  0  0
   -8.7637    3.4595  -12.7275 H   0  0  0  0  0  0  0  0  0  0  0  0
   -5.8143    7.6929  -17.1826 H   0  0  0  0  0  0  0  0  0  0  0  0
  1  2  2  0
  2  3  1  0
  3  4  2  0
  4  5  1  0
  5  6  2  0
  1  7  1  0
  7  8  2  0
  8  9  1  0
  8 10  1  0
 10 11  2  0
 11 12  1  0
 12 13  1  0
 13 14  1  0
 14 15  2  0
 15 16  1  0
 16 17  2  0
 17 18  1  0
 18 19  1  0
 19 20  1  0
 20 21  1  0
 21 22  1  0
 21 23  1  0
 23 24  1  0
 17 25  1  0
 25 26  2  0
 13 27  2  0
 11 28  1  0
 28 29  2  0
  6  1  1  0
 29  7  1  0
 14 26  1  0
 24 18  1  0
  2 30  1  0
  3 31  1  0
  4 32  1  0
  5 33  1  0
  6 34  1  0
  9 35  1  0
  9 36  1  0
  9 37  1  0
 12 38  1  0
 15 39  1  0
 16 40  1  0
 19 41  1  0
 19 42  1  0
 20 43  1  0
 20 44  1  0
 22 45  1  0
 22 46  1  0
 22 47  1  0
 23 48  1  0
 23 49  1  0
 24 50  1  0
 24 51  1  0
 25 52  1  0
 26 53  1  0
 29 54  1  0
A    1
 C1 
A    2
 C2 
A    3
 C3 
A    4
 C4 
A    5
 C5 
A    6
 C6 
A    7
 C7 
A    8
 C8 
A    9
 C9 
A   10
 N1 
A   11
 C10
A   12
 N2 
A   13
 C11
A   14
 C12
A   15
 C13
A   16
 C14
A   17
 C15
A   18
 N3 
A   19
 C16
A   20
 C17
A   21
 N4 
A   22
 C18
A   23
 C19
A   24
 C20
A   25
 C21
A   26
 C22
A   27
 O1 
A   28
 N5 
A   29
 C23
A   30
 H1 
A   31
 H2 
A   32
 H3 
A   33
 H4 
A   34
 H5 
A   35
 H6 
A   36
 H7 
A   37
 H8 
A   38
 H9 
A   39
 H10
A   40
 H11
A   41
 H12
A   42
 H13
A   43
 H14
A   44
 H15
A   45
 H16
A   46
 H17
A   47
 H18
A   48
 H19
A   49
 H20
A   50
 H21
A   51
 H22
A   52
 H23
A   53
 H24
A   54
 H25
M  END
>  <ref_pdb>  (109) 
x0051_0B

>  <ref_mols>  (109) 
x0404_0B,x0803_0B

>  <original SMILES>  (109) 
[H]c1nc(N([H])C(=O)c2c([H])c([H])c(N3C([H])([H])C([H])([H])N(C([H])([H])[H])C([H])([H])C3([H])[H])c([H])c2[H])nc(C([H])([H])[H])c1-c1c([H])c([H])c([H])c([H])c1[H]

>  <index>  (109) 
117

>  <∆∆G>  (109) 
-7.754123

>  <∆G_bound>  (109) 
-7.48658

>  <∆G_unbound>  (109) 
0.267543

>  <comRMSD>  (109) 
0.769298

>  <N_constrained_atoms>  (109) 
28.0

>  <N_unconstrained_atoms>  (109) 
1.0

>  <runtime>  (109) 
125.368501

>  <LE>  (109) 
0.267384

>  <percent_hybrid>  (109) 
43.0

>  <dist>  (109) 
12.0

>  <ecfp4>  (109) 
0.170455

>  <daylight>  (109) 
0.207407

>  <topodist>  (109) 
3.0

>  <mces>  (109) 
30.0

>  <tdn>  (109) 
1.0

>  <tup>  (109) 
1.0

>  <rdn>  (109) 
0.0

>  <rup>  (109) 
0.0

>  <ldn>  (109) 
0.0

>  <lup>  (109) 
1.0

>  <mut>  (109) 
3.0

>  <maj>  (109) 
3.0

>  <min>  (109) 
0.0

>  <hyb>  (109) 
6.0

>  <sub>  (109) 
1.0

>  <query_index>  (109) 
94.0

>  <max_hit_Tanimoto>  (109) 
0.251511

>  <largest_ring>  (109) 
6

>  <N_interactions_kept>  (109) 
4.5

>  <N_interactions_lost>  (109) 
2.5

>  <interaction_uniqueness_metric>  (109) 
0.267346

>  <ad_hoc_penalty>  (109) 
-28.386521

>  <N_rotatable_bonds>  (109) 
6

>  <N_HA>  (109) 
29

>  <cluster>  (109) 
533

>  <N_interactions>  (109) 
9

>  <Enamine>  (109) 
0

>  <Mcule>  (109) 
1

>  <N_PAINS>  (109) 
0

>  <UFF_Gibbs>  (109) 
219.654148

>  <strain_per_HA>  (109) 
7.574281

>  <saltbridge:HIS:51>  (109) 
0

>  <pistack:HIS:51>  (109) 
1

>  <hydroph_interaction:HIS:51>  (109) 
1

>  <hbond:ALA:132>  (109) 
0

>  <hbond:SER:135>  (109) 
2

>  <hydroph_interaction:TYR:150>  (109) 
1

>  <pistack:TYR:161>  (109) 
0

>  <hydroph_interaction:TYR:161>  (109) 
3

>  <hydroph_interaction:ASP:83>  (109) 
0

>  <hbond:TYR:130>  (109) 
0

>  <hydroph_interaction:ALA:132>  (109) 
0

>  <hbond:HIS:51>  (109) 
0

>  <hbond:ASP:129>  (109) 
0

>  <hbond:TYR:150>  (109) 
0

>  <hbond:GLY:151>  (109) 
0

>  <hbond:TYR:161>  (109) 
0

>  <hydroph_interaction:TYR:130>  (109) 
0

>  <hydroph_interaction:PRO:131>  (109) 
0

>  <hydroph_interaction:ASP:129>  (109) 
0

>  <saltbridge:ASP:75>  (109) 
1

>  <saltbridge:ASP:83>  (109) 
0

>  <hydroph_interaction:ASN:152>  (109) 
0

>  <halogenbond:TYR:150>  (109) 
0

>  <hbond:ASP:83>  (109) 
0

>  <hydroph_interaction:VAL:155>  (109) 
0

>  <pication:TYR:161>  (109) 
0

>  <hbond:PRO:131>  (109) 
0

>  <hbond:LEU:128>  (109) 
0

>  <saltbridge:ASP:129>  (109) 
0

>  <hbond:THR:134>  (109) 
0

>  <pication:HIS:51>  (109) 
0

>  <hbond:SER:81>  (109) 
0

>  <hbond:GLY:159>  (109) 
0

>  <hydroph_interaction:PRO:101>  (109) 
0

>  <hydroph_interaction:THR:134>  (109) 
0

>  <hbond:GLY:82>  (109) 
0

>  <hydroph_interaction:GLU:104>  (109) 
0

>  <hydroph_interaction:VAL:36>  (109) 
0

>  <hydroph_interaction:MET:49>  (109) 
0

>  <halogenbond:GLU:104>  (109) 
0

>  <hydroph_interaction:LYS:107>  (109) 
0

$$$$
MCULE-1444618407
     RDKit          3D

 45 47  0  0  0  0  0  0  0  0999 V2000
  -10.8366    7.0370  -14.4722 S   0  0  0  0  0  6  0  0  0  0  0  0
  -12.3384    7.0419  -14.4099 O   0  0  0  0  0  0  0  0  0  0  0  0
  -10.3409    8.4541  -14.3808 O   0  0  0  0  0  0  0  0  0  0  0  0
  -10.2203    6.0691  -13.1366 C   0  0  0  0  0  0  0  0  0  0  0  0
   -9.6041    6.6805  -12.0372 C   0  0  0  0  0  0  0  0  0  0  0  0
   -9.0992    5.9028  -10.9914 C   0  0  0  0  0  0  0  0  0  0  0  0
   -9.2068    4.5023  -11.0307 C   0  0  0  0  0  0  0  0  0  0  0  0
   -9.8374    3.8947  -12.1306 C   0  0  0  0  0  0  0  0  0  0  0  0
  -10.3348    4.6741  -13.1787 C   0  0  0  0  0  0  0  0  0  0  0  0
   -8.7074    3.7047   -9.9391 N   0  0  0  0  0  0  0  0  0  0  0  0
   -9.5205    2.6079   -9.4008 C   0  0  0  0  0  0  0  0  0  0  0  0
   -9.0835    2.2652   -7.9724 C   0  0  0  0  0  0  0  0  0  0  0  0
   -7.6906    2.0217   -7.9353 O   0  0  0  0  0  0  0  0  0  0  0  0
   -6.9804    3.2297   -8.1373 C   0  0  0  0  0  0  0  0  0  0  0  0
   -7.3751    3.8941   -9.4266 C   0  0  0  0  0  0  0  0  0  0  0  0
   -6.5537    4.6431  -10.0217 O   0  0  0  0  0  0  0  0  0  0  0  0
  -10.3253    6.3527  -15.9840 N   0  0  0  0  0  0  0  0  0  0  0  0
   -8.9634    5.9730  -16.2750 C   0  0  0  0  0  0  0  0  0  0  0  0
   -7.9006    6.4441  -15.4782 C   0  0  0  0  0  0  0  0  0  0  0  0
   -6.5765    6.0753  -15.7467 C   0  0  0  0  0  0  0  0  0  0  0  0
   -5.4629    6.6066  -14.8914 C   0  0  0  0  0  0  0  0  0  0  0  0
   -6.2989    5.2578  -16.8472 C   0  0  0  0  0  0  0  0  0  0  0  0
   -7.3356    4.7878  -17.6534 C   0  0  0  0  0  0  0  0  0  0  0  0
   -8.6701    5.1305  -17.3775 C   0  0  0  0  0  0  0  0  0  0  0  0
   -9.7593    4.5923  -18.2660 C   0  0  0  0  0  0  0  0  0  0  0  0
   -9.5119    7.7573  -11.9871 H   0  0  0  0  0  0  0  0  0  0  0  0
   -8.6395    6.3919  -10.1427 H   0  0  0  0  0  0  0  0  0  0  0  0
   -9.9319    2.8179  -12.1839 H   0  0  0  0  0  0  0  0  0  0  0  0
  -10.8080    4.1909  -14.0234 H   0  0  0  0  0  0  0  0  0  0  0  0
   -9.3967    1.7099  -10.0443 H   0  0  0  0  0  0  0  0  0  0  0  0
  -10.5943    2.8958   -9.3929 H   0  0  0  0  0  0  0  0  0  0  0  0
   -9.6125    1.3454   -7.6475 H   0  0  0  0  0  0  0  0  0  0  0  0
   -9.3753    3.0780   -7.2681 H   0  0  0  0  0  0  0  0  0  0  0  0
   -5.8961    2.9940   -8.1696 H   0  0  0  0  0  0  0  0  0  0  0  0
   -7.1449    3.9278   -7.2873 H   0  0  0  0  0  0  0  0  0  0  0  0
  -11.0813    6.1703  -16.6766 H   0  0  0  0  0  0  0  0  0  0  0  0
   -8.0874    7.1071  -14.6494 H   0  0  0  0  0  0  0  0  0  0  0  0
   -4.5348    6.0083  -15.0222 H   0  0  0  0  0  0  0  0  0  0  0  0
   -5.7511    6.5635  -13.8188 H   0  0  0  0  0  0  0  0  0  0  0  0
   -5.2533    7.6604  -15.1685 H   0  0  0  0  0  0  0  0  0  0  0  0
   -5.2781    4.9815  -17.0830 H   0  0  0  0  0  0  0  0  0  0  0  0
   -7.0925    4.1490  -18.4963 H   0  0  0  0  0  0  0  0  0  0  0  0
  -10.5003    4.0320  -17.6560 H   0  0  0  0  0  0  0  0  0  0  0  0
   -9.3584    3.8990  -19.0370 H   0  0  0  0  0  0  0  0  0  0  0  0
  -10.2635    5.4312  -18.7900 H   0  0  0  0  0  0  0  0  0  0  0  0
  1  2  2  0
  1  3  2  0
  1  4  1  0
  4  5  2  0
  5  6  1  0
  6  7  2  0
  7  8  1  0
  8  9  2  0
  7 10  1  0
 10 11  1  0
 11 12  1  0
 12 13  1  0
 13 14  1  0
 14 15  1  0
 15 16  2  0
  1 17  1  0
 17 18  1  0
 18 19  2  0
 19 20  1  0
 20 21  1  0
 20 22  2  0
 22 23  1  0
 23 24  2  0
 24 25  1  0
  9  4  1  0
 15 10  1  0
 18 24  1  0
  5 26  1  0
  6 27  1  0
  8 28  1  0
  9 29  1  0
 11 30  1  0
 11 31  1  0
 12 32  1  0
 12 33  1  0
 14 34  1  0
 14 35  1  0
 17 36  1  0
 19 37  1  0
 21 38  1  0
 21 39  1  0
 21 40  1  0
 22 41  1  0
 23 42  1  0
 25 43  1  0
 25 44  1  0
 25 45  1  0
A    1
 S1 
A    2
 O1 
A    3
 O2 
A    4
 C1 
A    5
 C2 
A    6
 C3 
A    7
 C4 
A    8
 C5 
A    9
 C6 
A   10
 N1 
A   11
 C7 
A   12
 C8 
A   13
 O3 
A   14
 C9 
A   15
 C10
A   16
 O4 
A   17
 N2 
A   18
 C11
A   19
 C12
A   20
 C13
A   21
 C14
A   22
 C15
A   23
 C16
A   24
 C17
A   25
 C18
A   26
 H1 
A   27
 H2 
A   28
 H3 
A   29
 H4 
A   30
 H5 
A   31
 H6 
A   32
 H7 
A   33
 H8 
A   34
 H9 
A   35
 H10
A   36
 H11
A   37
 H12
A   38
 H13
A   39
 H14
A   40
 H15
A   41
 H16
A   42
 H17
A   43
 H18
A   44
 H19
A   45
 H20
M  END
>  <ref_pdb>  (110) 
x0051_0B

>  <ref_mols>  (110) 
x0553_0B,x0404_0B

>  <original SMILES>  (110) 
[H]c1c([H])c(S(=O)(=O)N([H])c2c([H])c(C([H])([H])[H])c([H])c([H])c2C([H])([H])[H])c([H])c([H])c1N1C(=O)C([H])([H])OC([H])([H])C1([H])[H]

>  <index>  (110) 
100

>  <∆∆G>  (110) 
-7.153278

>  <∆G_bound>  (110) 
-8.145316

>  <∆G_unbound>  (110) 
-0.992038

>  <comRMSD>  (110) 
0.942535

>  <N_constrained_atoms>  (110) 
25.0

>  <N_unconstrained_atoms>  (110) 
2.0

>  <runtime>  (110) 
67.187174

>  <LE>  (110) 
0.264936

>  <percent_hybrid>  (110) 
36.0

>  <dist>  (110) 
8.0

>  <ecfp4>  (110) 
0.259259

>  <daylight>  (110) 
0.291866

>  <topodist>  (110) 
3.0

>  <mces>  (110) 
26.0

>  <tdn>  (110) 
1.0

>  <tup>  (110) 
1.0

>  <rdn>  (110) 
0.0

>  <rup>  (110) 
0.0

>  <ldn>  (110) 
1.0

>  <lup>  (110) 
0.0

>  <mut>  (110) 
2.0

>  <maj>  (110) 
2.0

>  <min>  (110) 
0.0

>  <hyb>  (110) 
3.0

>  <sub>  (110) 
0.0

>  <query_index>  (110) 
112.0

>  <max_hit_Tanimoto>  (110) 
0.301173

>  <largest_ring>  (110) 
6

>  <N_interactions_kept>  (110) 
2.0

>  <N_interactions_lost>  (110) 
1.5

>  <interaction_uniqueness_metric>  (110) 
0.165284

>  <ad_hoc_penalty>  (110) 
-28.354373

>  <N_rotatable_bonds>  (110) 
6

>  <N_HA>  (110) 
25

>  <cluster>  (110) 
6124

>  <N_interactions>  (110) 
8

>  <Enamine>  (110) 
0

>  <Mcule>  (110) 
1

>  <N_PAINS>  (110) 
0

>  <UFF_Gibbs>  (110) 
208.232482

>  <strain_per_HA>  (110) 
7.712314

>  <saltbridge:HIS:51>  (110) 
0

>  <pistack:HIS:51>  (110) 
1

>  <hydroph_interaction:HIS:51>  (110) 
1

>  <hbond:ALA:132>  (110) 
0

>  <hbond:SER:135>  (110) 
2

>  <hydroph_interaction:TYR:150>  (110) 
1

>  <pistack:TYR:161>  (110) 
0

>  <hydroph_interaction:TYR:161>  (110) 
3

>  <hydroph_interaction:ASP:83>  (110) 
0

>  <hbond:TYR:130>  (110) 
0

>  <hydroph_interaction:ALA:132>  (110) 
0

>  <hbond:HIS:51>  (110) 
0

>  <hbond:ASP:129>  (110) 
0

>  <hbond:TYR:150>  (110) 
0

>  <hbond:GLY:151>  (110) 
0

>  <hbond:TYR:161>  (110) 
0

>  <hydroph_interaction:TYR:130>  (110) 
0

>  <hydroph_interaction:PRO:131>  (110) 
0

>  <hydroph_interaction:ASP:129>  (110) 
0

>  <saltbridge:ASP:75>  (110) 
0

>  <saltbridge:ASP:83>  (110) 
0

>  <hydroph_interaction:ASN:152>  (110) 
0

>  <halogenbond:TYR:150>  (110) 
0

>  <hbond:ASP:83>  (110) 
0

>  <hydroph_interaction:VAL:155>  (110) 
0

>  <pication:TYR:161>  (110) 
0

>  <hbond:PRO:131>  (110) 
0

>  <hbond:LEU:128>  (110) 
0

>  <saltbridge:ASP:129>  (110) 
0

>  <hbond:THR:134>  (110) 
0

>  <pication:HIS:51>  (110) 
0

>  <hbond:SER:81>  (110) 
0

>  <hbond:GLY:159>  (110) 
0

>  <hydroph_interaction:PRO:101>  (110) 
0

>  <hydroph_interaction:THR:134>  (110) 
0

>  <hbond:GLY:82>  (110) 
0

>  <hydroph_interaction:GLU:104>  (110) 
0

>  <hydroph_interaction:VAL:36>  (110) 
0

>  <hydroph_interaction:MET:49>  (110) 
0

>  <halogenbond:GLU:104>  (110) 
0

>  <hydroph_interaction:LYS:107>  (110) 
0

$$$$
MCULE-6803197119
     RDKit          3D

 52 56  0  0  0  0  0  0  0  0999 V2000
   -7.6661    9.1091  -27.4259 C   0  0  0  0  0  0  0  0  0  0  0  0
   -6.3514    9.2619  -26.8763 N   0  0  0  0  0  0  0  0  0  0  0  0
   -5.8866    8.6078  -25.6869 C   0  0  0  0  0  0  0  0  0  0  0  0
   -6.8416    8.1339  -24.6199 C   0  0  0  0  0  0  0  0  0  0  0  0
   -6.2257    8.2166  -23.2462 C   0  0  0  0  0  0  0  0  0  0  0  0
   -6.0975    9.4590  -22.6062 C   0  0  0  0  0  0  0  0  0  0  0  0
   -5.4997    9.5453  -21.3457 C   0  0  0  0  0  0  0  0  0  0  0  0
   -5.0302    8.3922  -20.7006 C   0  0  0  0  0  0  0  0  0  0  0  0
   -5.1347    7.1507  -21.3539 C   0  0  0  0  0  0  0  0  0  0  0  0
   -5.7288    7.0647  -22.6166 C   0  0  0  0  0  0  0  0  0  0  0  0
   -4.4106    8.5093  -19.4082 N   0  0  0  0  0  0  0  0  0  0  0  0
   -4.3330    7.4456  -18.4480 C   0  0  0  0  0  0  0  0  0  0  0  0
   -3.2801    7.3119  -17.7697 O   0  0  0  0  0  0  0  0  0  0  0  0
   -5.4748    6.5464  -18.1848 C   0  0  0  0  0  0  0  0  0  0  0  0
   -6.7957    6.7669  -18.5806 C   0  0  0  0  0  0  0  0  0  0  0  0
   -7.4982    5.6860  -18.0920 C   0  0  0  0  0  0  0  0  0  0  0  0
   -6.6088    4.8794  -17.4308 C   0  0  0  0  0  0  0  0  0  0  0  0
   -7.0113    3.6923  -16.8192 C   0  0  0  0  0  0  0  0  0  0  0  0
   -8.3718    3.3410  -16.8993 C   0  0  0  0  0  0  0  0  0  0  0  0
   -9.2872    4.1730  -17.5838 C   0  0  0  0  0  0  0  0  0  0  0  0
   -8.8509    5.3651  -18.1902 C   0  0  0  0  0  0  0  0  0  0  0  0
   -5.3694    5.3956  -17.4759 N   0  0  0  0  0  0  0  0  0  0  0  0
   -4.6469    8.4278  -25.5371 O   0  0  0  0  0  0  0  0  0  0  0  0
   -8.2900   10.0973  -28.6508 S   0  0  0  0  0  0  0  0  0  0  0  0
   -9.7174    9.2154  -28.7232 C   0  0  0  0  0  0  0  0  0  0  0  0
   -9.6595    8.1765  -27.8082 C   0  0  0  0  0  0  0  0  0  0  0  0
  -10.7227    7.2814  -27.6901 C   0  0  0  0  0  0  0  0  0  0  0  0
  -11.8494    7.4558  -28.5117 C   0  0  0  0  0  0  0  0  0  0  0  0
  -11.9105    8.5276  -29.4342 C   0  0  0  0  0  0  0  0  0  0  0  0
  -13.0992    8.6825  -30.3346 C   0  0  0  0  0  0  0  0  0  0  0  0
  -10.8204    9.4135  -29.5499 C   0  0  0  0  0  0  0  0  0  0  0  0
   -8.5135    8.1056  -27.0840 N   0  0  0  0  0  0  0  0  0  0  0  0
   -5.6693    9.8486  -27.4093 H   0  0  0  0  0  0  0  0  0  0  0  0
   -7.1465    7.0903  -24.8485 H   0  0  0  0  0  0  0  0  0  0  0  0
   -7.7569    8.7632  -24.6294 H   0  0  0  0  0  0  0  0  0  0  0  0
   -6.4563   10.3612  -23.0871 H   0  0  0  0  0  0  0  0  0  0  0  0
   -5.4095   10.5113  -20.8651 H   0  0  0  0  0  0  0  0  0  0  0  0
   -4.7453    6.2503  -20.8961 H   0  0  0  0  0  0  0  0  0  0  0  0
   -5.7955    6.1004  -23.1045 H   0  0  0  0  0  0  0  0  0  0  0  0
   -3.9220    9.4018  -19.1770 H   0  0  0  0  0  0  0  0  0  0  0  0
   -7.1926    7.6012  -19.1437 H   0  0  0  0  0  0  0  0  0  0  0  0
   -6.3023    3.0615  -16.2987 H   0  0  0  0  0  0  0  0  0  0  0  0
   -8.7188    2.4274  -16.4339 H   0  0  0  0  0  0  0  0  0  0  0  0
  -10.3310    3.8911  -17.6412 H   0  0  0  0  0  0  0  0  0  0  0  0
   -9.5436    6.0095  -18.7178 H   0  0  0  0  0  0  0  0  0  0  0  0
   -4.5044    4.9847  -17.0613 H   0  0  0  0  0  0  0  0  0  0  0  0
  -10.6796    6.4624  -26.9855 H   0  0  0  0  0  0  0  0  0  0  0  0
  -12.6726    6.7559  -28.4307 H   0  0  0  0  0  0  0  0  0  0  0  0
  -13.3271    9.7587  -30.4918 H   0  0  0  0  0  0  0  0  0  0  0  0
  -12.8815    8.2095  -31.3150 H   0  0  0  0  0  0  0  0  0  0  0  0
  -13.9975    8.1989  -29.8939 H   0  0  0  0  0  0  0  0  0  0  0  0
  -10.8309   10.2260  -30.2650 H   0  0  0  0  0  0  0  0  0  0  0  0
  1  2  1  0
  2  3  1  0
  3  4  1  0
  4  5  1  0
  5  6  2  0
  6  7  1  0
  7  8  2  0
  8  9  1  0
  9 10  2  0
  8 11  1  0
 11 12  1  0
 12 13  2  0
 12 14  1  0
 14 15  2  0
 15 16  1  0
 16 17  2  0
 17 18  1  0
 18 19  2  0
 19 20  1  0
 20 21  2  0
 17 22  1  0
  3 23  2  0
  1 24  1  0
 24 25  1  0
 25 26  2  0
 26 27  1  0
 27 28  2  0
 28 29  1  0
 29 30  1  0
 29 31  2  0
 26 32  1  0
  1 32  2  0
  5 10  1  0
 22 14  1  0
 21 16  1  0
 25 31  1  0
  2 33  1  0
  4 34  1  0
  4 35  1  0
  6 36  1  0
  7 37  1  0
  9 38  1  0
 10 39  1  0
 11 40  1  0
 15 41  1  0
 18 42  1  0
 19 43  1  0
 20 44  1  0
 21 45  1  0
 22 46  1  0
 27 47  1  0
 28 48  1  0
 30 49  1  0
 30 50  1  0
 30 51  1  0
 31 52  1  0
A    1
 C1 
A    2
 N1 
A    3
 C2 
A    4
 C3 
A    5
 C4 
A    6
 C5 
A    7
 C6 
A    8
 C7 
A    9
 C8 
A   10
 C9 
A   11
 N2 
A   12
 C10
A   13
 O1 
A   14
 C11
A   15
 C12
A   16
 C13
A   17
 C14
A   18
 C15
A   19
 C16
A   20
 C17
A   21
 C18
A   22
 N3 
A   23
 O2 
A   24
 S1 
A   25
 C19
A   26
 C20
A   27
 C21
A   28
 C22
A   29
 C23
A   30
 C24
A   31
 C25
A   32
 N4 
A   33
 H1 
A   34
 H2 
A   35
 H3 
A   36
 H4 
A   37
 H5 
A   38
 H6 
A   39
 H7 
A   40
 H8 
A   41
 H9 
A   42
 H10
A   43
 H11
A   44
 H12
A   45
 H13
A   46
 H14
A   47
 H15
A   48
 H16
A   49
 H17
A   50
 H18
A   51
 H19
A   52
 H20
M  END
>  <ref_pdb>  (111) 
x0051_0B

>  <ref_mols>  (111) 
x0846_1B,x0490_0B

>  <original SMILES>  (111) 
[H]c1c([H])c(C([H])([H])C(=O)N([H])c2nc3c([H])c([H])c(C([H])([H])[H])c([H])c3s2)c([H])c([H])c1N([H])C(=O)c1c([H])c2c([H])c([H])c([H])c([H])c2n1[H]

>  <index>  (111) 
276

>  <∆∆G>  (111) 
-11.576201

>  <∆G_bound>  (111) 
-10.928594

>  <∆G_unbound>  (111) 
0.647607

>  <comRMSD>  (111) 
0.931342

>  <N_constrained_atoms>  (111) 
28.0

>  <N_unconstrained_atoms>  (111) 
5.0

>  <runtime>  (111) 
75.328175

>  <LE>  (111) 
0.350794

>  <percent_hybrid>  (111) 
36.0

>  <dist>  (111) 
11.0

>  <ecfp4>  (111) 
0.147059

>  <daylight>  (111) 
0.225166

>  <topodist>  (111) 
7.0

>  <mces>  (111) 
32.0

>  <tdn>  (111) 
3.0

>  <tup>  (111) 
3.0

>  <rdn>  (111) 
0.0

>  <rup>  (111) 
0.0

>  <ldn>  (111) 
0.0

>  <lup>  (111) 
1.0

>  <mut>  (111) 
3.0

>  <maj>  (111) 
3.0

>  <min>  (111) 
0.0

>  <hyb>  (111) 
1.0

>  <sub>  (111) 
3.0

>  <query_index>  (111) 
51.0

>  <max_hit_Tanimoto>  (111) 
0.237799

>  <largest_ring>  (111) 
6

>  <N_interactions_kept>  (111) 
1.0

>  <N_interactions_lost>  (111) 
2.0

>  <interaction_uniqueness_metric>  (111) 
0.418652

>  <ad_hoc_penalty>  (111) 
-28.346993

>  <N_rotatable_bonds>  (111) 
6

>  <N_HA>  (111) 
32

>  <cluster>  (111) 
5964

>  <N_interactions>  (111) 
5

>  <Enamine>  (111) 
0

>  <Mcule>  (111) 
1

>  <N_PAINS>  (111) 
0

>  <UFF_Gibbs>  (111) 
168.050574

>  <strain_per_HA>  (111) 
5.092442

>  <saltbridge:HIS:51>  (111) 
0

>  <pistack:HIS:51>  (111) 
0

>  <hydroph_interaction:HIS:51>  (111) 
0

>  <hbond:ALA:132>  (111) 
0

>  <hbond:SER:135>  (111) 
0

>  <hydroph_interaction:TYR:150>  (111) 
1

>  <pistack:TYR:161>  (111) 
2

>  <hydroph_interaction:TYR:161>  (111) 
0

>  <hydroph_interaction:ASP:83>  (111) 
0

>  <hbond:TYR:130>  (111) 
0

>  <hydroph_interaction:ALA:132>  (111) 
0

>  <hbond:HIS:51>  (111) 
0

>  <hbond:ASP:129>  (111) 
0

>  <hbond:TYR:150>  (111) 
0

>  <hbond:GLY:151>  (111) 
0

>  <hbond:TYR:161>  (111) 
0

>  <hydroph_interaction:TYR:130>  (111) 
1

>  <hydroph_interaction:PRO:131>  (111) 
0

>  <hydroph_interaction:ASP:129>  (111) 
0

>  <saltbridge:ASP:75>  (111) 
0

>  <saltbridge:ASP:83>  (111) 
0

>  <hydroph_interaction:ASN:152>  (111) 
0

>  <halogenbond:TYR:150>  (111) 
0

>  <hbond:ASP:83>  (111) 
0

>  <hydroph_interaction:VAL:155>  (111) 
0

>  <pication:TYR:161>  (111) 
0

>  <hbond:PRO:131>  (111) 
0

>  <hbond:LEU:128>  (111) 
0

>  <saltbridge:ASP:129>  (111) 
0

>  <hbond:THR:134>  (111) 
0

>  <pication:HIS:51>  (111) 
0

>  <hbond:SER:81>  (111) 
0

>  <hbond:GLY:159>  (111) 
0

>  <hydroph_interaction:PRO:101>  (111) 
1

>  <hydroph_interaction:THR:134>  (111) 
0

>  <hbond:GLY:82>  (111) 
0

>  <hydroph_interaction:GLU:104>  (111) 
0

>  <hydroph_interaction:VAL:36>  (111) 
0

>  <hydroph_interaction:MET:49>  (111) 
0

>  <halogenbond:GLU:104>  (111) 
0

>  <hydroph_interaction:LYS:107>  (111) 
0

$$$$
Z2853450900
     RDKit          3D

 47 50  0  0  0  0  0  0  0  0999 V2000
   -9.5043    5.0880  -18.8794 C   0  0  0  0  0  0  0  0  0  0  0  0
  -10.1436    4.7551  -17.6861 C   0  0  0  0  0  0  0  0  0  0  0  0
   -9.4446    4.8070  -16.4787 C   0  0  0  0  0  0  0  0  0  0  0  0
   -8.0856    5.1754  -16.4501 C   0  0  0  0  0  0  0  0  0  0  0  0
   -7.4542    5.5608  -17.6607 C   0  0  0  0  0  0  0  0  0  0  0  0
   -8.1673    5.4876  -18.8685 C   0  0  0  0  0  0  0  0  0  0  0  0
   -6.0030    5.9734  -17.7014 C   0  0  0  0  0  0  0  0  0  0  0  0
   -5.4998    6.4518  -16.3398 C   0  0  0  0  0  0  0  0  0  0  0  0
   -5.8424    5.4228  -15.2656 C   0  0  0  0  0  0  0  0  0  0  0  0
   -7.3752    5.2836  -15.1098 C   0  0  0  0  0  0  0  0  0  0  0  0
   -7.7181    4.1144  -14.2726 N   0  0  0  0  0  0  0  0  0  0  0  0
   -7.6604    4.4030  -12.8321 C   0  0  0  0  0  0  0  0  0  0  0  0
   -9.0189    4.9121  -12.3446 C   0  0  0  0  0  0  0  0  0  0  0  0
   -8.9868    5.1694  -10.8687 C   0  0  0  0  0  0  0  0  0  0  0  0
   -9.2361    4.2797   -9.8443 C   0  0  0  0  0  0  0  0  0  0  0  0
   -9.7340    2.8680   -9.9438 C   0  0  0  0  0  0  0  0  0  0  0  0
   -9.5396    2.1366   -8.6060 C   0  0  0  0  0  0  0  0  0  0  0  0
   -9.9854    3.0082   -7.4199 C   0  0  0  0  0  0  0  0  0  0  0  0
   -9.1612    4.3047   -7.3526 C   0  0  0  0  0  0  0  0  0  0  0  0
   -9.0574    4.9192   -8.6748 N   0  0  0  0  0  0  0  0  0  0  0  0
   -8.6519    6.1599   -8.8956 N   0  0  0  0  0  0  0  0  0  0  0  0
   -8.6033    6.3387  -10.2330 C   0  0  0  0  0  0  0  0  0  0  0  0
  -10.0475    5.0423  -19.8145 H   0  0  0  0  0  0  0  0  0  0  0  0
  -11.1849    4.4598  -17.6954 H   0  0  0  0  0  0  0  0  0  0  0  0
   -9.9675    4.5615  -15.5626 H   0  0  0  0  0  0  0  0  0  0  0  0
   -7.6866    5.7459  -19.8042 H   0  0  0  0  0  0  0  0  0  0  0  0
   -5.8615    6.7938  -18.4385 H   0  0  0  0  0  0  0  0  0  0  0  0
   -5.3954    5.1042  -18.0350 H   0  0  0  0  0  0  0  0  0  0  0  0
   -5.9615    7.4320  -16.0874 H   0  0  0  0  0  0  0  0  0  0  0  0
   -4.3978    6.5898  -16.3836 H   0  0  0  0  0  0  0  0  0  0  0  0
   -5.3931    5.7481  -14.3034 H   0  0  0  0  0  0  0  0  0  0  0  0
   -5.3856    4.4466  -15.5416 H   0  0  0  0  0  0  0  0  0  0  0  0
   -7.7537    6.2186  -14.6382 H   0  0  0  0  0  0  0  0  0  0  0  0
   -7.0835    3.3110  -14.4926 H   0  0  0  0  0  0  0  0  0  0  0  0
   -7.4169    3.4657  -12.2831 H   0  0  0  0  0  0  0  0  0  0  0  0
   -6.8638    5.1414  -12.5915 H   0  0  0  0  0  0  0  0  0  0  0  0
   -9.8041    4.1599  -12.5742 H   0  0  0  0  0  0  0  0  0  0  0  0
   -9.2860    5.8533  -12.8702 H   0  0  0  0  0  0  0  0  0  0  0  0
  -10.8145    2.8889  -10.2018 H   0  0  0  0  0  0  0  0  0  0  0  0
   -9.1880    2.3266  -10.7453 H   0  0  0  0  0  0  0  0  0  0  0  0
  -10.1281    1.1941   -8.6147 H   0  0  0  0  0  0  0  0  0  0  0  0
   -8.4671    1.8683   -8.4828 H   0  0  0  0  0  0  0  0  0  0  0  0
   -9.8593    2.4411   -6.4726 H   0  0  0  0  0  0  0  0  0  0  0  0
  -11.0630    3.2594   -7.5311 H   0  0  0  0  0  0  0  0  0  0  0  0
   -9.6419    5.0143   -6.6455 H   0  0  0  0  0  0  0  0  0  0  0  0
   -8.1395    4.0743   -6.9810 H   0  0  0  0  0  0  0  0  0  0  0  0
   -8.2983    7.2585  -10.7141 H   0  0  0  0  0  0  0  0  0  0  0  0
  1  2  2  0
  2  3  1  0
  3  4  2  0
  4  5  1  0
  5  6  2  0
  5  7  1  0
  7  8  1  0
  8  9  1  0
  9 10  1  0
 10 11  1  0
 11 12  1  0
 12 13  1  0
 13 14  1  0
 14 15  2  0
 15 16  1  0
 16 17  1  0
 17 18  1  0
 18 19  1  0
 19 20  1  0
 20 21  1  0
 21 22  2  0
  6  1  1  0
 10  4  1  0
 22 14  1  0
 20 15  1  0
  1 23  1  0
  2 24  1  0
  3 25  1  0
  6 26  1  0
  7 27  1  0
  7 28  1  0
  8 29  1  0
  8 30  1  0
  9 31  1  0
  9 32  1  0
 10 33  1  0
 11 34  1  0
 12 35  1  0
 12 36  1  0
 13 37  1  0
 13 38  1  0
 16 39  1  0
 16 40  1  0
 17 41  1  0
 17 42  1  0
 18 43  1  0
 18 44  1  0
 19 45  1  0
 19 46  1  0
 22 47  1  0
A    1
 C1 
A    2
 C2 
A    3
 C3 
A    4
 C4 
A    5
 C5 
A    6
 C6 
A    7
 C7 
A    8
 C8 
A    9
 C9 
A   10
 C10
A   11
 N1 
A   12
 C11
A   13
 C12
A   14
 C13
A   15
 C14
A   16
 C15
A   17
 C16
A   18
 C17
A   19
 C18
A   20
 N2 
A   21
 N3 
A   22
 C19
A   23
 H1 
A   24
 H2 
A   25
 H3 
A   26
 H4 
A   27
 H5 
A   28
 H6 
A   29
 H7 
A   30
 H8 
A   31
 H9 
A   32
 H10
A   33
 H11
A   34
 H12
A   35
 H13
A   36
 H14
A   37
 H15
A   38
 H16
A   39
 H17
A   40
 H18
A   41
 H19
A   42
 H20
A   43
 H21
A   44
 H22
A   45
 H23
A   46
 H24
A   47
 H25
M  END
>  <ref_pdb>  (112) 
x0051_0B

>  <ref_mols>  (112) 
x0969_1B,x0455_0B

>  <original SMILES>  (112) 
[H]c1nn2c(c1C([H])([H])C([H])([H])N([H])C1([H])c3c([H])c([H])c([H])c([H])c3C([H])([H])C([H])([H])C1([H])[H])C([H])([H])C([H])([H])C([H])([H])C2([H])[H]

>  <index>  (112) 
109

>  <∆∆G>  (112) 
-7.022119

>  <∆G_bound>  (112) 
-6.415624

>  <∆G_unbound>  (112) 
0.606495

>  <comRMSD>  (112) 
0.352077

>  <N_constrained_atoms>  (112) 
20.0

>  <N_unconstrained_atoms>  (112) 
2.0

>  <runtime>  (112) 
75.536352

>  <LE>  (112) 
0.319187

>  <percent_hybrid>  (112) 
50.0

>  <dist>  (112) 
5.0

>  <ecfp4>  (112) 
0.278481

>  <daylight>  (112) 
0.280597

>  <topodist>  (112) 
0.0

>  <mces>  (112) 
25.0

>  <tdn>  (112) 
0.0

>  <tup>  (112) 
0.0

>  <rdn>  (112) 
0.0

>  <rup>  (112) 
0.0

>  <ldn>  (112) 
0.0

>  <lup>  (112) 
0.0

>  <mut>  (112) 
5.0

>  <maj>  (112) 
5.0

>  <min>  (112) 
0.0

>  <hyb>  (112) 
0.0

>  <sub>  (112) 
0.0

>  <query_index>  (112) 
204.0

>  <max_hit_Tanimoto>  (112) 
0.336345

>  <largest_ring>  (112) 
6

>  <N_interactions_kept>  (112) 
1.0

>  <N_interactions_lost>  (112) 
1.5

>  <interaction_uniqueness_metric>  (112) 
0.113871

>  <ad_hoc_penalty>  (112) 
-28.277165

>  <N_rotatable_bonds>  (112) 
4

>  <N_HA>  (112) 
22

>  <cluster>  (112) 
6117

>  <N_interactions>  (112) 
7

>  <Enamine>  (112) 
1

>  <Mcule>  (112) 
0

>  <N_PAINS>  (112) 
0

>  <UFF_Gibbs>  (112) 
140.864947

>  <strain_per_HA>  (112) 
6.402952

>  <saltbridge:HIS:51>  (112) 
0

>  <pistack:HIS:51>  (112) 
0

>  <hydroph_interaction:HIS:51>  (112) 
1

>  <hbond:ALA:132>  (112) 
0

>  <hbond:SER:135>  (112) 
0

>  <hydroph_interaction:TYR:150>  (112) 
1

>  <pistack:TYR:161>  (112) 
0

>  <hydroph_interaction:TYR:161>  (112) 
4

>  <hydroph_interaction:ASP:83>  (112) 
0

>  <hbond:TYR:130>  (112) 
0

>  <hydroph_interaction:ALA:132>  (112) 
0

>  <hbond:HIS:51>  (112) 
0

>  <hbond:ASP:129>  (112) 
0

>  <hbond:TYR:150>  (112) 
0

>  <hbond:GLY:151>  (112) 
0

>  <hbond:TYR:161>  (112) 
1

>  <hydroph_interaction:TYR:130>  (112) 
0

>  <hydroph_interaction:PRO:131>  (112) 
0

>  <hydroph_interaction:ASP:129>  (112) 
0

>  <saltbridge:ASP:75>  (112) 
0

>  <saltbridge:ASP:83>  (112) 
0

>  <hydroph_interaction:ASN:152>  (112) 
0

>  <halogenbond:TYR:150>  (112) 
0

>  <hbond:ASP:83>  (112) 
0

>  <hydroph_interaction:VAL:155>  (112) 
0

>  <pication:TYR:161>  (112) 
0

>  <hbond:PRO:131>  (112) 
0

>  <hbond:LEU:128>  (112) 
0

>  <saltbridge:ASP:129>  (112) 
0

>  <hbond:THR:134>  (112) 
0

>  <pication:HIS:51>  (112) 
0

>  <hbond:SER:81>  (112) 
0

>  <hbond:GLY:159>  (112) 
0

>  <hydroph_interaction:PRO:101>  (112) 
0

>  <hydroph_interaction:THR:134>  (112) 
0

>  <hbond:GLY:82>  (112) 
0

>  <hydroph_interaction:GLU:104>  (112) 
0

>  <hydroph_interaction:VAL:36>  (112) 
0

>  <hydroph_interaction:MET:49>  (112) 
0

>  <halogenbond:GLU:104>  (112) 
0

>  <hydroph_interaction:LYS:107>  (112) 
0

$$$$
FFPBZAVXPPFYLQ-UHFFFAOYSA-N
     RDKit          3D

 58 60  0  0  0  0  0  0  0  0999 V2000
   -8.2637    6.9661  -13.8222 C   0  0  0  0  0  0  0  0  0  0  0  0
   -8.8895    6.6862  -15.0816 N   0  0  0  0  0  0  0  0  0  0  0  0
   -8.1125    6.5768  -16.3149 C   0  0  0  0  0  0  0  0  0  0  0  0
   -7.6086    5.1329  -16.4915 C   0  0  0  0  0  0  0  0  0  0  0  0
   -6.7235    5.0199  -17.6451 N   0  0  0  0  0  0  0  0  0  0  0  0
   -5.4061    5.5920  -17.6974 C   0  0  0  0  0  0  0  0  0  0  0  0
   -4.6142    5.3922  -18.8399 O   0  0  0  0  0  0  0  0  0  0  0  0
   -3.2491    5.8019  -19.0118 C   0  0  0  0  0  0  0  0  0  0  0  0
   -2.7631    5.2098  -20.3465 C   0  0  0  0  0  0  0  0  0  0  0  0
   -2.3611    5.2545  -17.8744 C   0  0  0  0  0  0  0  0  0  0  0  0
   -3.1591    7.3383  -19.0817 C   0  0  0  0  0  0  0  0  0  0  0  0
   -4.9618    6.2332  -16.7092 O   0  0  0  0  0  0  0  0  0  0  0  0
   -7.1634    4.0122  -18.5946 C   0  0  0  0  0  0  0  0  0  0  0  0
   -8.2815    3.2511  -17.8963 C   0  0  0  0  0  0  0  0  0  0  0  0
   -8.7589    4.1531  -16.7631 C   0  0  0  0  0  0  0  0  0  0  0  0
   -7.2839    7.7602  -13.7746 O   0  0  0  0  0  0  0  0  0  0  0  0
   -8.7581    6.3356  -12.5778 C   0  0  0  0  0  0  0  0  0  0  0  0
   -8.5668    6.9655  -11.3384 C   0  0  0  0  0  0  0  0  0  0  0  0
   -9.0105    6.3599  -10.1587 C   0  0  0  0  0  0  0  0  0  0  0  0
   -9.6373    5.1000  -10.1891 C   0  0  0  0  0  0  0  0  0  0  0  0
  -10.0816    4.4677   -8.9688 N   0  0  0  0  0  0  0  0  0  0  0  0
  -10.4460    3.0616   -8.8712 C   0  0  0  0  0  0  0  0  0  0  0  0
  -10.6758    2.7986   -7.3893 C   0  0  0  0  0  0  0  0  0  0  0  0
  -10.9067    4.1693   -6.7635 C   0  0  0  0  0  0  0  0  0  0  0  0
  -10.2415    5.1661   -7.7030 C   0  0  0  0  0  0  0  0  0  0  0  0
   -9.8139    4.4662  -11.4330 C   0  0  0  0  0  0  0  0  0  0  0  0
   -9.3838    5.0793  -12.6128 C   0  0  0  0  0  0  0  0  0  0  0  0
   -9.8759    6.3397  -15.0906 H   0  0  0  0  0  0  0  0  0  0  0  0
   -7.2567    7.2824  -16.2850 H   0  0  0  0  0  0  0  0  0  0  0  0
   -8.7443    6.8760  -17.1784 H   0  0  0  0  0  0  0  0  0  0  0  0
   -7.0566    4.8132  -15.5796 H   0  0  0  0  0  0  0  0  0  0  0  0
   -3.4025    5.5659  -21.1857 H   0  0  0  0  0  0  0  0  0  0  0  0
   -1.7110    5.5056  -20.5575 H   0  0  0  0  0  0  0  0  0  0  0  0
   -2.8210    4.0971  -20.3164 H   0  0  0  0  0  0  0  0  0  0  0  0
   -1.2838    5.3808  -18.1224 H   0  0  0  0  0  0  0  0  0  0  0  0
   -2.5466    5.7974  -16.9233 H   0  0  0  0  0  0  0  0  0  0  0  0
   -2.5668    4.1702  -17.7140 H   0  0  0  0  0  0  0  0  0  0  0  0
   -3.5015    7.8035  -18.1341 H   0  0  0  0  0  0  0  0  0  0  0  0
   -3.7954    7.7217  -19.9080 H   0  0  0  0  0  0  0  0  0  0  0  0
   -2.1103    7.6594  -19.2666 H   0  0  0  0  0  0  0  0  0  0  0  0
   -7.5369    4.5110  -19.5164 H   0  0  0  0  0  0  0  0  0  0  0  0
   -6.3325    3.3172  -18.8520 H   0  0  0  0  0  0  0  0  0  0  0  0
   -7.8801    2.3071  -17.4710 H   0  0  0  0  0  0  0  0  0  0  0  0
   -9.1061    3.0113  -18.5984 H   0  0  0  0  0  0  0  0  0  0  0  0
   -9.6777    4.6833  -17.0961 H   0  0  0  0  0  0  0  0  0  0  0  0
   -9.0011    3.5588  -15.8549 H   0  0  0  0  0  0  0  0  0  0  0  0
   -8.0779    7.9331  -11.2827 H   0  0  0  0  0  0  0  0  0  0  0  0
   -8.8453    6.8764   -9.2232 H   0  0  0  0  0  0  0  0  0  0  0  0
  -11.3828    2.8779   -9.4449 H   0  0  0  0  0  0  0  0  0  0  0  0
   -9.6258    2.4163   -9.2596 H   0  0  0  0  0  0  0  0  0  0  0  0
   -9.7633    2.3417   -6.9472 H   0  0  0  0  0  0  0  0  0  0  0  0
  -11.5433    2.1221   -7.2239 H   0  0  0  0  0  0  0  0  0  0  0  0
  -10.4777    4.2269   -5.7403 H   0  0  0  0  0  0  0  0  0  0  0  0
  -11.9983    4.3734   -6.7123 H   0  0  0  0  0  0  0  0  0  0  0  0
  -10.8806    6.0647   -7.8321 H   0  0  0  0  0  0  0  0  0  0  0  0
   -9.2460    5.4599   -7.3084 H   0  0  0  0  0  0  0  0  0  0  0  0
  -10.2844    3.4957  -11.5013 H   0  0  0  0  0  0  0  0  0  0  0  0
   -9.5178    4.5552  -13.5494 H   0  0  0  0  0  0  0  0  0  0  0  0
  1  2  1  0
  2  3  1  0
  3  4  1  0
  4  5  1  0
  5  6  1  0
  6  7  1  0
  7  8  1  0
  8  9  1  0
  8 10  1  0
  8 11  1  0
  6 12  2  0
  5 13  1  0
 13 14  1  0
 14 15  1  0
  1 16  2  0
  1 17  1  0
 17 18  2  0
 18 19  1  0
 19 20  2  0
 20 21  1  0
 21 22  1  0
 22 23  1  0
 23 24  1  0
 24 25  1  0
 20 26  1  0
 26 27  2  0
 15  4  1  0
 27 17  1  0
 25 21  1  0
  2 28  1  0
  3 29  1  0
  3 30  1  0
  4 31  1  0
  9 32  1  0
  9 33  1  0
  9 34  1  0
 10 35  1  0
 10 36  1  0
 10 37  1  0
 11 38  1  0
 11 39  1  0
 11 40  1  0
 13 41  1  0
 13 42  1  0
 14 43  1  0
 14 44  1  0
 15 45  1  0
 15 46  1  0
 18 47  1  0
 19 48  1  0
 22 49  1  0
 22 50  1  0
 23 51  1  0
 23 52  1  0
 24 53  1  0
 24 54  1  0
 25 55  1  0
 25 56  1  0
 26 57  1  0
 27 58  1  0
A    1
 C1 
A    2
 N1 
A    3
 C2 
A    4
 C3 
A    5
 N2 
A    6
 C4 
A    7
 O1 
A    8
 C5 
A    9
 C6 
A   10
 C7 
A   11
 C8 
A   12
 O2 
A   13
 C9 
A   14
 C10
A   15
 C11
A   16
 O3 
A   17
 C12
A   18
 C13
A   19
 C14
A   20
 C15
A   21
 N3 
A   22
 C16
A   23
 C17
A   24
 C18
A   25
 C19
A   26
 C20
A   27
 C21
A   28
 H1 
A   29
 H2 
A   30
 H3 
A   31
 H4 
A   32
 H5 
A   33
 H6 
A   34
 H7 
A   35
 H8 
A   36
 H9 
A   37
 H10
A   38
 H11
A   39
 H12
A   40
 H13
A   41
 H14
A   42
 H15
A   43
 H16
A   44
 H17
A   45
 H18
A   46
 H19
A   47
 H20
A   48
 H21
A   49
 H22
A   50
 H23
A   51
 H24
A   52
 H25
A   53
 H26
A   54
 H27
A   55
 H28
A   56
 H29
A   57
 H30
A   58
 H31
M  END
>  <ref_pdb>  (113) 
x0051_0B

>  <ref_mols>  (113) 
x0404_0B,x0422_0B

>  <original SMILES>  (113) 
[H]c1c([H])c(N2C([H])([H])C([H])([H])C([H])([H])C2([H])[H])c([H])c([H])c1C(=O)N([H])C([H])([H])C1([H])N(C(=O)OC(C([H])([H])[H])(C([H])([H])[H])C([H])([H])[H])C([H])([H])C([H])([H])C1([H])[H]

>  <index>  (113) 
178

>  <∆∆G>  (113) 
-7.111857

>  <∆G_bound>  (113) 
-6.086564

>  <∆G_unbound>  (113) 
1.025293

>  <comRMSD>  (113) 
0.918901

>  <N_constrained_atoms>  (113) 
26.0

>  <N_unconstrained_atoms>  (113) 
2.0

>  <runtime>  (113) 
127.548372

>  <LE>  (113) 
0.253995

>  <percent_hybrid>  (113) 
43.0

>  <dist>  (113) 
12.0

>  <ecfp4>  (113) 
0.206897

>  <daylight>  (113) 
0.1875

>  <topodist>  (113) 
4.0

>  <mces>  (113) 
28.0

>  <tdn>  (113) 
1.0

>  <tup>  (113) 
1.0

>  <rdn>  (113) 
1.0

>  <rup>  (113) 
0.0

>  <ldn>  (113) 
1.0

>  <lup>  (113) 
0.0

>  <mut>  (113) 
6.0

>  <maj>  (113) 
6.0

>  <min>  (113) 
0.0

>  <hyb>  (113) 
2.0

>  <sub>  (113) 
0.0

>  <query_index>  (113) 
324.0

>  <max_hit_Tanimoto>  (113) 
0.232412

>  <largest_ring>  (113) 
6

>  <N_interactions_kept>  (113) 
3.5

>  <N_interactions_lost>  (113) 
2.0

>  <interaction_uniqueness_metric>  (113) 
0.152613

>  <ad_hoc_penalty>  (113) 
-28.240026

>  <N_rotatable_bonds>  (113) 
4

>  <N_HA>  (113) 
27

>  <cluster>  (113) 
6058

>  <N_interactions>  (113) 
7

>  <Enamine>  (113) 
0

>  <Mcule>  (113) 
1

>  <N_PAINS>  (113) 
0

>  <UFF_Gibbs>  (113) 
100.245828

>  <strain_per_HA>  (113) 
3.580208

>  <saltbridge:HIS:51>  (113) 
0

>  <pistack:HIS:51>  (113) 
1

>  <hydroph_interaction:HIS:51>  (113) 
0

>  <hbond:ALA:132>  (113) 
1

>  <hbond:SER:135>  (113) 
0

>  <hydroph_interaction:TYR:150>  (113) 
1

>  <pistack:TYR:161>  (113) 
0

>  <hydroph_interaction:TYR:161>  (113) 
3

>  <hydroph_interaction:ASP:83>  (113) 
0

>  <hbond:TYR:130>  (113) 
0

>  <hydroph_interaction:ALA:132>  (113) 
0

>  <hbond:HIS:51>  (113) 
0

>  <hbond:ASP:129>  (113) 
0

>  <hbond:TYR:150>  (113) 
0

>  <hbond:GLY:151>  (113) 
0

>  <hbond:TYR:161>  (113) 
0

>  <hydroph_interaction:TYR:130>  (113) 
0

>  <hydroph_interaction:PRO:131>  (113) 
0

>  <hydroph_interaction:ASP:129>  (113) 
0

>  <saltbridge:ASP:75>  (113) 
0

>  <saltbridge:ASP:83>  (113) 
0

>  <hydroph_interaction:ASN:152>  (113) 
0

>  <halogenbond:TYR:150>  (113) 
0

>  <hbond:ASP:83>  (113) 
0

>  <hydroph_interaction:VAL:155>  (113) 
1

>  <pication:TYR:161>  (113) 
0

>  <hbond:PRO:131>  (113) 
0

>  <hbond:LEU:128>  (113) 
0

>  <saltbridge:ASP:129>  (113) 
0

>  <hbond:THR:134>  (113) 
0

>  <pication:HIS:51>  (113) 
0

>  <hbond:SER:81>  (113) 
0

>  <hbond:GLY:159>  (113) 
0

>  <hydroph_interaction:PRO:101>  (113) 
0

>  <hydroph_interaction:THR:134>  (113) 
0

>  <hbond:GLY:82>  (113) 
0

>  <hydroph_interaction:GLU:104>  (113) 
0

>  <hydroph_interaction:VAL:36>  (113) 
0

>  <hydroph_interaction:MET:49>  (113) 
0

>  <halogenbond:GLU:104>  (113) 
0

>  <hydroph_interaction:LYS:107>  (113) 
0

$$$$
DCPVJZLCGHFTFE-UHFFFAOYSA-N
     RDKit          3D

 38 41  0  0  0  0  0  0  0  0999 V2000
   -9.7405    4.3117  -12.8529 O   0  0  0  0  0  0  0  0  0  0  0  0
   -9.6510    5.5853  -12.2804 C   0  0  0  0  0  0  0  0  0  0  0  0
   -9.7640    6.6168  -12.9977 O   0  0  0  0  0  0  0  0  0  0  0  0
   -9.4286    5.7272  -10.8335 C   0  0  0  0  0  0  0  0  0  0  0  0
   -9.1934    4.7392   -9.8947 C   0  0  0  0  0  0  0  0  0  0  0  0
   -9.1024    5.3208   -8.6844 N   0  0  0  0  0  0  0  0  0  0  0  0
   -8.8097    4.6268   -7.4319 C   0  0  0  0  0  0  0  0  0  0  0  0
   -9.1308    3.1293   -7.5560 C   0  0  0  0  0  0  0  0  0  0  0  0
   -8.5518    2.5556   -8.8588 C   0  0  0  0  0  0  0  0  0  0  0  0
   -9.1458    3.2508  -10.0947 C   0  0  0  0  0  0  0  0  0  0  0  0
   -9.2213    6.6336   -8.8014 N   0  0  0  0  0  0  0  0  0  0  0  0
   -9.4271    6.9075  -10.1067 C   0  0  0  0  0  0  0  0  0  0  0  0
   -9.8692    4.0927  -14.2566 C   0  0  0  0  0  0  0  0  0  0  0  0
   -8.5806    4.4003  -14.9749 C   0  0  0  0  0  0  0  0  0  0  0  0
   -8.4907    4.7760  -16.3302 C   0  0  0  0  0  0  0  0  0  0  0  0
   -7.1821    4.9517  -16.7612 C   0  0  0  0  0  0  0  0  0  0  0  0
   -6.8714    5.3247  -18.0665 C   0  0  0  0  0  0  0  0  0  0  0  0
   -7.9263    5.5242  -18.9683 C   0  0  0  0  0  0  0  0  0  0  0  0
   -9.2587    5.3435  -18.5532 C   0  0  0  0  0  0  0  0  0  0  0  0
   -9.5490    4.9656  -17.2313 C   0  0  0  0  0  0  0  0  0  0  0  0
   -6.1227    4.6261  -15.5039 S   0  0  0  0  0  0  0  0  0  0  0  0
   -7.3237    4.2542  -14.3770 C   0  0  0  0  0  0  0  0  0  0  0  0
   -7.7327    4.7565   -7.1904 H   0  0  0  0  0  0  0  0  0  0  0  0
   -9.4114    5.0681   -6.6086 H   0  0  0  0  0  0  0  0  0  0  0  0
   -8.7020    2.5864   -6.6864 H   0  0  0  0  0  0  0  0  0  0  0  0
  -10.2333    2.9836   -7.5457 H   0  0  0  0  0  0  0  0  0  0  0  0
   -8.7674    1.4667   -8.9118 H   0  0  0  0  0  0  0  0  0  0  0  0
   -7.4468    2.6841   -8.8570 H   0  0  0  0  0  0  0  0  0  0  0  0
  -10.1788    2.8806  -10.2688 H   0  0  0  0  0  0  0  0  0  0  0  0
   -8.5225    3.0053  -10.9805 H   0  0  0  0  0  0  0  0  0  0  0  0
   -9.5740    7.9042  -10.5015 H   0  0  0  0  0  0  0  0  0  0  0  0
  -10.1217    3.0259  -14.4285 H   0  0  0  0  0  0  0  0  0  0  0  0
  -10.7036    4.7129  -14.6462 H   0  0  0  0  0  0  0  0  0  0  0  0
   -5.8433    5.4535  -18.3793 H   0  0  0  0  0  0  0  0  0  0  0  0
   -7.7145    5.8137  -19.9893 H   0  0  0  0  0  0  0  0  0  0  0  0
  -10.0659    5.4943  -19.2582 H   0  0  0  0  0  0  0  0  0  0  0  0
  -10.5784    4.8228  -16.9330 H   0  0  0  0  0  0  0  0  0  0  0  0
   -7.1421    3.9488  -13.3549 H   0  0  0  0  0  0  0  0  0  0  0  0
  1  2  1  0
  2  3  2  0
  2  4  1  0
  4  5  2  0
  5  6  1  0
  6  7  1  0
  7  8  1  0
  8  9  1  0
  9 10  1  0
  6 11  1  0
 11 12  2  0
  1 13  1  0
 13 14  1  0
 14 15  1  0
 15 16  1  0
 16 17  2  0
 17 18  1  0
 18 19  2  0
 19 20  1  0
 16 21  1  0
 21 22  1  0
 12  4  1  0
 10  5  1  0
 14 22  2  0
 20 15  2  0
  7 23  1  0
  7 24  1  0
  8 25  1  0
  8 26  1  0
  9 27  1  0
  9 28  1  0
 10 29  1  0
 10 30  1  0
 12 31  1  0
 13 32  1  0
 13 33  1  0
 17 34  1  0
 18 35  1  0
 19 36  1  0
 20 37  1  0
 22 38  1  0
A    1
 O1 
A    2
 C1 
A    3
 O2 
A    4
 C2 
A    5
 C3 
A    6
 N1 
A    7
 C4 
A    8
 C5 
A    9
 C6 
A   10
 C7 
A   11
 N2 
A   12
 C8 
A   13
 C9 
A   14
 C10
A   15
 C11
A   16
 C12
A   17
 C13
A   18
 C14
A   19
 C15
A   20
 C16
A   21
 S1 
A   22
 C17
A   23
 H1 
A   24
 H2 
A   25
 H3 
A   26
 H4 
A   27
 H5 
A   28
 H6 
A   29
 H7 
A   30
 H8 
A   31
 H9 
A   32
 H10
A   33
 H11
A   34
 H12
A   35
 H13
A   36
 H14
A   37
 H15
A   38
 H16
M  END
>  <ref_pdb>  (114) 
x0051_0B

>  <ref_mols>  (114) 
x0969_1B,x0455_0B

>  <original SMILES>  (114) 
[H]c1nn2c(c1C(=O)OC([H])([H])c1c([H])sc3c([H])c([H])c([H])c([H])c13)C([H])([H])C([H])([H])C([H])([H])C2([H])[H]

>  <index>  (114) 
139

>  <∆∆G>  (114) 
-7.361537

>  <∆G_bound>  (114) 
-6.624807

>  <∆G_unbound>  (114) 
0.73673

>  <comRMSD>  (114) 
0.405412

>  <N_constrained_atoms>  (114) 
19.0

>  <N_unconstrained_atoms>  (114) 
3.0

>  <runtime>  (114) 
47.814978

>  <LE>  (114) 
0.334615

>  <percent_hybrid>  (114) 
48.0

>  <dist>  (114) 
8.0

>  <ecfp4>  (114) 
0.211765

>  <daylight>  (114) 
0.284916

>  <topodist>  (114) 
2.0

>  <mces>  (114) 
24.0

>  <tdn>  (114) 
0.0

>  <tup>  (114) 
1.0

>  <rdn>  (114) 
0.0

>  <rup>  (114) 
0.0

>  <ldn>  (114) 
1.0

>  <lup>  (114) 
0.0

>  <mut>  (114) 
3.0

>  <maj>  (114) 
3.0

>  <min>  (114) 
0.0

>  <hyb>  (114) 
3.0

>  <sub>  (114) 
0.0

>  <query_index>  (114) 
204.0

>  <max_hit_Tanimoto>  (114) 
0.298481

>  <largest_ring>  (114) 
6

>  <N_interactions_kept>  (114) 
1.5

>  <N_interactions_lost>  (114) 
1.0

>  <interaction_uniqueness_metric>  (114) 
0.130271

>  <ad_hoc_penalty>  (114) 
-28.215386

>  <N_rotatable_bonds>  (114) 
3

>  <N_HA>  (114) 
22

>  <cluster>  (114) 
6091

>  <N_interactions>  (114) 
5

>  <Enamine>  (114) 
0

>  <Mcule>  (114) 
1

>  <N_PAINS>  (114) 
0

>  <UFF_Gibbs>  (114) 
111.608835

>  <strain_per_HA>  (114) 
5.073129

>  <saltbridge:HIS:51>  (114) 
1

>  <pistack:HIS:51>  (114) 
0

>  <hydroph_interaction:HIS:51>  (114) 
0

>  <hbond:ALA:132>  (114) 
0

>  <hbond:SER:135>  (114) 
0

>  <hydroph_interaction:TYR:150>  (114) 
1

>  <pistack:TYR:161>  (114) 
1

>  <hydroph_interaction:TYR:161>  (114) 
2

>  <hydroph_interaction:ASP:83>  (114) 
0

>  <hbond:TYR:130>  (114) 
0

>  <hydroph_interaction:ALA:132>  (114) 
0

>  <hbond:HIS:51>  (114) 
0

>  <hbond:ASP:129>  (114) 
0

>  <hbond:TYR:150>  (114) 
0

>  <hbond:GLY:151>  (114) 
0

>  <hbond:TYR:161>  (114) 
0

>  <hydroph_interaction:TYR:130>  (114) 
0

>  <hydroph_interaction:PRO:131>  (114) 
0

>  <hydroph_interaction:ASP:129>  (114) 
0

>  <saltbridge:ASP:75>  (114) 
0

>  <saltbridge:ASP:83>  (114) 
0

>  <hydroph_interaction:ASN:152>  (114) 
0

>  <halogenbond:TYR:150>  (114) 
0

>  <hbond:ASP:83>  (114) 
0

>  <hydroph_interaction:VAL:155>  (114) 
0

>  <pication:TYR:161>  (114) 
0

>  <hbond:PRO:131>  (114) 
0

>  <hbond:LEU:128>  (114) 
0

>  <saltbridge:ASP:129>  (114) 
0

>  <hbond:THR:134>  (114) 
0

>  <pication:HIS:51>  (114) 
0

>  <hbond:SER:81>  (114) 
0

>  <hbond:GLY:159>  (114) 
0

>  <hydroph_interaction:PRO:101>  (114) 
0

>  <hydroph_interaction:THR:134>  (114) 
0

>  <hbond:GLY:82>  (114) 
0

>  <hydroph_interaction:GLU:104>  (114) 
0

>  <hydroph_interaction:VAL:36>  (114) 
0

>  <hydroph_interaction:MET:49>  (114) 
0

>  <halogenbond:GLU:104>  (114) 
0

>  <hydroph_interaction:LYS:107>  (114) 
0

$$$$
CSSS00010003466
     RDKit          3D

 27 28  0  0  0  0  0  0  0  0999 V2000
   -4.0020    3.5414  -16.1769 C   0  0  0  0  0  0  0  0  0  0  0  0
   -3.4406    4.9534  -16.3312 C   0  0  0  0  0  0  0  0  0  0  0  0
   -3.8496    5.6145  -17.6538 C   0  0  0  0  0  0  0  0  0  0  0  0
   -5.2878    5.9251  -17.6736 N   0  0  0  0  0  0  0  0  0  0  0  0
   -5.7499    7.2924  -17.3740 C   0  0  0  0  0  0  0  0  0  0  0  0
   -6.2352    7.4534  -15.9202 C   0  0  0  0  0  0  0  0  0  0  0  0
   -6.9784    5.9532  -15.1764 S   0  0  0  0  0  0  0  0  0  0  0  0
   -8.0639    5.5714  -16.5503 C   0  0  0  0  0  0  0  0  0  0  0  0
   -7.6577    5.0412  -17.7659 C   0  0  0  0  0  0  0  0  0  0  0  0
   -8.7301    4.6841  -18.5957 C   0  0  0  0  0  0  0  0  0  0  0  0
   -9.9738    4.9476  -18.0323 C   0  0  0  0  0  0  0  0  0  0  0  0
   -9.7405    5.6096  -16.5008 S   0  0  0  0  0  0  0  0  0  0  0  0
   -6.2416    4.9557  -18.1629 C   0  0  0  0  0  0  0  0  0  0  0  0
   -5.8742    4.0435  -18.9521 O   0  0  0  0  0  0  0  0  0  0  0  0
   -5.1058    3.5679  -16.0703 H   0  0  0  0  0  0  0  0  0  0  0  0
   -3.5788    3.0742  -15.2629 H   0  0  0  0  0  0  0  0  0  0  0  0
   -3.7282    2.9161  -17.0531 H   0  0  0  0  0  0  0  0  0  0  0  0
   -2.3312    4.8948  -16.2944 H   0  0  0  0  0  0  0  0  0  0  0  0
   -3.7744    5.5809  -15.4771 H   0  0  0  0  0  0  0  0  0  0  0  0
   -3.5722    4.9678  -18.5141 H   0  0  0  0  0  0  0  0  0  0  0  0
   -3.2548    6.5463  -17.7676 H   0  0  0  0  0  0  0  0  0  0  0  0
   -4.9404    8.0306  -17.5604 H   0  0  0  0  0  0  0  0  0  0  0  0
   -6.5705    7.5708  -18.0716 H   0  0  0  0  0  0  0  0  0  0  0  0
   -6.9720    8.2830  -15.8685 H   0  0  0  0  0  0  0  0  0  0  0  0
   -5.3693    7.7377  -15.2858 H   0  0  0  0  0  0  0  0  0  0  0  0
   -8.6084    4.2704  -19.5884 H   0  0  0  0  0  0  0  0  0  0  0  0
  -10.9298    4.7591  -18.5016 H   0  0  0  0  0  0  0  0  0  0  0  0
  1  2  1  0
  2  3  1  0
  3  4  1  0
  4  5  1  0
  5  6  1  0
  6  7  1  0
  7  8  1  0
  8  9  2  0
  9 10  1  0
 10 11  2  0
 11 12  1  0
  9 13  1  0
 13 14  2  0
 13  4  1  0
 12  8  1  0
  1 15  1  0
  1 16  1  0
  1 17  1  0
  2 18  1  0
  2 19  1  0
  3 20  1  0
  3 21  1  0
  5 22  1  0
  5 23  1  0
  6 24  1  0
  6 25  1  0
 10 26  1  0
 11 27  1  0
A    1
 C1 
A    2
 C2 
A    3
 C3 
A    4
 N1 
A    5
 C4 
A    6
 C5 
A    7
 S1 
A    8
 C6 
A    9
 C7 
A   10
 C8 
A   11
 C9 
A   12
 S2 
A   13
 C10
A   14
 O1 
A   15
 H1 
A   16
 H2 
A   17
 H3 
A   18
 H4 
A   19
 H5 
A   20
 H6 
A   21
 H7 
A   22
 H8 
A   23
 H9 
A   24
 H10
A   25
 H11
A   26
 H12
A   27
 H13
M  END
>  <ref_pdb>  (115) 
x0051_0B

>  <ref_mols>  (115) 
x0472_0B,x0386_0B

>  <original SMILES>  (115) 
[H]c1sc2c(c1[H])C(=O)N(C([H])([H])C([H])([H])C([H])([H])[H])C([H])([H])C([H])([H])S2

>  <index>  (115) 
143

>  <∆∆G>  (115) 
-7.544732

>  <∆G_bound>  (115) 
-7.34043

>  <∆G_unbound>  (115) 
0.204301

>  <comRMSD>  (115) 
0.498627

>  <N_constrained_atoms>  (115) 
14.0

>  <N_unconstrained_atoms>  (115) 
1.0

>  <runtime>  (115) 
21.376527

>  <LE>  (115) 
0.502982

>  <percent_hybrid>  (115) 
13.0

>  <dist>  (115) 
5.0

>  <ecfp4>  (115) 
0.186441

>  <daylight>  (115) 
0.297872

>  <topodist>  (115) 
2.0

>  <mces>  (115) 
14.0

>  <tdn>  (115) 
1.0

>  <tup>  (115) 
0.0

>  <rdn>  (115) 
0.0

>  <rup>  (115) 
0.0

>  <ldn>  (115) 
0.0

>  <lup>  (115) 
1.0

>  <mut>  (115) 
2.0

>  <maj>  (115) 
2.0

>  <min>  (115) 
0.0

>  <hyb>  (115) 
1.0

>  <sub>  (115) 
1.0

>  <query_index>  (115) 
75.0

>  <max_hit_Tanimoto>  (115) 
0.298541

>  <largest_ring>  (115) 
7

>  <N_interactions_kept>  (115) 
3.0

>  <N_interactions_lost>  (115) 
0.0

>  <interaction_uniqueness_metric>  (115) 
0.046449

>  <ad_hoc_penalty>  (115) 
-28.052166

>  <N_rotatable_bonds>  (115) 
3

>  <N_HA>  (115) 
14

>  <cluster>  (115) 
6088

>  <N_interactions>  (115) 
3

>  <Enamine>  (115) 
1

>  <Mcule>  (115) 
0

>  <N_PAINS>  (115) 
0

>  <UFF_Gibbs>  (115) 
61.643192

>  <strain_per_HA>  (115) 
4.109546

>  <saltbridge:HIS:51>  (115) 
0

>  <pistack:HIS:51>  (115) 
0

>  <hydroph_interaction:HIS:51>  (115) 
0

>  <hbond:ALA:132>  (115) 
0

>  <hbond:SER:135>  (115) 
0

>  <hydroph_interaction:TYR:150>  (115) 
0

>  <pistack:TYR:161>  (115) 
0

>  <hydroph_interaction:TYR:161>  (115) 
2

>  <hydroph_interaction:ASP:83>  (115) 
0

>  <hbond:TYR:130>  (115) 
0

>  <hydroph_interaction:ALA:132>  (115) 
0

>  <hbond:HIS:51>  (115) 
0

>  <hbond:ASP:129>  (115) 
0

>  <hbond:TYR:150>  (115) 
0

>  <hbond:GLY:151>  (115) 
0

>  <hbond:TYR:161>  (115) 
0

>  <hydroph_interaction:TYR:130>  (115) 
0

>  <hydroph_interaction:PRO:131>  (115) 
0

>  <hydroph_interaction:ASP:129>  (115) 
0

>  <saltbridge:ASP:75>  (115) 
0

>  <saltbridge:ASP:83>  (115) 
0

>  <hydroph_interaction:ASN:152>  (115) 
0

>  <halogenbond:TYR:150>  (115) 
0

>  <hbond:ASP:83>  (115) 
0

>  <hydroph_interaction:VAL:155>  (115) 
1

>  <pication:TYR:161>  (115) 
0

>  <hbond:PRO:131>  (115) 
0

>  <hbond:LEU:128>  (115) 
0

>  <saltbridge:ASP:129>  (115) 
0

>  <hbond:THR:134>  (115) 
0

>  <pication:HIS:51>  (115) 
0

>  <hbond:SER:81>  (115) 
0

>  <hbond:GLY:159>  (115) 
0

>  <hydroph_interaction:PRO:101>  (115) 
0

>  <hydroph_interaction:THR:134>  (115) 
0

>  <hbond:GLY:82>  (115) 
0

>  <hydroph_interaction:GLU:104>  (115) 
0

>  <hydroph_interaction:VAL:36>  (115) 
0

>  <hydroph_interaction:MET:49>  (115) 
0

>  <halogenbond:GLU:104>  (115) 
0

>  <hydroph_interaction:LYS:107>  (115) 
0

$$$$
MCULE-5876154034
     RDKit          3D

 48 50  0  0  0  0  0  0  0  0999 V2000
   -8.7587    5.3610  -14.2683 C   0  0  0  0  0  0  0  0  0  0  0  0
   -8.9050    4.3892  -15.3184 N   0  0  0  0  0  0  0  0  0  0  0  0
   -8.5121    4.6192  -16.6827 C   0  0  0  0  0  0  0  0  0  0  0  0
   -9.2438    4.0210  -17.7178 C   0  0  0  0  0  0  0  0  0  0  0  0
   -8.8706    4.2129  -19.0492 C   0  0  0  0  0  0  0  0  0  0  0  0
   -7.7540    4.9914  -19.3610 C   0  0  0  0  0  0  0  0  0  0  0  0
   -6.9908    5.5812  -18.3391 C   0  0  0  0  0  0  0  0  0  0  0  0
   -7.3736    5.3836  -16.9988 C   0  0  0  0  0  0  0  0  0  0  0  0
   -5.7977    6.3911  -18.6731 C   0  0  0  0  0  0  0  0  0  0  0  0
   -5.4298    6.5712  -20.0110 O   0  0  0  0  0  0  0  0  0  0  0  0
   -4.2957    7.3371  -20.3993 C   0  0  0  0  0  0  0  0  0  0  0  0
   -5.1128    6.9198  -17.7540 O   0  0  0  0  0  0  0  0  0  0  0  0
   -8.5305    6.5684  -14.5542 O   0  0  0  0  0  0  0  0  0  0  0  0
   -8.9136    4.9597  -12.8531 C   0  0  0  0  0  0  0  0  0  0  0  0
   -8.8462    5.9067  -11.8193 C   0  0  0  0  0  0  0  0  0  0  0  0
   -8.9937    5.4922  -10.4948 C   0  0  0  0  0  0  0  0  0  0  0  0
   -9.2005    4.1372  -10.1971 C   0  0  0  0  0  0  0  0  0  0  0  0
   -9.3692    3.6997   -8.8338 N   0  0  0  0  0  0  0  0  0  0  0  0
  -10.4127    2.7217   -8.4965 C   0  0  0  0  0  0  0  0  0  0  0  0
  -10.7018    2.7331   -6.9915 C   0  0  0  0  0  0  0  0  0  0  0  0
  -10.6370    4.1207   -6.5002 N   0  0  0  0  0  0  0  0  0  0  0  0
  -11.1770    4.2111   -5.1356 C   0  0  0  0  0  0  0  0  0  0  0  0
   -9.2531    4.6508   -6.5461 C   0  0  0  0  0  0  0  0  0  0  0  0
   -8.4607    4.1572   -7.7749 C   0  0  0  0  0  0  0  0  0  0  0  0
   -9.2691    3.2236  -11.2601 C   0  0  0  0  0  0  0  0  0  0  0  0
   -9.1218    3.6507  -12.5420 N   0  0  0  0  0  0  0  0  0  0  0  0
   -9.4116    3.5010  -15.1029 H   0  0  0  0  0  0  0  0  0  0  0  0
  -10.1112    3.4137  -17.4916 H   0  0  0  0  0  0  0  0  0  0  0  0
   -9.4479    3.7552  -19.8422 H   0  0  0  0  0  0  0  0  0  0  0  0
   -7.4853    5.1242  -20.4014 H   0  0  0  0  0  0  0  0  0  0  0  0
   -6.7726    5.8023  -16.2023 H   0  0  0  0  0  0  0  0  0  0  0  0
   -3.3726    6.8949  -19.9684 H   0  0  0  0  0  0  0  0  0  0  0  0
   -4.4077    8.3859  -20.0512 H   0  0  0  0  0  0  0  0  0  0  0  0
   -4.2142    7.3325  -21.5055 H   0  0  0  0  0  0  0  0  0  0  0  0
   -8.6888    6.9568  -12.0313 H   0  0  0  0  0  0  0  0  0  0  0  0
   -8.9676    6.2319   -9.7050 H   0  0  0  0  0  0  0  0  0  0  0  0
  -10.0963    1.7036   -8.8088 H   0  0  0  0  0  0  0  0  0  0  0  0
  -11.3480    2.9862   -9.0375 H   0  0  0  0  0  0  0  0  0  0  0  0
  -11.7144    2.3023   -6.8250 H   0  0  0  0  0  0  0  0  0  0  0  0
   -9.9625    2.0935   -6.4567 H   0  0  0  0  0  0  0  0  0  0  0  0
  -11.1088    5.2571   -4.7656 H   0  0  0  0  0  0  0  0  0  0  0  0
  -10.6244    3.5419   -4.4387 H   0  0  0  0  0  0  0  0  0  0  0  0
  -12.2517    3.9291   -5.1327 H   0  0  0  0  0  0  0  0  0  0  0  0
   -8.6832    4.3745   -5.6292 H   0  0  0  0  0  0  0  0  0  0  0  0
   -9.3073    5.7605   -6.5841 H   0  0  0  0  0  0  0  0  0  0  0  0
   -7.8191    3.3007   -7.4732 H   0  0  0  0  0  0  0  0  0  0  0  0
   -7.7770    4.9565   -8.1321 H   0  0  0  0  0  0  0  0  0  0  0  0
   -9.4256    2.1702  -11.0726 H   0  0  0  0  0  0  0  0  0  0  0  0
  1  2  1  0
  2  3  1  0
  3  4  2  0
  4  5  1  0
  5  6  2  0
  6  7  1  0
  7  8  2  0
  7  9  1  0
  9 10  1  0
 10 11  1  0
  9 12  2  0
  1 13  2  0
  1 14  1  0
 14 15  2  0
 15 16  1  0
 16 17  2  0
 17 18  1  0
 18 19  1  0
 19 20  1  0
 20 21  1  0
 21 22  1  0
 21 23  1  0
 23 24  1  0
 17 25  1  0
 25 26  2  0
  3  8  1  0
 14 26  1  0
 24 18  1  0
  2 27  1  0
  4 28  1  0
  5 29  1  0
  6 30  1  0
  8 31  1  0
 11 32  1  0
 11 33  1  0
 11 34  1  0
 15 35  1  0
 16 36  1  0
 19 37  1  0
 19 38  1  0
 20 39  1  0
 20 40  1  0
 22 41  1  0
 22 42  1  0
 22 43  1  0
 23 44  1  0
 23 45  1  0
 24 46  1  0
 24 47  1  0
 25 48  1  0
A    1
 C1 
A    2
 N1 
A    3
 C2 
A    4
 C3 
A    5
 C4 
A    6
 C5 
A    7
 C6 
A    8
 C7 
A    9
 C8 
A   10
 O1 
A   11
 C9 
A   12
 O2 
A   13
 O3 
A   14
 C10
A   15
 C11
A   16
 C12
A   17
 C13
A   18
 N2 
A   19
 C14
A   20
 C15
A   21
 N3 
A   22
 C16
A   23
 C17
A   24
 C18
A   25
 C19
A   26
 N4 
A   27
 H1 
A   28
 H2 
A   29
 H3 
A   30
 H4 
A   31
 H5 
A   32
 H6 
A   33
 H7 
A   34
 H8 
A   35
 H9 
A   36
 H10
A   37
 H11
A   38
 H12
A   39
 H13
A   40
 H14
A   41
 H15
A   42
 H16
A   43
 H17
A   44
 H18
A   45
 H19
A   46
 H20
A   47
 H21
A   48
 H22
M  END
>  <ref_pdb>  (116) 
x0051_0B

>  <ref_mols>  (116) 
x0443_0B,x0404_0B

>  <original SMILES>  (116) 
[H]c1nc(C(=O)N([H])c2c([H])c([H])c([H])c(C(=O)OC([H])([H])[H])c2[H])c([H])c([H])c1N1C([H])([H])C([H])([H])N(C([H])([H])[H])C([H])([H])C1([H])[H]

>  <index>  (116) 
244

>  <∆∆G>  (116) 
-6.107647

>  <∆G_bound>  (116) 
-5.284544

>  <∆G_unbound>  (116) 
0.823103

>  <comRMSD>  (116) 
0.62482

>  <N_constrained_atoms>  (116) 
25.0

>  <N_unconstrained_atoms>  (116) 
2.0

>  <runtime>  (116) 
143.187991

>  <LE>  (116) 
0.226209

>  <percent_hybrid>  (116) 
44.0

>  <dist>  (116) 
10.0

>  <ecfp4>  (116) 
0.2

>  <daylight>  (116) 
0.224199

>  <topodist>  (116) 
5.0

>  <mces>  (116) 
27.0

>  <tdn>  (116) 
1.0

>  <tup>  (116) 
1.0

>  <rdn>  (116) 
1.0

>  <rup>  (116) 
0.0

>  <ldn>  (116) 
2.0

>  <lup>  (116) 
0.0

>  <mut>  (116) 
4.0

>  <maj>  (116) 
4.0

>  <min>  (116) 
0.0

>  <hyb>  (116) 
1.0

>  <sub>  (116) 
2.0

>  <query_index>  (116) 
13.0

>  <max_hit_Tanimoto>  (116) 
0.247073

>  <largest_ring>  (116) 
6

>  <N_interactions_kept>  (116) 
2.0

>  <N_interactions_lost>  (116) 
2.5

>  <interaction_uniqueness_metric>  (116) 
0.417285

>  <ad_hoc_penalty>  (116) 
-28.049986

>  <N_rotatable_bonds>  (116) 
6

>  <N_HA>  (116) 
26

>  <cluster>  (116) 
5996

>  <N_interactions>  (116) 
9

>  <Enamine>  (116) 
0

>  <Mcule>  (116) 
1

>  <N_PAINS>  (116) 
0

>  <UFF_Gibbs>  (116) 
131.374888

>  <strain_per_HA>  (116) 
4.865737

>  <saltbridge:HIS:51>  (116) 
0

>  <pistack:HIS:51>  (116) 
1

>  <hydroph_interaction:HIS:51>  (116) 
1

>  <hbond:ALA:132>  (116) 
0

>  <hbond:SER:135>  (116) 
2

>  <hydroph_interaction:TYR:150>  (116) 
1

>  <pistack:TYR:161>  (116) 
0

>  <hydroph_interaction:TYR:161>  (116) 
1

>  <hydroph_interaction:ASP:83>  (116) 
0

>  <hbond:TYR:130>  (116) 
0

>  <hydroph_interaction:ALA:132>  (116) 
1

>  <hbond:HIS:51>  (116) 
0

>  <hbond:ASP:129>  (116) 
0

>  <hbond:TYR:150>  (116) 
0

>  <hbond:GLY:151>  (116) 
0

>  <hbond:TYR:161>  (116) 
0

>  <hydroph_interaction:TYR:130>  (116) 
0

>  <hydroph_interaction:PRO:131>  (116) 
0

>  <hydroph_interaction:ASP:129>  (116) 
0

>  <saltbridge:ASP:75>  (116) 
1

>  <saltbridge:ASP:83>  (116) 
1

>  <hydroph_interaction:ASN:152>  (116) 
0

>  <halogenbond:TYR:150>  (116) 
0

>  <hbond:ASP:83>  (116) 
0

>  <hydroph_interaction:VAL:155>  (116) 
0

>  <pication:TYR:161>  (116) 
0

>  <hbond:PRO:131>  (116) 
0

>  <hbond:LEU:128>  (116) 
0

>  <saltbridge:ASP:129>  (116) 
0

>  <hbond:THR:134>  (116) 
0

>  <pication:HIS:51>  (116) 
0

>  <hbond:SER:81>  (116) 
0

>  <hbond:GLY:159>  (116) 
0

>  <hydroph_interaction:PRO:101>  (116) 
0

>  <hydroph_interaction:THR:134>  (116) 
0

>  <hbond:GLY:82>  (116) 
0

>  <hydroph_interaction:GLU:104>  (116) 
0

>  <hydroph_interaction:VAL:36>  (116) 
0

>  <hydroph_interaction:MET:49>  (116) 
0

>  <halogenbond:GLU:104>  (116) 
0

>  <hydroph_interaction:LYS:107>  (116) 
0

$$$$
PV-006695652116
     RDKit          3D

 51 54  0  0  0  0  0  0  0  0999 V2000
   -3.6989    3.6956  -14.2829 C   0  0  0  0  0  0  0  0  0  0  0  0
   -3.3787    5.1590  -14.5885 C   0  0  0  0  0  0  0  0  0  0  0  0
   -3.8834    5.5541  -15.9555 C   0  0  0  0  0  0  0  0  0  0  0  0
   -3.0287    5.7290  -16.8684 O   0  0  0  0  0  0  0  0  0  0  0  0
   -5.2940    5.6976  -16.2635 N   0  0  0  0  0  0  0  0  0  0  0  0
   -5.6822    5.9765  -17.6555 C   0  0  0  0  0  0  0  0  0  0  0  0
   -7.1373    5.6776  -17.9400 C   0  0  0  0  0  0  0  0  0  0  0  0
   -7.6084    5.8411  -19.2538 C   0  0  0  0  0  0  0  0  0  0  0  0
   -8.9371    5.5532  -19.5726 C   0  0  0  0  0  0  0  0  0  0  0  0
   -9.8073    5.0892  -18.5854 C   0  0  0  0  0  0  0  0  0  0  0  0
   -9.3561    4.9264  -17.2742 C   0  0  0  0  0  0  0  0  0  0  0  0
   -8.0280    5.2489  -16.9270 C   0  0  0  0  0  0  0  0  0  0  0  0
   -7.5340    5.0262  -15.5135 C   0  0  0  0  0  0  0  0  0  0  0  0
   -8.5827    5.3434  -14.5386 N   0  0  0  0  0  0  0  0  0  0  0  0
   -9.1233    4.3800  -13.6224 C   0  0  0  0  0  0  0  0  0  0  0  0
   -8.7518    3.1748  -13.6629 O   0  0  0  0  0  0  0  0  0  0  0  0
  -10.0972    4.8155  -12.5737 C   0  0  0  0  0  0  0  0  0  0  0  0
   -9.3611    5.4144  -11.4175 C   0  0  0  0  0  0  0  0  0  0  0  0
   -8.8755    4.7725  -10.3030 C   0  0  0  0  0  0  0  0  0  0  0  0
   -9.0335    3.4359   -9.9361 O   0  0  0  0  0  0  0  0  0  0  0  0
   -8.2914    2.9159   -8.8249 C   0  0  0  0  0  0  0  0  0  0  0  0
   -8.1007    3.9889   -7.7319 C   0  0  0  0  0  0  0  0  0  0  0  0
   -7.4962    5.2840   -8.3217 C   0  0  0  0  0  0  0  0  0  0  0  0
   -8.1867    5.6411   -9.5590 N   0  0  0  0  0  0  0  0  0  0  0  0
   -8.1587    6.8245  -10.1563 N   0  0  0  0  0  0  0  0  0  0  0  0
   -8.8739    6.7112  -11.2999 C   0  0  0  0  0  0  0  0  0  0  0  0
   -6.3075    5.8934  -15.2181 C   0  0  0  0  0  0  0  0  0  0  0  0
   -3.2386    3.0342  -15.0487 H   0  0  0  0  0  0  0  0  0  0  0  0
   -3.2830    3.4268  -13.2859 H   0  0  0  0  0  0  0  0  0  0  0  0
   -4.7965    3.5221  -14.2681 H   0  0  0  0  0  0  0  0  0  0  0  0
   -2.2732    5.2884  -14.5517 H   0  0  0  0  0  0  0  0  0  0  0  0
   -3.7926    5.8250  -13.8030 H   0  0  0  0  0  0  0  0  0  0  0  0
   -5.0691    5.3537  -18.3435 H   0  0  0  0  0  0  0  0  0  0  0  0
   -5.4805    7.0456  -17.8802 H   0  0  0  0  0  0  0  0  0  0  0  0
   -6.9408    6.1859  -20.0351 H   0  0  0  0  0  0  0  0  0  0  0  0
   -9.2899    5.6804  -20.5893 H   0  0  0  0  0  0  0  0  0  0  0  0
  -10.8329    4.8503  -18.8383 H   0  0  0  0  0  0  0  0  0  0  0  0
  -10.0468    4.5486  -16.5306 H   0  0  0  0  0  0  0  0  0  0  0  0
   -7.2294    3.9594  -15.4304 H   0  0  0  0  0  0  0  0  0  0  0  0
   -8.9390    6.3241  -14.4952 H   0  0  0  0  0  0  0  0  0  0  0  0
  -10.6991    3.9470  -12.2250 H   0  0  0  0  0  0  0  0  0  0  0  0
  -10.7955    5.5645  -13.0003 H   0  0  0  0  0  0  0  0  0  0  0  0
   -7.2921    2.5768   -9.1818 H   0  0  0  0  0  0  0  0  0  0  0  0
   -8.8279    2.0386   -8.4054 H   0  0  0  0  0  0  0  0  0  0  0  0
   -7.4357    3.5957   -6.9304 H   0  0  0  0  0  0  0  0  0  0  0  0
   -9.0916    4.2220   -7.2799 H   0  0  0  0  0  0  0  0  0  0  0  0
   -6.4166    5.1262   -8.5407 H   0  0  0  0  0  0  0  0  0  0  0  0
   -7.5934    6.1124   -7.5858 H   0  0  0  0  0  0  0  0  0  0  0  0
   -9.0117    7.5148  -12.0131 H   0  0  0  0  0  0  0  0  0  0  0  0
   -6.5938    6.9686  -15.1917 H   0  0  0  0  0  0  0  0  0  0  0  0
   -5.9369    5.6249  -14.2113 H   0  0  0  0  0  0  0  0  0  0  0  0
  1  2  1  0
  2  3  1  0
  3  4  2  0
  3  5  1  0
  5  6  1  0
  6  7  1  0
  7  8  2  0
  8  9  1  0
  9 10  2  0
 10 11  1  0
 11 12  2  0
 12 13  1  0
 13 14  1  0
 14 15  1  0
 15 16  2  0
 15 17  1  0
 17 18  1  0
 18 19  2  0
 19 20  1  0
 20 21  1  0
 21 22  1  0
 22 23  1  0
 23 24  1  0
 24 25  1  0
 25 26  2  0
 13 27  1  0
 27  5  1  0
 12  7  1  0
 26 18  1  0
 24 19  1  0
  1 28  1  0
  1 29  1  0
  1 30  1  0
  2 31  1  0
  2 32  1  0
  6 33  1  0
  6 34  1  0
  8 35  1  0
  9 36  1  0
 10 37  1  0
 11 38  1  0
 13 39  1  0
 14 40  1  0
 17 41  1  0
 17 42  1  0
 21 43  1  0
 21 44  1  0
 22 45  1  0
 22 46  1  0
 23 47  1  0
 23 48  1  0
 26 49  1  0
 27 50  1  0
 27 51  1  0
A    1
 C1 
A    2
 C2 
A    3
 C3 
A    4
 O1 
A    5
 N1 
A    6
 C4 
A    7
 C5 
A    8
 C6 
A    9
 C7 
A   10
 C8 
A   11
 C9 
A   12
 C10
A   13
 C11
A   14
 N2 
A   15
 C12
A   16
 O2 
A   17
 C13
A   18
 C14
A   19
 C15
A   20
 O3 
A   21
 C16
A   22
 C17
A   23
 C18
A   24
 N3 
A   25
 N4 
A   26
 C19
A   27
 C20
A   28
 H1 
A   29
 H2 
A   30
 H3 
A   31
 H4 
A   32
 H5 
A   33
 H6 
A   34
 H7 
A   35
 H8 
A   36
 H9 
A   37
 H10
A   38
 H11
A   39
 H12
A   40
 H13
A   41
 H14
A   42
 H15
A   43
 H16
A   44
 H17
A   45
 H18
A   46
 H19
A   47
 H20
A   48
 H21
A   49
 H22
A   50
 H23
A   51
 H24
M  END
>  <ref_pdb>  (117) 
x0051_0B

>  <ref_mols>  (117) 
x0472_0B,x0969_1B

>  <original SMILES>  (117) 
[H]c1nn2c(c1C([H])([H])C(=O)N([H])C1([H])c3c([H])c([H])c([H])c([H])c3C([H])([H])N(C(=O)C([H])([H])C([H])([H])[H])C1([H])[H])OC([H])([H])C([H])([H])C2([H])[H]

>  <index>  (117) 
141

>  <∆∆G>  (117) 
-7.615646

>  <∆G_bound>  (117) 
-6.546598

>  <∆G_unbound>  (117) 
1.069048

>  <comRMSD>  (117) 
0.482829

>  <N_constrained_atoms>  (117) 
23.0

>  <N_unconstrained_atoms>  (117) 
4.0

>  <runtime>  (117) 
44.602444

>  <LE>  (117) 
0.282061

>  <percent_hybrid>  (117) 
44.0

>  <dist>  (117) 
10.0

>  <ecfp4>  (117) 
0.174757

>  <daylight>  (117) 
0.343575

>  <topodist>  (117) 
2.0

>  <mces>  (117) 
28.0

>  <tdn>  (117) 
0.0

>  <tup>  (117) 
1.0

>  <rdn>  (117) 
0.0

>  <rup>  (117) 
0.0

>  <ldn>  (117) 
0.0

>  <lup>  (117) 
1.0

>  <mut>  (117) 
6.0

>  <maj>  (117) 
6.0

>  <min>  (117) 
0.0

>  <hyb>  (117) 
2.0

>  <sub>  (117) 
0.0

>  <query_index>  (117) 
24.0

>  <max_hit_Tanimoto>  (117) 
0.280972

>  <largest_ring>  (117) 
6

>  <N_interactions_kept>  (117) 
2.5

>  <N_interactions_lost>  (117) 
1.0

>  <interaction_uniqueness_metric>  (117) 
0.103472

>  <ad_hoc_penalty>  (117) 
-27.980057

>  <N_rotatable_bonds>  (117) 
5

>  <N_HA>  (117) 
27

>  <cluster>  (117) 
6089

>  <N_interactions>  (117) 
6

>  <Enamine>  (117) 
1

>  <Mcule>  (117) 
0

>  <N_PAINS>  (117) 
0

>  <UFF_Gibbs>  (117) 
130.066791

>  <strain_per_HA>  (117) 
4.817289

>  <saltbridge:HIS:51>  (117) 
0

>  <pistack:HIS:51>  (117) 
1

>  <hydroph_interaction:HIS:51>  (117) 
0

>  <hbond:ALA:132>  (117) 
0

>  <hbond:SER:135>  (117) 
0

>  <hydroph_interaction:TYR:150>  (117) 
1

>  <pistack:TYR:161>  (117) 
1

>  <hydroph_interaction:TYR:161>  (117) 
2

>  <hydroph_interaction:ASP:83>  (117) 
0

>  <hbond:TYR:130>  (117) 
0

>  <hydroph_interaction:ALA:132>  (117) 
0

>  <hbond:HIS:51>  (117) 
0

>  <hbond:ASP:129>  (117) 
0

>  <hbond:TYR:150>  (117) 
0

>  <hbond:GLY:151>  (117) 
0

>  <hbond:TYR:161>  (117) 
0

>  <hydroph_interaction:TYR:130>  (117) 
0

>  <hydroph_interaction:PRO:131>  (117) 
0

>  <hydroph_interaction:ASP:129>  (117) 
0

>  <saltbridge:ASP:75>  (117) 
0

>  <saltbridge:ASP:83>  (117) 
0

>  <hydroph_interaction:ASN:152>  (117) 
0

>  <halogenbond:TYR:150>  (117) 
0

>  <hbond:ASP:83>  (117) 
0

>  <hydroph_interaction:VAL:155>  (117) 
1

>  <pication:TYR:161>  (117) 
0

>  <hbond:PRO:131>  (117) 
0

>  <hbond:LEU:128>  (117) 
0

>  <saltbridge:ASP:129>  (117) 
0

>  <hbond:THR:134>  (117) 
0

>  <pication:HIS:51>  (117) 
0

>  <hbond:SER:81>  (117) 
0

>  <hbond:GLY:159>  (117) 
0

>  <hydroph_interaction:PRO:101>  (117) 
0

>  <hydroph_interaction:THR:134>  (117) 
0

>  <hbond:GLY:82>  (117) 
0

>  <hydroph_interaction:GLU:104>  (117) 
0

>  <hydroph_interaction:VAL:36>  (117) 
0

>  <hydroph_interaction:MET:49>  (117) 
0

>  <halogenbond:GLU:104>  (117) 
0

>  <hydroph_interaction:LYS:107>  (117) 
0

$$$$
YBDTVIGYXIRLEB-UHFFFAOYSA-N
     RDKit          3D

 45 48  0  0  0  0  0  0  0  0999 V2000
   -9.3446    6.4225  -12.7017 C   0  0  0  0  0  0  0  0  0  0  0  0
  -10.3098    5.6084  -13.3825 N   0  0  0  0  0  0  0  0  0  0  0  0
  -10.5851    5.7578  -14.8082 C   0  0  0  0  0  0  0  0  0  0  0  0
   -9.4307    5.2411  -15.6020 C   0  0  0  0  0  0  0  0  0  0  0  0
   -9.2756    3.9863  -15.9442 O   0  0  0  0  0  0  0  0  0  0  0  0
   -8.1573    3.8452  -16.5873 N   0  0  0  0  0  0  0  0  0  0  0  0
   -7.6232    5.0817  -16.6259 C   0  0  0  0  0  0  0  0  0  0  0  0
   -6.2933    5.3907  -17.2528 C   0  0  0  0  0  0  0  0  0  0  0  0
   -5.2822    5.8394  -16.1876 C   0  0  0  0  0  0  0  0  0  0  0  0
   -3.9832    6.2967  -16.8638 C   0  0  0  0  0  0  0  0  0  0  0  0
   -4.2332    7.3463  -17.7813 O   0  0  0  0  0  0  0  0  0  0  0  0
   -5.0442    6.8789  -18.8440 C   0  0  0  0  0  0  0  0  0  0  0  0
   -6.4330    6.4721  -18.3346 C   0  0  0  0  0  0  0  0  0  0  0  0
   -8.3950    6.0003  -16.0063 N   0  0  0  0  0  0  0  0  0  0  0  0
   -8.9733    7.5139  -13.2125 O   0  0  0  0  0  0  0  0  0  0  0  0
   -8.7908    6.0176  -11.3969 C   0  0  0  0  0  0  0  0  0  0  0  0
   -8.6327    4.7477  -10.8662 C   0  0  0  0  0  0  0  0  0  0  0  0
   -8.0491    4.8641   -9.6582 N   0  0  0  0  0  0  0  0  0  0  0  0
   -7.6091    3.7515   -8.8171 C   0  0  0  0  0  0  0  0  0  0  0  0
   -8.2912    2.4411   -9.2409 C   0  0  0  0  0  0  0  0  0  0  0  0
   -8.2604    2.2810  -10.7688 C   0  0  0  0  0  0  0  0  0  0  0  0
   -9.0184    3.4231  -11.4617 C   0  0  0  0  0  0  0  0  0  0  0  0
   -7.7834    6.1353   -9.4046 N   0  0  0  0  0  0  0  0  0  0  0  0
   -8.2300    6.8608  -10.4505 C   0  0  0  0  0  0  0  0  0  0  0  0
  -10.8607    4.9041  -12.8448 H   0  0  0  0  0  0  0  0  0  0  0  0
  -10.7780    6.8244  -15.0528 H   0  0  0  0  0  0  0  0  0  0  0  0
  -11.4931    5.1752  -15.0736 H   0  0  0  0  0  0  0  0  0  0  0  0
   -5.9076    4.4632  -17.7340 H   0  0  0  0  0  0  0  0  0  0  0  0
   -5.6961    6.6851  -15.5943 H   0  0  0  0  0  0  0  0  0  0  0  0
   -5.0635    4.9977  -15.4948 H   0  0  0  0  0  0  0  0  0  0  0  0
   -3.4754    5.4393  -17.3621 H   0  0  0  0  0  0  0  0  0  0  0  0
   -3.2912    6.6727  -16.0811 H   0  0  0  0  0  0  0  0  0  0  0  0
   -5.1652    7.7010  -19.5805 H   0  0  0  0  0  0  0  0  0  0  0  0
   -4.5571    6.0319  -19.3795 H   0  0  0  0  0  0  0  0  0  0  0  0
   -6.9403    7.3714  -17.9197 H   0  0  0  0  0  0  0  0  0  0  0  0
   -7.0402    6.0843  -19.1813 H   0  0  0  0  0  0  0  0  0  0  0  0
   -7.8481    3.9682   -7.7539 H   0  0  0  0  0  0  0  0  0  0  0  0
   -6.5075    3.6409   -8.9145 H   0  0  0  0  0  0  0  0  0  0  0  0
   -7.7699    1.5827   -8.7653 H   0  0  0  0  0  0  0  0  0  0  0  0
   -9.3466    2.4415   -8.8902 H   0  0  0  0  0  0  0  0  0  0  0  0
   -8.7235    1.3104  -11.0489 H   0  0  0  0  0  0  0  0  0  0  0  0
   -7.2043    2.2693  -11.1182 H   0  0  0  0  0  0  0  0  0  0  0  0
   -8.7874    3.4105  -12.5485 H   0  0  0  0  0  0  0  0  0  0  0  0
  -10.1095    3.2704  -11.3203 H   0  0  0  0  0  0  0  0  0  0  0  0
   -8.1451    7.9371  -10.5219 H   0  0  0  0  0  0  0  0  0  0  0  0
  1  2  1  0
  2  3  1  0
  3  4  1  0
  4  5  1  0
  5  6  1  0
  6  7  2  0
  7  8  1  0
  8  9  1  0
  9 10  1  0
 10 11  1  0
 11 12  1  0
 12 13  1  0
  7 14  1  0
  1 15  2  0
  1 16  1  0
 16 17  2  0
 17 18  1  0
 18 19  1  0
 19 20  1  0
 20 21  1  0
 21 22  1  0
 18 23  1  0
 23 24  2  0
  4 14  2  0
 13  8  1  0
 24 16  1  0
 22 17  1  0
  2 25  1  0
  3 26  1  0
  3 27  1  0
  8 28  1  0
  9 29  1  0
  9 30  1  0
 10 31  1  0
 10 32  1  0
 12 33  1  0
 12 34  1  0
 13 35  1  0
 13 36  1  0
 19 37  1  0
 19 38  1  0
 20 39  1  0
 20 40  1  0
 21 41  1  0
 21 42  1  0
 22 43  1  0
 22 44  1  0
 24 45  1  0
A    1
 C1 
A    2
 N1 
A    3
 C2 
A    4
 C3 
A    5
 O1 
A    6
 N2 
A    7
 C4 
A    8
 C5 
A    9
 C6 
A   10
 C7 
A   11
 O2 
A   12
 C8 
A   13
 C9 
A   14
 N3 
A   15
 O3 
A   16
 C10
A   17
 C11
A   18
 N4 
A   19
 C12
A   20
 C13
A   21
 C14
A   22
 C15
A   23
 N5 
A   24
 C16
A   25
 H1 
A   26
 H2 
A   27
 H3 
A   28
 H4 
A   29
 H5 
A   30
 H6 
A   31
 H7 
A   32
 H8 
A   33
 H9 
A   34
 H10
A   35
 H11
A   36
 H12
A   37
 H13
A   38
 H14
A   39
 H15
A   40
 H16
A   41
 H17
A   42
 H18
A   43
 H19
A   44
 H20
A   45
 H21
M  END
>  <ref_pdb>  (118) 
x0051_0B

>  <ref_mols>  (118) 
x0945_0B,x0969_1B

>  <original SMILES>  (118) 
[H]c1nn2c(c1C(=O)N([H])C([H])([H])c1nc(C3([H])C([H])([H])C([H])([H])OC([H])([H])C3([H])[H])no1)C([H])([H])C([H])([H])C([H])([H])C2([H])[H]

>  <index>  (118) 
241

>  <∆∆G>  (118) 
-5.000661

>  <∆G_bound>  (118) 
-3.982263

>  <∆G_unbound>  (118) 
1.018398

>  <comRMSD>  (118) 
0.491823

>  <N_constrained_atoms>  (118) 
22.0

>  <N_unconstrained_atoms>  (118) 
2.0

>  <runtime>  (118) 
75.175187

>  <LE>  (118) 
0.208361

>  <percent_hybrid>  (118) 
46.0

>  <dist>  (118) 
11.0

>  <ecfp4>  (118) 
0.197674

>  <daylight>  (118) 
0.286517

>  <topodist>  (118) 
4.0

>  <mces>  (118) 
26.0

>  <tdn>  (118) 
2.0

>  <tup>  (118) 
1.0

>  <rdn>  (118) 
0.0

>  <rup>  (118) 
0.0

>  <ldn>  (118) 
1.0

>  <lup>  (118) 
0.0

>  <mut>  (118) 
6.0

>  <maj>  (118) 
6.0

>  <min>  (118) 
0.0

>  <hyb>  (118) 
1.0

>  <sub>  (118) 
0.0

>  <query_index>  (118) 
347.0

>  <max_hit_Tanimoto>  (118) 
0.312225

>  <largest_ring>  (118) 
6

>  <N_interactions_kept>  (118) 
1.5

>  <N_interactions_lost>  (118) 
0.5

>  <interaction_uniqueness_metric>  (118) 
0.17253

>  <ad_hoc_penalty>  (118) 
-27.953035

>  <N_rotatable_bonds>  (118) 
4

>  <N_HA>  (118) 
24

>  <cluster>  (118) 
5999

>  <N_interactions>  (118) 
5

>  <Enamine>  (118) 
0

>  <Mcule>  (118) 
1

>  <N_PAINS>  (118) 
0

>  <UFF_Gibbs>  (118) 
53.08263

>  <strain_per_HA>  (118) 
2.211776

>  <saltbridge:HIS:51>  (118) 
0

>  <pistack:HIS:51>  (118) 
1

>  <hydroph_interaction:HIS:51>  (118) 
0

>  <hbond:ALA:132>  (118) 
0

>  <hbond:SER:135>  (118) 
0

>  <hydroph_interaction:TYR:150>  (118) 
0

>  <pistack:TYR:161>  (118) 
1

>  <hydroph_interaction:TYR:161>  (118) 
1

>  <hydroph_interaction:ASP:83>  (118) 
1

>  <hbond:TYR:130>  (118) 
0

>  <hydroph_interaction:ALA:132>  (118) 
0

>  <hbond:HIS:51>  (118) 
0

>  <hbond:ASP:129>  (118) 
0

>  <hbond:TYR:150>  (118) 
0

>  <hbond:GLY:151>  (118) 
1

>  <hbond:TYR:161>  (118) 
0

>  <hydroph_interaction:TYR:130>  (118) 
0

>  <hydroph_interaction:PRO:131>  (118) 
0

>  <hydroph_interaction:ASP:129>  (118) 
0

>  <saltbridge:ASP:75>  (118) 
0

>  <saltbridge:ASP:83>  (118) 
0

>  <hydroph_interaction:ASN:152>  (118) 
0

>  <halogenbond:TYR:150>  (118) 
0

>  <hbond:ASP:83>  (118) 
0

>  <hydroph_interaction:VAL:155>  (118) 
0

>  <pication:TYR:161>  (118) 
0

>  <hbond:PRO:131>  (118) 
0

>  <hbond:LEU:128>  (118) 
0

>  <saltbridge:ASP:129>  (118) 
0

>  <hbond:THR:134>  (118) 
0

>  <pication:HIS:51>  (118) 
0

>  <hbond:SER:81>  (118) 
0

>  <hbond:GLY:159>  (118) 
0

>  <hydroph_interaction:PRO:101>  (118) 
0

>  <hydroph_interaction:THR:134>  (118) 
0

>  <hbond:GLY:82>  (118) 
0

>  <hydroph_interaction:GLU:104>  (118) 
0

>  <hydroph_interaction:VAL:36>  (118) 
0

>  <hydroph_interaction:MET:49>  (118) 
0

>  <halogenbond:GLU:104>  (118) 
0

>  <hydroph_interaction:LYS:107>  (118) 
0

$$$$
JIGHBNKWWUHLAE-UHFFFAOYSA-N
     RDKit          3D

 40 42  0  0  0  0  0  0  0  0999 V2000
   -8.6724    6.2888  -13.9420 C   0  0  0  0  0  0  0  0  0  0  0  0
   -9.9028    6.1890  -13.2087 N   0  0  0  0  0  0  0  0  0  0  0  0
  -10.0853    6.8232  -11.9047 C   0  0  0  0  0  0  0  0  0  0  0  0
   -9.1548    6.2288  -10.8897 C   0  0  0  0  0  0  0  0  0  0  0  0
   -8.7546    4.9197  -10.7587 C   0  0  0  0  0  0  0  0  0  0  0  0
   -7.9665    4.8026   -9.6860 N   0  0  0  0  0  0  0  0  0  0  0  0
   -7.3206    3.5571   -9.2821 C   0  0  0  0  0  0  0  0  0  0  0  0
   -8.0768    2.3526   -9.8805 C   0  0  0  0  0  0  0  0  0  0  0  0
   -8.4019    2.5863  -11.3711 C   0  0  0  0  0  0  0  0  0  0  0  0
   -9.0840    3.8295  -11.5607 O   0  0  0  0  0  0  0  0  0  0  0  0
   -7.8183    5.9828   -9.1059 N   0  0  0  0  0  0  0  0  0  0  0  0
   -8.5489    6.8722   -9.8188 C   0  0  0  0  0  0  0  0  0  0  0  0
   -7.7624    7.0644  -13.5405 O   0  0  0  0  0  0  0  0  0  0  0  0
   -8.4593    5.4748  -15.1593 C   0  0  0  0  0  0  0  0  0  0  0  0
   -7.2511    4.7676  -15.3833 C   0  0  0  0  0  0  0  0  0  0  0  0
   -6.1259    4.7813  -14.3809 C   0  0  0  0  0  0  0  0  0  0  0  0
   -7.0964    4.0288  -16.5680 C   0  0  0  0  0  0  0  0  0  0  0  0
   -8.1249    3.9685  -17.5091 C   0  0  0  0  0  0  0  0  0  0  0  0
   -9.3221    4.6605  -17.2929 C   0  0  0  0  0  0  0  0  0  0  0  0
  -10.4413    4.5608  -18.2872 C   0  0  0  0  0  0  0  0  0  0  0  0
   -9.4894    5.3977  -16.1127 C   0  0  0  0  0  0  0  0  0  0  0  0
  -10.6654    5.5705  -13.5657 H   0  0  0  0  0  0  0  0  0  0  0  0
  -11.1300    6.6691  -11.5602 H   0  0  0  0  0  0  0  0  0  0  0  0
   -9.9076    7.9164  -11.9947 H   0  0  0  0  0  0  0  0  0  0  0  0
   -6.2720    3.5573   -9.6499 H   0  0  0  0  0  0  0  0  0  0  0  0
   -7.3099    3.4794   -8.1738 H   0  0  0  0  0  0  0  0  0  0  0  0
   -7.4647    1.4320   -9.7682 H   0  0  0  0  0  0  0  0  0  0  0  0
   -9.0284    2.2080   -9.3240 H   0  0  0  0  0  0  0  0  0  0  0  0
   -7.4556    2.6011  -11.9537 H   0  0  0  0  0  0  0  0  0  0  0  0
   -9.0345    1.7588  -11.7553 H   0  0  0  0  0  0  0  0  0  0  0  0
   -8.6333    7.9229   -9.5751 H   0  0  0  0  0  0  0  0  0  0  0  0
   -5.5881    5.7505  -14.4375 H   0  0  0  0  0  0  0  0  0  0  0  0
   -6.5211    4.6353  -13.3534 H   0  0  0  0  0  0  0  0  0  0  0  0
   -5.3987    3.9645  -14.5761 H   0  0  0  0  0  0  0  0  0  0  0  0
   -6.1796    3.4854  -16.7610 H   0  0  0  0  0  0  0  0  0  0  0  0
   -7.9869    3.3797  -18.4078 H   0  0  0  0  0  0  0  0  0  0  0  0
  -11.0584    5.4846  -18.2779 H   0  0  0  0  0  0  0  0  0  0  0  0
  -11.0847    3.6930  -18.0322 H   0  0  0  0  0  0  0  0  0  0  0  0
  -10.0420    4.4262  -19.3152 H   0  0  0  0  0  0  0  0  0  0  0  0
  -10.4183    5.9314  -15.9484 H   0  0  0  0  0  0  0  0  0  0  0  0
  1  2  1  0
  2  3  1  0
  3  4  1  0
  4  5  2  0
  5  6  1  0
  6  7  1  0
  7  8  1  0
  8  9  1  0
  9 10  1  0
  6 11  1  0
 11 12  2  0
  1 13  2  0
  1 14  1  0
 14 15  2  0
 15 16  1  0
 15 17  1  0
 17 18  2  0
 18 19  1  0
 19 20  1  0
 19 21  2  0
 12  4  1  0
 10  5  1  0
 14 21  1  0
  2 22  1  0
  3 23  1  0
  3 24  1  0
  7 25  1  0
  7 26  1  0
  8 27  1  0
  8 28  1  0
  9 29  1  0
  9 30  1  0
 12 31  1  0
 16 32  1  0
 16 33  1  0
 16 34  1  0
 17 35  1  0
 18 36  1  0
 20 37  1  0
 20 38  1  0
 20 39  1  0
 21 40  1  0
A    1
 C1 
A    2
 N1 
A    3
 C2 
A    4
 C3 
A    5
 C4 
A    6
 N2 
A    7
 C5 
A    8
 C6 
A    9
 C7 
A   10
 O1 
A   11
 N3 
A   12
 C8 
A   13
 O2 
A   14
 C9 
A   15
 C10
A   16
 C11
A   17
 C12
A   18
 C13
A   19
 C14
A   20
 C15
A   21
 C16
A   22
 H1 
A   23
 H2 
A   24
 H3 
A   25
 H4 
A   26
 H5 
A   27
 H6 
A   28
 H7 
A   29
 H8 
A   30
 H9 
A   31
 H10
A   32
 H11
A   33
 H12
A   34
 H13
A   35
 H14
A   36
 H15
A   37
 H16
A   38
 H17
A   39
 H18
A   40
 H19
M  END
>  <ref_pdb>  (119) 
x0051_0B

>  <ref_mols>  (119) 
x0553_0B,x0969_1B

>  <original SMILES>  (119) 
[H]c1nn2c(c1C([H])([H])N([H])C(=O)c1c([H])c(C([H])([H])[H])c([H])c([H])c1C([H])([H])[H])OC([H])([H])C([H])([H])C2([H])[H]

>  <index>  (119) 
128

>  <∆∆G>  (119) 
-7.826163

>  <∆G_bound>  (119) 
-7.63549

>  <∆G_unbound>  (119) 
0.190673

>  <comRMSD>  (119) 
0.49189

>  <N_constrained_atoms>  (119) 
19.0

>  <N_unconstrained_atoms>  (119) 
3.0

>  <runtime>  (119) 
60.635492

>  <LE>  (119) 
0.355735

>  <percent_hybrid>  (119) 
48.0

>  <dist>  (119) 
7.0

>  <ecfp4>  (119) 
0.316456

>  <daylight>  (119) 
0.345455

>  <topodist>  (119) 
2.0

>  <mces>  (119) 
22.0

>  <tdn>  (119) 
1.0

>  <tup>  (119) 
1.0

>  <rdn>  (119) 
0.0

>  <rup>  (119) 
0.0

>  <ldn>  (119) 
0.0

>  <lup>  (119) 
0.0

>  <mut>  (119) 
4.0

>  <maj>  (119) 
4.0

>  <min>  (119) 
0.0

>  <hyb>  (119) 
1.0

>  <sub>  (119) 
0.0

>  <query_index>  (119) 
375.0

>  <max_hit_Tanimoto>  (119) 
0.259078

>  <largest_ring>  (119) 
6

>  <N_interactions_kept>  (119) 
1.0

>  <N_interactions_lost>  (119) 
1.5

>  <interaction_uniqueness_metric>  (119) 
0.183404

>  <ad_hoc_penalty>  (119) 
-27.742213

>  <N_rotatable_bonds>  (119) 
5

>  <N_HA>  (119) 
21

>  <cluster>  (119) 
6100

>  <N_interactions>  (119) 
7

>  <Enamine>  (119) 
0

>  <Mcule>  (119) 
1

>  <N_PAINS>  (119) 
0

>  <UFF_Gibbs>  (119) 
153.195406

>  <strain_per_HA>  (119) 
6.963428

>  <saltbridge:HIS:51>  (119) 
0

>  <pistack:HIS:51>  (119) 
1

>  <hydroph_interaction:HIS:51>  (119) 
1

>  <hbond:ALA:132>  (119) 
0

>  <hbond:SER:135>  (119) 
0

>  <hydroph_interaction:TYR:150>  (119) 
1

>  <pistack:TYR:161>  (119) 
1

>  <hydroph_interaction:TYR:161>  (119) 
1

>  <hydroph_interaction:ASP:83>  (119) 
0

>  <hbond:TYR:130>  (119) 
0

>  <hydroph_interaction:ALA:132>  (119) 
0

>  <hbond:HIS:51>  (119) 
0

>  <hbond:ASP:129>  (119) 
0

>  <hbond:TYR:150>  (119) 
0

>  <hbond:GLY:151>  (119) 
1

>  <hbond:TYR:161>  (119) 
1

>  <hydroph_interaction:TYR:130>  (119) 
0

>  <hydroph_interaction:PRO:131>  (119) 
0

>  <hydroph_interaction:ASP:129>  (119) 
0

>  <saltbridge:ASP:75>  (119) 
0

>  <saltbridge:ASP:83>  (119) 
0

>  <hydroph_interaction:ASN:152>  (119) 
0

>  <halogenbond:TYR:150>  (119) 
0

>  <hbond:ASP:83>  (119) 
0

>  <hydroph_interaction:VAL:155>  (119) 
0

>  <pication:TYR:161>  (119) 
0

>  <hbond:PRO:131>  (119) 
0

>  <hbond:LEU:128>  (119) 
0

>  <saltbridge:ASP:129>  (119) 
0

>  <hbond:THR:134>  (119) 
0

>  <pication:HIS:51>  (119) 
0

>  <hbond:SER:81>  (119) 
0

>  <hbond:GLY:159>  (119) 
0

>  <hydroph_interaction:PRO:101>  (119) 
0

>  <hydroph_interaction:THR:134>  (119) 
0

>  <hbond:GLY:82>  (119) 
0

>  <hydroph_interaction:GLU:104>  (119) 
0

>  <hydroph_interaction:VAL:36>  (119) 
0

>  <hydroph_interaction:MET:49>  (119) 
0

>  <halogenbond:GLU:104>  (119) 
0

>  <hydroph_interaction:LYS:107>  (119) 
0

$$$$
nan
     RDKit          3D

 52 54  0  0  0  0  0  0  0  0999 V2000
   -6.3092    7.2881  -20.4285 C   0  0  0  0  0  0  0  0  0  0  0  0
   -5.6389    5.9094  -20.2686 C   0  0  0  0  0  0  0  0  0  0  0  0
   -4.1239    6.0651  -20.0350 C   0  0  0  0  0  0  0  0  0  0  0  0
   -5.8634    5.0998  -21.5562 C   0  0  0  0  0  0  0  0  0  0  0  0
   -6.2442    5.1734  -19.1950 O   0  0  0  0  0  0  0  0  0  0  0  0
   -6.2857    5.5507  -17.8429 C   0  0  0  0  0  0  0  0  0  0  0  0
   -5.8075    6.6549  -17.4747 O   0  0  0  0  0  0  0  0  0  0  0  0
   -6.9542    4.6585  -16.8618 C   0  0  0  0  0  0  0  0  0  0  0  0
   -8.0186    3.8585  -17.3170 C   0  0  0  0  0  0  0  0  0  0  0  0
   -8.7208    3.0330  -16.4388 C   0  0  0  0  0  0  0  0  0  0  0  0
   -8.3712    2.9872  -15.0918 C   0  0  0  0  0  0  0  0  0  0  0  0
   -7.3004    3.7471  -14.6225 C   0  0  0  0  0  0  0  0  0  0  0  0
   -6.5699    4.5803  -15.4908 C   0  0  0  0  0  0  0  0  0  0  0  0
   -5.3994    5.3534  -14.9249 C   0  0  0  0  0  0  0  0  0  0  0  0
   -5.8327    6.7190  -14.3690 C   0  0  0  0  0  0  0  0  0  0  0  0
   -6.2429    6.6089  -12.9312 C   0  0  0  0  0  0  0  0  0  0  0  0
   -5.3569    6.6878  -12.0356 O   0  0  0  0  0  0  0  0  0  0  0  0
   -7.6066    6.3247  -12.5870 N   0  0  0  0  0  0  0  0  0  0  0  0
   -8.0453    6.0726  -11.2463 C   0  0  0  0  0  0  0  0  0  0  0  0
   -9.0895    5.2688  -10.8654 C   0  0  0  0  0  0  0  0  0  0  0  0
   -9.9549    4.5245  -11.6674 O   0  0  0  0  0  0  0  0  0  0  0  0
  -10.8150    3.5582  -11.0590 C   0  0  0  0  0  0  0  0  0  0  0  0
  -11.3048    4.0455   -9.6787 C   0  0  0  0  0  0  0  0  0  0  0  0
  -10.1178    4.4512   -8.7779 C   0  0  0  0  0  0  0  0  0  0  0  0
   -9.1705    5.2658   -9.5321 N   0  0  0  0  0  0  0  0  0  0  0  0
   -8.2081    6.0137   -9.0191 N   0  0  0  0  0  0  0  0  0  0  0  0
   -7.5002    6.5299  -10.0539 C   0  0  0  0  0  0  0  0  0  0  0  0
   -6.0689    7.9619  -19.5835 H   0  0  0  0  0  0  0  0  0  0  0  0
   -7.4112    7.1693  -20.4769 H   0  0  0  0  0  0  0  0  0  0  0  0
   -5.9697    7.7897  -21.3586 H   0  0  0  0  0  0  0  0  0  0  0  0
   -3.6437    6.5766  -20.8982 H   0  0  0  0  0  0  0  0  0  0  0  0
   -3.6498    5.0674  -19.9097 H   0  0  0  0  0  0  0  0  0  0  0  0
   -3.9098    6.6680  -19.1283 H   0  0  0  0  0  0  0  0  0  0  0  0
   -6.9542    4.9778  -21.7503 H   0  0  0  0  0  0  0  0  0  0  0  0
   -5.4190    4.0850  -21.4553 H   0  0  0  0  0  0  0  0  0  0  0  0
   -5.4021    5.6037  -22.4352 H   0  0  0  0  0  0  0  0  0  0  0  0
   -8.3282    3.8897  -18.3535 H   0  0  0  0  0  0  0  0  0  0  0  0
   -9.5425    2.4308  -16.8019 H   0  0  0  0  0  0  0  0  0  0  0  0
   -8.9181    2.3481  -14.4126 H   0  0  0  0  0  0  0  0  0  0  0  0
   -7.0303    3.6789  -13.5789 H   0  0  0  0  0  0  0  0  0  0  0  0
   -4.6166    5.4905  -15.7006 H   0  0  0  0  0  0  0  0  0  0  0  0
   -4.8969    4.7554  -14.1305 H   0  0  0  0  0  0  0  0  0  0  0  0
   -6.6628    7.1503  -14.9692 H   0  0  0  0  0  0  0  0  0  0  0  0
   -4.9771    7.4267  -14.4386 H   0  0  0  0  0  0  0  0  0  0  0  0
   -8.2914    6.1648  -13.3604 H   0  0  0  0  0  0  0  0  0  0  0  0
  -11.6832    3.3667  -11.7243 H   0  0  0  0  0  0  0  0  0  0  0  0
  -10.2542    2.6060  -10.9366 H   0  0  0  0  0  0  0  0  0  0  0  0
  -11.9700    4.9267   -9.8243 H   0  0  0  0  0  0  0  0  0  0  0  0
  -11.8927    3.2432   -9.1849 H   0  0  0  0  0  0  0  0  0  0  0  0
   -9.5979    3.5393   -8.4169 H   0  0  0  0  0  0  0  0  0  0  0  0
  -10.4906    5.0213   -7.8995 H   0  0  0  0  0  0  0  0  0  0  0  0
   -6.6643    7.2080   -9.9402 H   0  0  0  0  0  0  0  0  0  0  0  0
  1  2  1  0
  2  3  1  0
  2  4  1  0
  2  5  1  0
  5  6  1  0
  6  7  2  0
  6  8  1  0
  8  9  2  0
  9 10  1  0
 10 11  2  0
 11 12  1  0
 12 13  2  0
 13 14  1  0
 14 15  1  0
 15 16  1  0
 16 17  2  0
 16 18  1  0
 18 19  1  0
 19 20  2  0
 20 21  1  0
 21 22  1  0
 22 23  1  0
 23 24  1  0
 24 25  1  0
 25 26  1  0
 26 27  2  0
 13  8  1  0
 27 19  1  0
 25 20  1  0
  1 28  1  0
  1 29  1  0
  1 30  1  0
  3 31  1  0
  3 32  1  0
  3 33  1  0
  4 34  1  0
  4 35  1  0
  4 36  1  0
  9 37  1  0
 10 38  1  0
 11 39  1  0
 12 40  1  0
 14 41  1  0
 14 42  1  0
 15 43  1  0
 15 44  1  0
 18 45  1  0
 22 46  1  0
 22 47  1  0
 23 48  1  0
 23 49  1  0
 24 50  1  0
 24 51  1  0
 27 52  1  0
A    1
 C1 
A    2
 C2 
A    3
 C3 
A    4
 C4 
A    5
 O1 
A    6
 C5 
A    7
 O2 
A    8
 C6 
A    9
 C7 
A   10
 C8 
A   11
 C9 
A   12
 C10
A   13
 C11
A   14
 C12
A   15
 C13
A   16
 C14
A   17
 O3 
A   18
 N1 
A   19
 C15
A   20
 C16
A   21
 O4 
A   22
 C17
A   23
 C18
A   24
 C19
A   25
 N2 
A   26
 N3 
A   27
 C20
A   28
 H1 
A   29
 H2 
A   30
 H3 
A   31
 H4 
A   32
 H5 
A   33
 H6 
A   34
 H7 
A   35
 H8 
A   36
 H9 
A   37
 H10
A   38
 H11
A   39
 H12
A   40
 H13
A   41
 H14
A   42
 H15
A   43
 H16
A   44
 H17
A   45
 H18
A   46
 H19
A   47
 H20
A   48
 H21
A   49
 H22
A   50
 H23
A   51
 H24
A   52
 H25
M  END
>  <ref_pdb>  (120) 
x0051_0B

>  <ref_mols>  (120) 
x0101_0B,x0969_1B,x0693_0B

>  <original SMILES>  (120) 
[H]c1nn2c(c1N([H])C(=O)C([H])([H])C([H])([H])c1c([H])c([H])c([H])c([H])c1C(=O)OC(C([H])([H])[H])(C([H])([H])[H])C([H])([H])[H])OC([H])([H])C([H])([H])C2([H])[H]

>  <index>  (120) 
22973

>  <∆∆G>  (120) 
-9.010891

>  <∆G_bound>  (120) 
-7.483712

>  <∆G_unbound>  (120) 
1.527178

>  <comRMSD>  (120) 
0.612605

>  <N_constrained_atoms>  (120) 
26.0

>  <N_unconstrained_atoms>  (120) 
3.0

>  <runtime>  (120) 
65.609964

>  <LE>  (120) 
0.31072

>  <percent_hybrid>  (120) 
50.0

>  <dist>  (120) 
nan

>  <ecfp4>  (120) 
nan

>  <daylight>  (120) 
nan

>  <topodist>  (120) 
nan

>  <mces>  (120) 
nan

>  <tdn>  (120) 
nan

>  <tup>  (120) 
nan

>  <rdn>  (120) 
nan

>  <rup>  (120) 
nan

>  <ldn>  (120) 
nan

>  <lup>  (120) 
nan

>  <mut>  (120) 
nan

>  <maj>  (120) 
nan

>  <min>  (120) 
nan

>  <hyb>  (120) 
nan

>  <sub>  (120) 
nan

>  <query_index>  (120) 
nan

>  <max_hit_Tanimoto>  (120) 
0.219366

>  <largest_ring>  (120) 
6

>  <N_interactions_kept>  (120) 
5.5

>  <N_interactions_lost>  (120) 
1.5

>  <interaction_uniqueness_metric>  (120) 
0.204825

>  <ad_hoc_penalty>  (120) 
-27.623711

>  <N_rotatable_bonds>  (120) 
5

>  <N_HA>  (120) 
27

>  <cluster>  (120) 
1391

>  <N_interactions>  (120) 
6

>  <Enamine>  (120) 
0

>  <Mcule>  (120) 
0

>  <N_PAINS>  (120) 
0

>  <UFF_Gibbs>  (120) 
215.320268

>  <strain_per_HA>  (120) 
7.424837

>  <saltbridge:HIS:51>  (120) 
0

>  <pistack:HIS:51>  (120) 
1

>  <hydroph_interaction:HIS:51>  (120) 
1

>  <hbond:ALA:132>  (120) 
0

>  <hbond:SER:135>  (120) 
0

>  <hydroph_interaction:TYR:150>  (120) 
1

>  <pistack:TYR:161>  (120) 
1

>  <hydroph_interaction:TYR:161>  (120) 
0

>  <hydroph_interaction:ASP:83>  (120) 
0

>  <hbond:TYR:130>  (120) 
0

>  <hydroph_interaction:ALA:132>  (120) 
0

>  <hbond:HIS:51>  (120) 
1

>  <hbond:ASP:129>  (120) 
0

>  <hbond:TYR:150>  (120) 
0

>  <hbond:GLY:151>  (120) 
0

>  <hbond:TYR:161>  (120) 
0

>  <hydroph_interaction:TYR:130>  (120) 
0

>  <hydroph_interaction:PRO:131>  (120) 
0

>  <hydroph_interaction:ASP:129>  (120) 
1

>  <saltbridge:ASP:75>  (120) 
0

>  <saltbridge:ASP:83>  (120) 
0

>  <hydroph_interaction:ASN:152>  (120) 
0

>  <halogenbond:TYR:150>  (120) 
0

>  <hbond:ASP:83>  (120) 
0

>  <hydroph_interaction:VAL:155>  (120) 
0

>  <pication:TYR:161>  (120) 
0

>  <hbond:PRO:131>  (120) 
0

>  <hbond:LEU:128>  (120) 
0

>  <saltbridge:ASP:129>  (120) 
0

>  <hbond:THR:134>  (120) 
0

>  <pication:HIS:51>  (120) 
0

>  <hbond:SER:81>  (120) 
0

>  <hbond:GLY:159>  (120) 
0

>  <hydroph_interaction:PRO:101>  (120) 
0

>  <hydroph_interaction:THR:134>  (120) 
0

>  <hbond:GLY:82>  (120) 
0

>  <hydroph_interaction:GLU:104>  (120) 
0

>  <hydroph_interaction:VAL:36>  (120) 
0

>  <hydroph_interaction:MET:49>  (120) 
0

>  <halogenbond:GLU:104>  (120) 
0

>  <hydroph_interaction:LYS:107>  (120) 
0

$$$$
Z2480319974
     RDKit          3D

 49 51  0  0  0  0  0  0  0  0999 V2000
   -3.5473    2.7347  -20.7470 C   0  0  0  0  0  0  0  0  0  0  0  0
   -4.8699    3.3401  -20.5612 N   0  0  0  0  0  0  0  0  0  0  0  0
   -5.8461    3.3294  -21.6565 C   0  0  0  0  0  0  0  0  0  0  0  0
   -5.1953    3.9437  -19.2905 C   0  0  0  0  0  0  0  0  0  0  0  0
   -4.3423    3.9393  -18.3601 O   0  0  0  0  0  0  0  0  0  0  0  0
   -6.5368    4.5802  -19.0498 C   0  0  0  0  0  0  0  0  0  0  0  0
   -6.6092    5.1076  -17.7263 O   0  0  0  0  0  0  0  0  0  0  0  0
   -7.7312    5.7585  -17.1922 C   0  0  0  0  0  0  0  0  0  0  0  0
   -8.9108    5.9582  -17.9332 C   0  0  0  0  0  0  0  0  0  0  0  0
  -10.0017    6.6092  -17.3538 C   0  0  0  0  0  0  0  0  0  0  0  0
   -9.9298    7.0673  -16.0365 C   0  0  0  0  0  0  0  0  0  0  0  0
   -8.7585    6.8795  -15.2822 C   0  0  0  0  0  0  0  0  0  0  0  0
   -8.6757    7.3560  -13.8847 C   0  0  0  0  0  0  0  0  0  0  0  0
   -9.6834    7.8770  -13.3312 O   0  0  0  0  0  0  0  0  0  0  0  0
   -7.4763    7.2214  -13.1744 O   0  0  0  0  0  0  0  0  0  0  0  0
   -7.3467    7.5325  -11.7895 C   0  0  0  0  0  0  0  0  0  0  0  0
   -8.0956    6.5368  -10.9565 C   0  0  0  0  0  0  0  0  0  0  0  0
   -8.0250    5.1601  -11.0105 C   0  0  0  0  0  0  0  0  0  0  0  0
   -7.2637    4.3094  -11.9840 C   0  0  0  0  0  0  0  0  0  0  0  0
   -7.1883    2.8598  -11.4801 C   0  0  0  0  0  0  0  0  0  0  0  0
   -8.5558    2.3716  -10.9727 C   0  0  0  0  0  0  0  0  0  0  0  0
   -9.0459    3.2358   -9.7986 C   0  0  0  0  0  0  0  0  0  0  0  0
   -8.8723    4.6565  -10.0958 N   0  0  0  0  0  0  0  0  0  0  0  0
   -9.4484    5.6405   -9.4231 N   0  0  0  0  0  0  0  0  0  0  0  0
   -8.9926    6.8037   -9.9360 C   0  0  0  0  0  0  0  0  0  0  0  0
   -7.6645    6.2218  -15.8723 C   0  0  0  0  0  0  0  0  0  0  0  0
   -2.7596    3.5025  -20.5949 H   0  0  0  0  0  0  0  0  0  0  0  0
   -3.4048    1.9144  -20.0121 H   0  0  0  0  0  0  0  0  0  0  0  0
   -3.4257    2.3116  -21.7661 H   0  0  0  0  0  0  0  0  0  0  0  0
   -6.7607    2.7853  -21.3412 H   0  0  0  0  0  0  0  0  0  0  0  0
   -5.4447    2.8257  -22.5606 H   0  0  0  0  0  0  0  0  0  0  0  0
   -6.1115    4.3705  -21.9350 H   0  0  0  0  0  0  0  0  0  0  0  0
   -7.3291    3.8134  -19.1834 H   0  0  0  0  0  0  0  0  0  0  0  0
   -6.6829    5.4031  -19.7813 H   0  0  0  0  0  0  0  0  0  0  0  0
   -8.9950    5.6139  -18.9549 H   0  0  0  0  0  0  0  0  0  0  0  0
  -10.9070    6.7593  -17.9279 H   0  0  0  0  0  0  0  0  0  0  0  0
  -10.7893    7.5694  -15.6102 H   0  0  0  0  0  0  0  0  0  0  0  0
   -7.7151    8.5632  -11.5951 H   0  0  0  0  0  0  0  0  0  0  0  0
   -6.2730    7.4911  -11.5124 H   0  0  0  0  0  0  0  0  0  0  0  0
   -6.2372    4.7118  -12.1188 H   0  0  0  0  0  0  0  0  0  0  0  0
   -7.7865    4.3338  -12.9643 H   0  0  0  0  0  0  0  0  0  0  0  0
   -6.8429    2.2018  -12.3063 H   0  0  0  0  0  0  0  0  0  0  0  0
   -6.4446    2.7927  -10.6557 H   0  0  0  0  0  0  0  0  0  0  0  0
   -9.2952    2.4197  -11.8021 H   0  0  0  0  0  0  0  0  0  0  0  0
   -8.4750    1.3134  -10.6435 H   0  0  0  0  0  0  0  0  0  0  0  0
   -8.4631    2.9847   -8.8862 H   0  0  0  0  0  0  0  0  0  0  0  0
  -10.1182    3.0217   -9.6020 H   0  0  0  0  0  0  0  0  0  0  0  0
   -9.2943    7.7824   -9.5877 H   0  0  0  0  0  0  0  0  0  0  0  0
   -6.7535    6.0598  -15.3092 H   0  0  0  0  0  0  0  0  0  0  0  0
  1  2  1  0
  2  3  1  0
  2  4  1  0
  4  5  2  0
  4  6  1  0
  6  7  1  0
  7  8  1  0
  8  9  2  0
  9 10  1  0
 10 11  2  0
 11 12  1  0
 12 13  1  0
 13 14  2  0
 13 15  1  0
 15 16  1  0
 16 17  1  0
 17 18  2  0
 18 19  1  0
 19 20  1  0
 20 21  1  0
 21 22  1  0
 22 23  1  0
 23 24  1  0
 24 25  2  0
 12 26  2  0
 26  8  1  0
 25 17  1  0
 23 18  1  0
  1 27  1  0
  1 28  1  0
  1 29  1  0
  3 30  1  0
  3 31  1  0
  3 32  1  0
  6 33  1  0
  6 34  1  0
  9 35  1  0
 10 36  1  0
 11 37  1  0
 16 38  1  0
 16 39  1  0
 19 40  1  0
 19 41  1  0
 20 42  1  0
 20 43  1  0
 21 44  1  0
 21 45  1  0
 22 46  1  0
 22 47  1  0
 25 48  1  0
 26 49  1  0
A    1
 C1 
A    2
 N1 
A    3
 C2 
A    4
 C3 
A    5
 O1 
A    6
 C4 
A    7
 O2 
A    8
 C5 
A    9
 C6 
A   10
 C7 
A   11
 C8 
A   12
 C9 
A   13
 C10
A   14
 O3 
A   15
 O4 
A   16
 C11
A   17
 C12
A   18
 C13
A   19
 C14
A   20
 C15
A   21
 C16
A   22
 C17
A   23
 N2 
A   24
 N3 
A   25
 C18
A   26
 C19
A   27
 H1 
A   28
 H2 
A   29
 H3 
A   30
 H4 
A   31
 H5 
A   32
 H6 
A   33
 H7 
A   34
 H8 
A   35
 H9 
A   36
 H10
A   37
 H11
A   38
 H12
A   39
 H13
A   40
 H14
A   41
 H15
A   42
 H16
A   43
 H17
A   44
 H18
A   45
 H19
A   46
 H20
A   47
 H21
A   48
 H22
A   49
 H23
M  END
>  <ref_pdb>  (121) 
x0051_0B

>  <ref_mols>  (121) 
x0969_1B,x0904_0B

>  <original SMILES>  (121) 
[H]c1nn2c(c1C([H])([H])OC(=O)c1c([H])c([H])c([H])c(OC([H])([H])C(=O)N(C([H])([H])[H])C([H])([H])[H])c1[H])C([H])([H])C([H])([H])C([H])([H])C2([H])[H]

>  <index>  (121) 
205

>  <∆∆G>  (121) 
-7.326908

>  <∆G_bound>  (121) 
-6.717418

>  <∆G_unbound>  (121) 
0.60949

>  <comRMSD>  (121) 
0.614806

>  <N_constrained_atoms>  (121) 
24.0

>  <N_unconstrained_atoms>  (121) 
2.0

>  <runtime>  (121) 
81.377849

>  <LE>  (121) 
0.281804

>  <percent_hybrid>  (121) 
42.0

>  <dist>  (121) 
4.0

>  <ecfp4>  (121) 
0.573529

>  <daylight>  (121) 
0.407666

>  <topodist>  (121) 
2.0

>  <mces>  (121) 
27.0

>  <tdn>  (121) 
0.0

>  <tup>  (121) 
1.0

>  <rdn>  (121) 
0.0

>  <rup>  (121) 
0.0

>  <ldn>  (121) 
1.0

>  <lup>  (121) 
0.0

>  <mut>  (121) 
1.0

>  <maj>  (121) 
1.0

>  <min>  (121) 
0.0

>  <hyb>  (121) 
1.0

>  <sub>  (121) 
0.0

>  <query_index>  (121) 
111.0

>  <max_hit_Tanimoto>  (121) 
0.319728

>  <largest_ring>  (121) 
6

>  <N_interactions_kept>  (121) 
2.0

>  <N_interactions_lost>  (121) 
1.5

>  <interaction_uniqueness_metric>  (121) 
0.252824

>  <ad_hoc_penalty>  (121) 
-27.622972

>  <N_rotatable_bonds>  (121) 
8

>  <N_HA>  (121) 
26

>  <cluster>  (121) 
6032

>  <N_interactions>  (121) 
8

>  <Enamine>  (121) 
1

>  <Mcule>  (121) 
0

>  <N_PAINS>  (121) 
0

>  <UFF_Gibbs>  (121) 
117.883112

>  <strain_per_HA>  (121) 
4.533966

>  <saltbridge:HIS:51>  (121) 
1

>  <pistack:HIS:51>  (121) 
1

>  <hydroph_interaction:HIS:51>  (121) 
1

>  <hbond:ALA:132>  (121) 
0

>  <hbond:SER:135>  (121) 
1

>  <hydroph_interaction:TYR:150>  (121) 
1

>  <pistack:TYR:161>  (121) 
0

>  <hydroph_interaction:TYR:161>  (121) 
2

>  <hydroph_interaction:ASP:83>  (121) 
0

>  <hbond:TYR:130>  (121) 
0

>  <hydroph_interaction:ALA:132>  (121) 
1

>  <hbond:HIS:51>  (121) 
0

>  <hbond:ASP:129>  (121) 
0

>  <hbond:TYR:150>  (121) 
0

>  <hbond:GLY:151>  (121) 
0

>  <hbond:TYR:161>  (121) 
0

>  <hydroph_interaction:TYR:130>  (121) 
0

>  <hydroph_interaction:PRO:131>  (121) 
0

>  <hydroph_interaction:ASP:129>  (121) 
0

>  <saltbridge:ASP:75>  (121) 
0

>  <saltbridge:ASP:83>  (121) 
0

>  <hydroph_interaction:ASN:152>  (121) 
0

>  <halogenbond:TYR:150>  (121) 
0

>  <hbond:ASP:83>  (121) 
0

>  <hydroph_interaction:VAL:155>  (121) 
0

>  <pication:TYR:161>  (121) 
0

>  <hbond:PRO:131>  (121) 
0

>  <hbond:LEU:128>  (121) 
0

>  <saltbridge:ASP:129>  (121) 
0

>  <hbond:THR:134>  (121) 
0

>  <pication:HIS:51>  (121) 
0

>  <hbond:SER:81>  (121) 
0

>  <hbond:GLY:159>  (121) 
0

>  <hydroph_interaction:PRO:101>  (121) 
0

>  <hydroph_interaction:THR:134>  (121) 
0

>  <hbond:GLY:82>  (121) 
0

>  <hydroph_interaction:GLU:104>  (121) 
0

>  <hydroph_interaction:VAL:36>  (121) 
0

>  <hydroph_interaction:MET:49>  (121) 
0

>  <halogenbond:GLU:104>  (121) 
0

>  <hydroph_interaction:LYS:107>  (121) 
0

$$$$
CSSS00036402792
     RDKit          3D

 32 34  0  0  0  0  0  0  0  0999 V2000
   -7.9581    7.6398  -15.7293 O   0  0  0  0  0  0  0  0  0  0  0  0
   -8.5437    6.5257  -15.6534 C   0  0  0  0  0  0  0  0  0  0  0  0
   -9.0744    6.0697  -14.3981 N   0  0  0  0  0  0  0  0  0  0  0  0
   -9.2264    6.9036  -13.2368 C   0  0  0  0  0  0  0  0  0  0  0  0
   -9.5784    8.2620  -13.3488 C   0  0  0  0  0  0  0  0  0  0  0  0
   -9.7440    9.0442  -12.2013 C   0  0  0  0  0  0  0  0  0  0  0  0
   -9.5737    8.4774  -10.9357 C   0  0  0  0  0  0  0  0  0  0  0  0
   -9.2464    7.1246  -10.8150 C   0  0  0  0  0  0  0  0  0  0  0  0
   -9.0809    6.3388  -11.9597 C   0  0  0  0  0  0  0  0  0  0  0  0
   -8.6951    5.6893  -16.8667 C   0  0  0  0  0  0  0  0  0  0  0  0
   -9.9594    5.1325  -17.1232 C   0  0  0  0  0  0  0  0  0  0  0  0
  -10.1931    4.3889  -18.2788 C   0  0  0  0  0  0  0  0  0  0  0  0
   -9.1700    4.1832  -19.2010 C   0  0  0  0  0  0  0  0  0  0  0  0
   -7.8912    4.7056  -18.9657 C   0  0  0  0  0  0  0  0  0  0  0  0
   -6.8610    4.4736  -19.8909 C   0  0  0  0  0  0  0  0  0  0  0  0
   -5.5764    4.9610  -19.6506 C   0  0  0  0  0  0  0  0  0  0  0  0
   -5.3052    5.6729  -18.4830 C   0  0  0  0  0  0  0  0  0  0  0  0
   -6.3190    5.9161  -17.5529 C   0  0  0  0  0  0  0  0  0  0  0  0
   -7.6345    5.4575  -17.7856 C   0  0  0  0  0  0  0  0  0  0  0  0
   -9.2733    5.0482  -14.2978 H   0  0  0  0  0  0  0  0  0  0  0  0
   -9.7510    8.7126  -14.3169 H   0  0  0  0  0  0  0  0  0  0  0  0
  -10.0136   10.0884  -12.2934 H   0  0  0  0  0  0  0  0  0  0  0  0
   -9.7039    9.0841  -10.0489 H   0  0  0  0  0  0  0  0  0  0  0  0
   -9.1230    6.6839   -9.8341 H   0  0  0  0  0  0  0  0  0  0  0  0
   -8.8293    5.2910  -11.8531 H   0  0  0  0  0  0  0  0  0  0  0  0
  -10.7807    5.2968  -16.4357 H   0  0  0  0  0  0  0  0  0  0  0  0
  -11.1769    3.9775  -18.4650 H   0  0  0  0  0  0  0  0  0  0  0  0
   -9.3761    3.6064  -20.0950 H   0  0  0  0  0  0  0  0  0  0  0  0
   -7.0480    3.9086  -20.7965 H   0  0  0  0  0  0  0  0  0  0  0  0
   -4.7856    4.7756  -20.3660 H   0  0  0  0  0  0  0  0  0  0  0  0
   -4.3020    6.0325  -18.2934 H   0  0  0  0  0  0  0  0  0  0  0  0
   -6.0517    6.4429  -16.6486 H   0  0  0  0  0  0  0  0  0  0  0  0
  1  2  2  0
  2  3  1  0
  3  4  1  0
  4  5  2  0
  5  6  1  0
  6  7  2  0
  7  8  1  0
  8  9  2  0
  2 10  1  0
 10 11  2  0
 11 12  1  0
 12 13  2  0
 13 14  1  0
 14 15  2  0
 15 16  1  0
 16 17  2  0
 17 18  1  0
 18 19  2  0
  9  4  1  0
 19 10  1  0
 19 14  1  0
  3 20  1  0
  5 21  1  0
  6 22  1  0
  7 23  1  0
  8 24  1  0
  9 25  1  0
 11 26  1  0
 12 27  1  0
 13 28  1  0
 15 29  1  0
 16 30  1  0
 17 31  1  0
 18 32  1  0
A    1
 O1 
A    2
 C1 
A    3
 N1 
A    4
 C2 
A    5
 C3 
A    6
 C4 
A    7
 C5 
A    8
 C6 
A    9
 C7 
A   10
 C8 
A   11
 C9 
A   12
 C10
A   13
 C11
A   14
 C12
A   15
 C13
A   16
 C14
A   17
 C15
A   18
 C16
A   19
 C17
A   20
 H1 
A   21
 H2 
A   22
 H3 
A   23
 H4 
A   24
 H5 
A   25
 H6 
A   26
 H7 
A   27
 H8 
A   28
 H9 
A   29
 H10
A   30
 H11
A   31
 H12
A   32
 H13
M  END
>  <ref_pdb>  (122) 
x0051_0B

>  <ref_mols>  (122) 
x0429_0B,x0951_0B

>  <original SMILES>  (122) 
[H]c1c([H])c([H])c(N([H])C(=O)c2c([H])c([H])c([H])c3c([H])c([H])c([H])c([H])c23)c([H])c1[H]

>  <index>  (122) 
254

>  <∆∆G>  (122) 
-8.536095

>  <∆G_bound>  (122) 
-8.400958

>  <∆G_unbound>  (122) 
0.135136

>  <comRMSD>  (122) 
0.311545

>  <N_constrained_atoms>  (122) 
16.0

>  <N_unconstrained_atoms>  (122) 
4.0

>  <runtime>  (122) 
55.082839

>  <LE>  (122) 
0.426805

>  <percent_hybrid>  (122) 
45.0

>  <dist>  (122) 
12.0

>  <ecfp4>  (122) 
0.109375

>  <daylight>  (122) 
0.191358

>  <topodist>  (122) 
3.0

>  <mces>  (122) 
21.0

>  <tdn>  (122) 
2.0

>  <tup>  (122) 
0.0

>  <rdn>  (122) 
1.0

>  <rup>  (122) 
0.0

>  <ldn>  (122) 
0.0

>  <lup>  (122) 
0.0

>  <mut>  (122) 
3.0

>  <maj>  (122) 
3.0

>  <min>  (122) 
0.0

>  <hyb>  (122) 
6.0

>  <sub>  (122) 
1.0

>  <query_index>  (122) 
76.0

>  <max_hit_Tanimoto>  (122) 
0.215686

>  <largest_ring>  (122) 
6

>  <N_interactions_kept>  (122) 
0.0

>  <N_interactions_lost>  (122) 
3.0

>  <interaction_uniqueness_metric>  (122) 
0.240406

>  <ad_hoc_penalty>  (122) 
-27.596346

>  <N_rotatable_bonds>  (122) 
2

>  <N_HA>  (122) 
19

>  <cluster>  (122) 
5986

>  <N_interactions>  (122) 
7

>  <Enamine>  (122) 
1

>  <Mcule>  (122) 
0

>  <N_PAINS>  (122) 
0

>  <UFF_Gibbs>  (122) 
64.714713

>  <strain_per_HA>  (122) 
3.235736

>  <saltbridge:HIS:51>  (122) 
0

>  <pistack:HIS:51>  (122) 
0

>  <hydroph_interaction:HIS:51>  (122) 
0

>  <hbond:ALA:132>  (122) 
0

>  <hbond:SER:135>  (122) 
0

>  <hydroph_interaction:TYR:150>  (122) 
1

>  <pistack:TYR:161>  (122) 
1

>  <hydroph_interaction:TYR:161>  (122) 
3

>  <hydroph_interaction:ASP:83>  (122) 
0

>  <hbond:TYR:130>  (122) 
0

>  <hydroph_interaction:ALA:132>  (122) 
0

>  <hbond:HIS:51>  (122) 
0

>  <hbond:ASP:129>  (122) 
0

>  <hbond:TYR:150>  (122) 
0

>  <hbond:GLY:151>  (122) 
1

>  <hbond:TYR:161>  (122) 
0

>  <hydroph_interaction:TYR:130>  (122) 
0

>  <hydroph_interaction:PRO:131>  (122) 
0

>  <hydroph_interaction:ASP:129>  (122) 
0

>  <saltbridge:ASP:75>  (122) 
0

>  <saltbridge:ASP:83>  (122) 
0

>  <hydroph_interaction:ASN:152>  (122) 
0

>  <halogenbond:TYR:150>  (122) 
0

>  <hbond:ASP:83>  (122) 
0

>  <hydroph_interaction:VAL:155>  (122) 
0

>  <pication:TYR:161>  (122) 
0

>  <hbond:PRO:131>  (122) 
0

>  <hbond:LEU:128>  (122) 
0

>  <saltbridge:ASP:129>  (122) 
0

>  <hbond:THR:134>  (122) 
0

>  <pication:HIS:51>  (122) 
1

>  <hbond:SER:81>  (122) 
0

>  <hbond:GLY:159>  (122) 
0

>  <hydroph_interaction:PRO:101>  (122) 
0

>  <hydroph_interaction:THR:134>  (122) 
0

>  <hbond:GLY:82>  (122) 
0

>  <hydroph_interaction:GLU:104>  (122) 
0

>  <hydroph_interaction:VAL:36>  (122) 
0

>  <hydroph_interaction:MET:49>  (122) 
0

>  <halogenbond:GLU:104>  (122) 
0

>  <hydroph_interaction:LYS:107>  (122) 
0

$$$$
MCULE-7318526753
     RDKit          3D

 22 24  0  0  0  0  0  0  0  0999 V2000
   -5.1037    4.8145  -14.9291 Cl  0  0  0  0  0  0  0  0  0  0  0  0
   -6.2200    5.9500  -15.7370 C   0  0  0  0  0  0  0  0  0  0  0  0
   -6.2253    5.7118  -17.2164 C   0  0  0  0  0  0  0  0  0  0  0  0
   -7.4722    5.3643  -17.6290 C   0  0  0  0  0  0  0  0  0  0  0  0
   -8.3687    5.3261  -16.6093 C   0  0  0  0  0  0  0  0  0  0  0  0
   -9.7017    4.9897  -16.8630 C   0  0  0  0  0  0  0  0  0  0  0  0
  -10.0809    4.6947  -18.1914 C   0  0  0  0  0  0  0  0  0  0  0  0
   -9.1310    4.7429  -19.2395 C   0  0  0  0  0  0  0  0  0  0  0  0
   -7.7977    5.0871  -18.9522 C   0  0  0  0  0  0  0  0  0  0  0  0
   -6.7718    5.1751  -19.9105 C   0  0  0  0  0  0  0  0  0  0  0  0
   -5.4665    5.5408  -19.5041 C   0  0  0  0  0  0  0  0  0  0  0  0
   -5.1861    5.8154  -18.1472 C   0  0  0  0  0  0  0  0  0  0  0  0
   -7.7013    5.6887  -15.3196 C   0  0  0  0  0  0  0  0  0  0  0  0
   -5.9246    6.9984  -15.5179 H   0  0  0  0  0  0  0  0  0  0  0  0
  -10.4267    4.9570  -16.0603 H   0  0  0  0  0  0  0  0  0  0  0  0
  -11.1076    4.4316  -18.4098 H   0  0  0  0  0  0  0  0  0  0  0  0
   -9.4355    4.5174  -20.2539 H   0  0  0  0  0  0  0  0  0  0  0  0
   -6.9737    4.9691  -20.9542 H   0  0  0  0  0  0  0  0  0  0  0  0
   -4.6761    5.6125  -20.2397 H   0  0  0  0  0  0  0  0  0  0  0  0
   -4.1894    6.0982  -17.8347 H   0  0  0  0  0  0  0  0  0  0  0  0
   -8.1601    6.6095  -14.8999 H   0  0  0  0  0  0  0  0  0  0  0  0
   -7.7935    4.8519  -14.5945 H   0  0  0  0  0  0  0  0  0  0  0  0
  1  2  1  0
  2  3  1  0
  3  4  2  0
  4  5  1  0
  5  6  2  0
  6  7  1  0
  7  8  2  0
  8  9  1  0
  9 10  2  0
 10 11  1  0
 11 12  2  0
  5 13  1  0
 13  2  1  0
 12  3  1  0
  9  4  1  0
  2 14  1  0
  6 15  1  0
  7 16  1  0
  8 17  1  0
 10 18  1  0
 11 19  1  0
 12 20  1  0
 13 21  1  0
 13 22  1  0
A    1
CL1 
A    2
 C1 
A    3
 C2 
A    4
 C3 
A    5
 C4 
A    6
 C5 
A    7
 C6 
A    8
 C7 
A    9
 C8 
A   10
 C9 
A   11
 C10
A   12
 C11
A   13
 C12
A   14
 H1 
A   15
 H2 
A   16
 H3 
A   17
 H4 
A   18
 H5 
A   19
 H6 
A   20
 H7 
A   21
 H8 
A   22
 H9 
M  END
>  <ref_pdb>  (123) 
x0051_0B

>  <ref_mols>  (123) 
x0727_0B,x0455_0B

>  <original SMILES>  (123) 
[H]c1c([H])c2c3c(c([H])c([H])c([H])c3c1[H])C([H])(Cl)C2([H])[H]

>  <index>  (123) 
226

>  <∆∆G>  (123) 
-6.891558

>  <∆G_bound>  (123) 
-6.931074

>  <∆G_unbound>  (123) 
-0.039516

>  <comRMSD>  (123) 
0.884376

>  <N_constrained_atoms>  (123) 
14.0

>  <N_unconstrained_atoms>  (123) 
1.0

>  <runtime>  (123) 
20.546392

>  <LE>  (123) 
0.459437

>  <percent_hybrid>  (123) 
34.0

>  <dist>  (123) 
3.0

>  <ecfp4>  (123) 
0.27907

>  <daylight>  (123) 
0.284314

>  <topodist>  (123) 
1.0

>  <mces>  (123) 
15.0

>  <tdn>  (123) 
0.0

>  <tup>  (123) 
0.0

>  <rdn>  (123) 
0.0

>  <rup>  (123) 
0.0

>  <ldn>  (123) 
1.0

>  <lup>  (123) 
0.0

>  <mut>  (123) 
2.0

>  <maj>  (123) 
2.0

>  <min>  (123) 
0.0

>  <hyb>  (123) 
0.0

>  <sub>  (123) 
0.0

>  <query_index>  (123) 
57.0

>  <max_hit_Tanimoto>  (123) 
0.154574

>  <largest_ring>  (123) 
6

>  <N_interactions_kept>  (123) 
0.0

>  <N_interactions_lost>  (123) 
3.0

>  <interaction_uniqueness_metric>  (123) 
0.072259

>  <ad_hoc_penalty>  (123) 
-27.544671

>  <N_rotatable_bonds>  (123) 
0

>  <N_HA>  (123) 
13

>  <cluster>  (123) 
6013

>  <N_interactions>  (123) 
7

>  <Enamine>  (123) 
0

>  <Mcule>  (123) 
1

>  <N_PAINS>  (123) 
0

>  <UFF_Gibbs>  (123) 
30.446389

>  <strain_per_HA>  (123) 
2.029759

>  <saltbridge:HIS:51>  (123) 
0

>  <pistack:HIS:51>  (123) 
0

>  <hydroph_interaction:HIS:51>  (123) 
0

>  <hbond:ALA:132>  (123) 
0

>  <hbond:SER:135>  (123) 
0

>  <hydroph_interaction:TYR:150>  (123) 
1

>  <pistack:TYR:161>  (123) 
2

>  <hydroph_interaction:TYR:161>  (123) 
3

>  <hydroph_interaction:ASP:83>  (123) 
0

>  <hbond:TYR:130>  (123) 
0

>  <hydroph_interaction:ALA:132>  (123) 
1

>  <hbond:HIS:51>  (123) 
0

>  <hbond:ASP:129>  (123) 
0

>  <hbond:TYR:150>  (123) 
0

>  <hbond:GLY:151>  (123) 
0

>  <hbond:TYR:161>  (123) 
0

>  <hydroph_interaction:TYR:130>  (123) 
0

>  <hydroph_interaction:PRO:131>  (123) 
0

>  <hydroph_interaction:ASP:129>  (123) 
0

>  <saltbridge:ASP:75>  (123) 
0

>  <saltbridge:ASP:83>  (123) 
0

>  <hydroph_interaction:ASN:152>  (123) 
0

>  <halogenbond:TYR:150>  (123) 
0

>  <hbond:ASP:83>  (123) 
0

>  <hydroph_interaction:VAL:155>  (123) 
0

>  <pication:TYR:161>  (123) 
0

>  <hbond:PRO:131>  (123) 
0

>  <hbond:LEU:128>  (123) 
0

>  <saltbridge:ASP:129>  (123) 
0

>  <hbond:THR:134>  (123) 
0

>  <pication:HIS:51>  (123) 
0

>  <hbond:SER:81>  (123) 
0

>  <hbond:GLY:159>  (123) 
0

>  <hydroph_interaction:PRO:101>  (123) 
0

>  <hydroph_interaction:THR:134>  (123) 
0

>  <hbond:GLY:82>  (123) 
0

>  <hydroph_interaction:GLU:104>  (123) 
0

>  <hydroph_interaction:VAL:36>  (123) 
0

>  <hydroph_interaction:MET:49>  (123) 
0

>  <halogenbond:GLU:104>  (123) 
0

>  <hydroph_interaction:LYS:107>  (123) 
0

$$$$
MCULE-4487137936
     RDKit          3D

 46 48  0  0  0  0  0  0  0  0999 V2000
   -6.6077    8.7760  -24.8315 C   0  0  0  0  0  0  0  0  0  0  0  0
   -7.5044    9.6599  -24.7456 O   0  0  0  0  0  0  0  0  0  0  0  0
   -5.8152    8.4210  -23.6291 C   0  0  0  0  0  0  0  0  0  0  0  0
   -5.0813    7.2220  -23.5747 C   0  0  0  0  0  0  0  0  0  0  0  0
   -4.3514    6.8882  -22.4302 C   0  0  0  0  0  0  0  0  0  0  0  0
   -4.3502    7.7388  -21.3153 C   0  0  0  0  0  0  0  0  0  0  0  0
   -5.0768    8.9376  -21.3664 C   0  0  0  0  0  0  0  0  0  0  0  0
   -5.8080    9.2723  -22.5095 C   0  0  0  0  0  0  0  0  0  0  0  0
   -3.5687    7.3685  -20.0823 C   0  0  0  0  0  0  0  0  0  0  0  0
   -4.0158    6.0811  -19.5488 N   0  0  0  0  0  0  0  0  0  0  0  0
   -5.3091    5.8473  -18.9665 C   0  0  0  0  0  0  0  0  0  0  0  0
   -6.3292    6.9515  -18.8300 C   0  0  0  0  0  0  0  0  0  0  0  0
   -7.3652    6.6381  -17.7811 C   0  0  0  0  0  0  0  0  0  0  0  0
   -7.1014    6.9006  -16.4262 C   0  0  0  0  0  0  0  0  0  0  0  0
   -8.0523    6.5872  -15.4502 C   0  0  0  0  0  0  0  0  0  0  0  0
   -9.2672    6.0029  -15.8181 C   0  0  0  0  0  0  0  0  0  0  0  0
   -9.5317    5.7263  -17.1624 C   0  0  0  0  0  0  0  0  0  0  0  0
   -8.5834    6.0376  -18.1418 C   0  0  0  0  0  0  0  0  0  0  0  0
   -5.6116    4.6731  -18.6183 O   0  0  0  0  0  0  0  0  0  0  0  0
   -6.3368    8.1597  -26.1016 N   0  0  0  0  0  0  0  0  0  0  0  0
   -7.2929    8.0877  -27.1738 C   0  0  0  0  0  0  0  0  0  0  0  0
   -6.8388    8.0440  -28.5016 C   0  0  0  0  0  0  0  0  0  0  0  0
   -7.7490    7.9482  -29.5585 C   0  0  0  0  0  0  0  0  0  0  0  0
   -9.1199    7.8828  -29.2986 C   0  0  0  0  0  0  0  0  0  0  0  0
   -9.5836    7.9066  -27.9796 C   0  0  0  0  0  0  0  0  0  0  0  0
  -11.4568    7.7925  -27.6245 Br  0  0  0  0  0  0  0  0  0  0  0  0
   -8.6749    8.0020  -26.9195 C   0  0  0  0  0  0  0  0  0  0  0  0
   -5.0838    6.5287  -24.4052 H   0  0  0  0  0  0  0  0  0  0  0  0
   -3.7942    5.9598  -22.4087 H   0  0  0  0  0  0  0  0  0  0  0  0
   -5.0855    9.6114  -20.5187 H   0  0  0  0  0  0  0  0  0  0  0  0
   -6.3634   10.2019  -22.5187 H   0  0  0  0  0  0  0  0  0  0  0  0
   -3.6425    8.1481  -19.2944 H   0  0  0  0  0  0  0  0  0  0  0  0
   -2.4949    7.2954  -20.3595 H   0  0  0  0  0  0  0  0  0  0  0  0
   -3.3512    5.2762  -19.6034 H   0  0  0  0  0  0  0  0  0  0  0  0
   -5.8280    7.9029  -18.5566 H   0  0  0  0  0  0  0  0  0  0  0  0
   -6.8204    7.1068  -19.8145 H   0  0  0  0  0  0  0  0  0  0  0  0
   -6.1607    7.3466  -16.1278 H   0  0  0  0  0  0  0  0  0  0  0  0
   -7.8462    6.7949  -14.4083 H   0  0  0  0  0  0  0  0  0  0  0  0
  -10.0020    5.7605  -15.0613 H   0  0  0  0  0  0  0  0  0  0  0  0
  -10.4706    5.2689  -17.4455 H   0  0  0  0  0  0  0  0  0  0  0  0
   -8.7976    5.8106  -19.1789 H   0  0  0  0  0  0  0  0  0  0  0  0
   -5.3607    7.8397  -26.2940 H   0  0  0  0  0  0  0  0  0  0  0  0
   -5.7788    8.0921  -28.7169 H   0  0  0  0  0  0  0  0  0  0  0  0
   -7.3910    7.9239  -30.5797 H   0  0  0  0  0  0  0  0  0  0  0  0
   -9.8198    7.8066  -30.1208 H   0  0  0  0  0  0  0  0  0  0  0  0
   -9.0485    7.9846  -25.9042 H   0  0  0  0  0  0  0  0  0  0  0  0
  1  2  2  0
  1  3  1  0
  3  4  2  0
  4  5  1  0
  5  6  2  0
  6  7  1  0
  7  8  2  0
  6  9  1  0
  9 10  1  0
 10 11  1  0
 11 12  1  0
 12 13  1  0
 13 14  2  0
 14 15  1  0
 15 16  2  0
 16 17  1  0
 17 18  2  0
 11 19  2  0
  1 20  1  0
 20 21  1  0
 21 22  2  0
 22 23  1  0
 23 24  2  0
 24 25  1  0
 25 26  1  0
 25 27  2  0
  3  8  1  0
 13 18  1  0
 27 21  1  0
  4 28  1  0
  5 29  1  0
  7 30  1  0
  8 31  1  0
  9 32  1  0
  9 33  1  0
 10 34  1  0
 12 35  1  0
 12 36  1  0
 14 37  1  0
 15 38  1  0
 16 39  1  0
 17 40  1  0
 18 41  1  0
 20 42  1  0
 22 43  1  0
 23 44  1  0
 24 45  1  0
 27 46  1  0
A    1
 C1 
A    2
 O1 
A    3
 C2 
A    4
 C3 
A    5
 C4 
A    6
 C5 
A    7
 C6 
A    8
 C7 
A    9
 C8 
A   10
 N1 
A   11
 C9 
A   12
 C10
A   13
 C11
A   14
 C12
A   15
 C13
A   16
 C14
A   17
 C15
A   18
 C16
A   19
 O2 
A   20
 N2 
A   21
 C17
A   22
 C18
A   23
 C19
A   24
 C20
A   25
 C21
A   26
BR1 
A   27
 C22
A   28
 H1 
A   29
 H2 
A   30
 H3 
A   31
 H4 
A   32
 H5 
A   33
 H6 
A   34
 H7 
A   35
 H8 
A   36
 H9 
A   37
 H10
A   38
 H11
A   39
 H12
A   40
 H13
A   41
 H14
A   42
 H15
A   43
 H16
A   44
 H17
A   45
 H18
A   46
 H19
M  END
>  <ref_pdb>  (124) 
x0051_0B

>  <ref_mols>  (124) 
x0589_0B,x0846_1B

>  <original SMILES>  (124) 
[H]c1c([H])c([H])c(C([H])([H])C(=O)N([H])C([H])([H])c2c([H])c([H])c(C(=O)N([H])c3c([H])c([H])c([H])c(Br)c3[H])c([H])c2[H])c([H])c1[H]

>  <index>  (124) 
652

>  <∆∆G>  (124) 
-8.897027

>  <∆G_bound>  (124) 
-8.146906

>  <∆G_unbound>  (124) 
0.750121

>  <comRMSD>  (124) 
0.610229

>  <N_constrained_atoms>  (124) 
25.0

>  <N_unconstrained_atoms>  (124) 
5.0

>  <runtime>  (124) 
58.180588

>  <LE>  (124) 
0.296568

>  <percent_hybrid>  (124) 
32.0

>  <dist>  (124) 
8.0

>  <ecfp4>  (124) 
0.287671

>  <daylight>  (124) 
0.20202

>  <topodist>  (124) 
4.0

>  <mces>  (124) 
28.0

>  <tdn>  (124) 
1.0

>  <tup>  (124) 
1.0

>  <rdn>  (124) 
1.0

>  <rup>  (124) 
0.0

>  <ldn>  (124) 
1.0

>  <lup>  (124) 
0.0

>  <mut>  (124) 
3.0

>  <maj>  (124) 
3.0

>  <min>  (124) 
0.0

>  <hyb>  (124) 
1.0

>  <sub>  (124) 
2.0

>  <query_index>  (124) 
340.0

>  <max_hit_Tanimoto>  (124) 
0.19699

>  <largest_ring>  (124) 
6

>  <N_interactions_kept>  (124) 
0.5

>  <N_interactions_lost>  (124) 
1.5

>  <interaction_uniqueness_metric>  (124) 
0.783415

>  <ad_hoc_penalty>  (124) 
-27.52182

>  <N_rotatable_bonds>  (124) 
6

>  <N_HA>  (124) 
27

>  <cluster>  (124) 
5622

>  <N_interactions>  (124) 
4

>  <Enamine>  (124) 
0

>  <Mcule>  (124) 
1

>  <N_PAINS>  (124) 
0

>  <UFF_Gibbs>  (124) 
136.036436

>  <strain_per_HA>  (124) 
4.534548

>  <saltbridge:HIS:51>  (124) 
0

>  <pistack:HIS:51>  (124) 
0

>  <hydroph_interaction:HIS:51>  (124) 
0

>  <hbond:ALA:132>  (124) 
0

>  <hbond:SER:135>  (124) 
0

>  <hydroph_interaction:TYR:150>  (124) 
0

>  <pistack:TYR:161>  (124) 
1

>  <hydroph_interaction:TYR:161>  (124) 
1

>  <hydroph_interaction:ASP:83>  (124) 
0

>  <hbond:TYR:130>  (124) 
0

>  <hydroph_interaction:ALA:132>  (124) 
0

>  <hbond:HIS:51>  (124) 
0

>  <hbond:ASP:129>  (124) 
0

>  <hbond:TYR:150>  (124) 
0

>  <hbond:GLY:151>  (124) 
0

>  <hbond:TYR:161>  (124) 
0

>  <hydroph_interaction:TYR:130>  (124) 
0

>  <hydroph_interaction:PRO:131>  (124) 
1

>  <hydroph_interaction:ASP:129>  (124) 
0

>  <saltbridge:ASP:75>  (124) 
0

>  <saltbridge:ASP:83>  (124) 
0

>  <hydroph_interaction:ASN:152>  (124) 
0

>  <halogenbond:TYR:150>  (124) 
0

>  <hbond:ASP:83>  (124) 
0

>  <hydroph_interaction:VAL:155>  (124) 
0

>  <pication:TYR:161>  (124) 
0

>  <hbond:PRO:131>  (124) 
0

>  <hbond:LEU:128>  (124) 
0

>  <saltbridge:ASP:129>  (124) 
0

>  <hbond:THR:134>  (124) 
0

>  <pication:HIS:51>  (124) 
0

>  <hbond:SER:81>  (124) 
0

>  <hbond:GLY:159>  (124) 
0

>  <hydroph_interaction:PRO:101>  (124) 
0

>  <hydroph_interaction:THR:134>  (124) 
0

>  <hbond:GLY:82>  (124) 
0

>  <hydroph_interaction:GLU:104>  (124) 
0

>  <hydroph_interaction:VAL:36>  (124) 
0

>  <hydroph_interaction:MET:49>  (124) 
0

>  <halogenbond:GLU:104>  (124) 
1

>  <hydroph_interaction:LYS:107>  (124) 
0

$$$$
MCULE-1825753944
     RDKit          3D

 39 40  0  0  0  0  0  0  0  0999 V2000
   -5.9920    6.4453  -17.3091 C   0  0  0  0  0  0  0  0  0  0  0  0
   -6.2259    7.2859  -16.0327 C   0  0  0  0  0  0  0  0  0  0  0  0
   -4.8881    7.6754  -15.3947 C   0  0  0  0  0  0  0  0  0  0  0  0
   -4.0299    6.4492  -15.0215 C   0  0  0  0  0  0  0  0  0  0  0  0
   -4.5488    5.1369  -15.6313 C   0  0  0  0  0  0  0  0  0  0  0  0
   -4.9320    5.2886  -17.1290 C   0  0  0  0  0  0  0  0  0  0  0  0
   -3.6956    5.4601  -18.0917 C   0  0  0  0  0  0  0  0  0  0  0  0
   -2.5201    4.5317  -17.7216 C   0  0  0  0  0  0  0  0  0  0  0  0
   -4.0798    5.1819  -19.5734 C   0  0  0  0  0  0  0  0  0  0  0  0
   -4.7751    6.3145  -20.1755 N   0  0  0  0  0  0  0  0  0  0  0  0
   -7.3196    5.9269  -17.8362 C   0  0  0  0  0  0  0  0  0  0  0  0
   -8.0354    4.9347  -17.1380 C   0  0  0  0  0  0  0  0  0  0  0  0
   -9.2627    4.4733  -17.6225 C   0  0  0  0  0  0  0  0  0  0  0  0
   -9.7938    5.0014  -18.8012 C   0  0  0  0  0  0  0  0  0  0  0  0
   -9.1008    5.9958  -19.4951 C   0  0  0  0  0  0  0  0  0  0  0  0
   -7.8731    6.4611  -19.0147 C   0  0  0  0  0  0  0  0  0  0  0  0
   -5.5928    7.1819  -18.0359 H   0  0  0  0  0  0  0  0  0  0  0  0
   -6.8376    6.7280  -15.2904 H   0  0  0  0  0  0  0  0  0  0  0  0
   -6.7865    8.2106  -16.2938 H   0  0  0  0  0  0  0  0  0  0  0  0
   -5.0812    8.2859  -14.4860 H   0  0  0  0  0  0  0  0  0  0  0  0
   -4.3241    8.3158  -16.1084 H   0  0  0  0  0  0  0  0  0  0  0  0
   -4.0090    6.3370  -13.9156 H   0  0  0  0  0  0  0  0  0  0  0  0
   -2.9830    6.6225  -15.3509 H   0  0  0  0  0  0  0  0  0  0  0  0
   -3.8188    4.3195  -15.4641 H   0  0  0  0  0  0  0  0  0  0  0  0
   -5.4517    4.8194  -15.0653 H   0  0  0  0  0  0  0  0  0  0  0  0
   -5.3982    4.3147  -17.3993 H   0  0  0  0  0  0  0  0  0  0  0  0
   -3.3127    6.5017  -18.0090 H   0  0  0  0  0  0  0  0  0  0  0  0
   -2.0569    4.8386  -16.7619 H   0  0  0  0  0  0  0  0  0  0  0  0
   -2.8616    3.4765  -17.6537 H   0  0  0  0  0  0  0  0  0  0  0  0
   -1.7109    4.5954  -18.4801 H   0  0  0  0  0  0  0  0  0  0  0  0
   -3.1724    4.9720  -20.1841 H   0  0  0  0  0  0  0  0  0  0  0  0
   -4.7239    4.2773  -19.6361 H   0  0  0  0  0  0  0  0  0  0  0  0
   -5.0761    6.0330  -21.1366 H   0  0  0  0  0  0  0  0  0  0  0  0
   -4.0893    7.0955  -20.2930 H   0  0  0  0  0  0  0  0  0  0  0  0
   -7.6432    4.5170  -16.2200 H   0  0  0  0  0  0  0  0  0  0  0  0
   -9.8034    3.7070  -17.0822 H   0  0  0  0  0  0  0  0  0  0  0  0
  -10.7446    4.6435  -19.1744 H   0  0  0  0  0  0  0  0  0  0  0  0
   -9.5169    6.4093  -20.4047 H   0  0  0  0  0  0  0  0  0  0  0  0
   -7.3586    7.2403  -19.5625 H   0  0  0  0  0  0  0  0  0  0  0  0
  1  2  1  0
  2  3  1  0
  3  4  1  0
  4  5  1  0
  5  6  1  0
  6  7  1  0
  7  8  1  0
  7  9  1  0
  9 10  1  0
  1 11  1  0
 11 12  2  0
 12 13  1  0
 13 14  2  0
 14 15  1  0
 15 16  2  0
  6  1  1  0
 16 11  1  0
  1 17  1  0
  2 18  1  0
  2 19  1  0
  3 20  1  0
  3 21  1  0
  4 22  1  0
  4 23  1  0
  5 24  1  0
  5 25  1  0
  6 26  1  0
  7 27  1  0
  8 28  1  0
  8 29  1  0
  8 30  1  0
  9 31  1  0
  9 32  1  0
 10 33  1  0
 10 34  1  0
 12 35  1  0
 13 36  1  0
 14 37  1  0
 15 38  1  0
 16 39  1  0
A    1
 C1 
A    2
 C2 
A    3
 C3 
A    4
 C4 
A    5
 C5 
A    6
 C6 
A    7
 C7 
A    8
 C8 
A    9
 C9 
A   10
 N1 
A   11
 C10
A   12
 C11
A   13
 C12
A   14
 C13
A   15
 C14
A   16
 C15
A   17
 H1 
A   18
 H2 
A   19
 H3 
A   20
 H4 
A   21
 H5 
A   22
 H6 
A   23
 H7 
A   24
 H8 
A   25
 H9 
A   26
 H10
A   27
 H11
A   28
 H12
A   29
 H13
A   30
 H14
A   31
 H15
A   32
 H16
A   33
 H17
A   34
 H18
A   35
 H19
A   36
 H20
A   37
 H21
A   38
 H22
A   39
 H23
M  END
>  <ref_pdb>  (125) 
x0051_0B

>  <ref_mols>  (125) 
x0227_0B,x0472_0B

>  <original SMILES>  (125) 
[H]c1c([H])c([H])c(C2([H])C([H])([H])C([H])([H])C([H])([H])C([H])([H])C2([H])C([H])(C([H])([H])[H])C([H])([H])N([H])[H])c([H])c1[H]

>  <index>  (125) 
43

>  <∆∆G>  (125) 
-6.399809

>  <∆G_bound>  (125) 
-6.900384

>  <∆G_unbound>  (125) 
-0.500575

>  <comRMSD>  (125) 
0.974146

>  <N_constrained_atoms>  (125) 
18.0

>  <N_unconstrained_atoms>  (125) 
3.0

>  <runtime>  (125) 
23.73745

>  <LE>  (125) 
0.304753

>  <percent_hybrid>  (125) 
50.0

>  <dist>  (125) 
4.0

>  <ecfp4>  (125) 
0.346154

>  <daylight>  (125) 
0.458824

>  <topodist>  (125) 
3.0

>  <mces>  (125) 
16.0

>  <tdn>  (125) 
1.0

>  <tup>  (125) 
0.0

>  <rdn>  (125) 
1.0

>  <rup>  (125) 
1.0

>  <ldn>  (125) 
0.0

>  <lup>  (125) 
0.0

>  <mut>  (125) 
1.0

>  <maj>  (125) 
1.0

>  <min>  (125) 
0.0

>  <hyb>  (125) 
0.0

>  <sub>  (125) 
1.0

>  <query_index>  (125) 
191.0

>  <max_hit_Tanimoto>  (125) 
0.266436

>  <largest_ring>  (125) 
6

>  <N_interactions_kept>  (125) 
4.0

>  <N_interactions_lost>  (125) 
1.0

>  <interaction_uniqueness_metric>  (125) 
0.091664

>  <ad_hoc_penalty>  (125) 
-27.466828

>  <N_rotatable_bonds>  (125) 
5

>  <N_HA>  (125) 
16

>  <cluster>  (125) 
6176

>  <N_interactions>  (125) 
8

>  <Enamine>  (125) 
0

>  <Mcule>  (125) 
1

>  <N_PAINS>  (125) 
0

>  <UFF_Gibbs>  (125) 
229.578558

>  <strain_per_HA>  (125) 
10.932312

>  <saltbridge:HIS:51>  (125) 
0

>  <pistack:HIS:51>  (125) 
0

>  <hydroph_interaction:HIS:51>  (125) 
0

>  <hbond:ALA:132>  (125) 
0

>  <hbond:SER:135>  (125) 
0

>  <hydroph_interaction:TYR:150>  (125) 
1

>  <pistack:TYR:161>  (125) 
0

>  <hydroph_interaction:TYR:161>  (125) 
5

>  <hydroph_interaction:ASP:83>  (125) 
0

>  <hbond:TYR:130>  (125) 
0

>  <hydroph_interaction:ALA:132>  (125) 
1

>  <hbond:HIS:51>  (125) 
0

>  <hbond:ASP:129>  (125) 
0

>  <hbond:TYR:150>  (125) 
0

>  <hbond:GLY:151>  (125) 
0

>  <hbond:TYR:161>  (125) 
0

>  <hydroph_interaction:TYR:130>  (125) 
0

>  <hydroph_interaction:PRO:131>  (125) 
0

>  <hydroph_interaction:ASP:129>  (125) 
0

>  <saltbridge:ASP:75>  (125) 
0

>  <saltbridge:ASP:83>  (125) 
0

>  <hydroph_interaction:ASN:152>  (125) 
0

>  <halogenbond:TYR:150>  (125) 
0

>  <hbond:ASP:83>  (125) 
0

>  <hydroph_interaction:VAL:155>  (125) 
1

>  <pication:TYR:161>  (125) 
0

>  <hbond:PRO:131>  (125) 
0

>  <hbond:LEU:128>  (125) 
0

>  <saltbridge:ASP:129>  (125) 
0

>  <hbond:THR:134>  (125) 
0

>  <pication:HIS:51>  (125) 
0

>  <hbond:SER:81>  (125) 
0

>  <hbond:GLY:159>  (125) 
0

>  <hydroph_interaction:PRO:101>  (125) 
0

>  <hydroph_interaction:THR:134>  (125) 
0

>  <hbond:GLY:82>  (125) 
0

>  <hydroph_interaction:GLU:104>  (125) 
0

>  <hydroph_interaction:VAL:36>  (125) 
0

>  <hydroph_interaction:MET:49>  (125) 
0

>  <halogenbond:GLU:104>  (125) 
0

>  <hydroph_interaction:LYS:107>  (125) 
0

$$$$
Z4346838533
     RDKit          3D

 39 42  0  0  0  0  0  0  0  0999 V2000
   -7.4502    5.8784  -19.5263 C   0  0  0  0  0  0  0  0  0  0  0  0
   -7.1226    5.7151  -18.1161 N   0  0  0  0  0  0  0  0  0  0  0  0
   -6.2790    6.4863  -17.4376 N   0  0  0  0  0  0  0  0  0  0  0  0
   -6.2171    6.1142  -16.1596 N   0  0  0  0  0  0  0  0  0  0  0  0
   -7.0615    5.0711  -16.0387 C   0  0  0  0  0  0  0  0  0  0  0  0
   -7.3781    4.3200  -14.9029 C   0  0  0  0  0  0  0  0  0  0  0  0
   -6.7810    4.6344  -13.5605 C   0  0  0  0  0  0  0  0  0  0  0  0
   -7.5334    5.7118  -12.9240 N   0  0  0  0  0  0  0  0  0  0  0  0
   -7.8010    5.7294  -11.5175 C   0  0  0  0  0  0  0  0  0  0  0  0
   -8.4890    4.7941  -10.7656 C   0  0  0  0  0  0  0  0  0  0  0  0
   -9.1810    3.5425  -11.2296 C   0  0  0  0  0  0  0  0  0  0  0  0
   -9.6985    2.7302  -10.0310 C   0  0  0  0  0  0  0  0  0  0  0  0
  -10.3874    3.6284   -8.9925 C   0  0  0  0  0  0  0  0  0  0  0  0
   -9.4068    4.6776   -8.4485 C   0  0  0  0  0  0  0  0  0  0  0  0
   -8.6966    5.3294   -9.5466 N   0  0  0  0  0  0  0  0  0  0  0  0
   -8.1606    6.5386   -9.4763 N   0  0  0  0  0  0  0  0  0  0  0  0
   -7.6182    6.8137  -10.6803 C   0  0  0  0  0  0  0  0  0  0  0  0
   -8.3376    3.2929  -15.0620 C   0  0  0  0  0  0  0  0  0  0  0  0
   -8.9237    3.0416  -16.3259 C   0  0  0  0  0  0  0  0  0  0  0  0
   -8.5693    3.8165  -17.4463 C   0  0  0  0  0  0  0  0  0  0  0  0
   -7.6282    4.8243  -17.2510 C   0  0  0  0  0  0  0  0  0  0  0  0
   -6.7748    6.6272  -19.9914 H   0  0  0  0  0  0  0  0  0  0  0  0
   -7.3291    4.9096  -20.0552 H   0  0  0  0  0  0  0  0  0  0  0  0
   -8.5000    6.2250  -19.6273 H   0  0  0  0  0  0  0  0  0  0  0  0
   -6.7593    3.7270  -12.9251 H   0  0  0  0  0  0  0  0  0  0  0  0
   -5.7246    4.9563  -13.6839 H   0  0  0  0  0  0  0  0  0  0  0  0
   -7.5617    6.6285  -13.4256 H   0  0  0  0  0  0  0  0  0  0  0  0
   -8.4885    2.9038  -11.8092 H   0  0  0  0  0  0  0  0  0  0  0  0
  -10.0347    3.8271  -11.8814 H   0  0  0  0  0  0  0  0  0  0  0  0
   -8.8480    2.1989   -9.5492 H   0  0  0  0  0  0  0  0  0  0  0  0
  -10.4174    1.9633  -10.3913 H   0  0  0  0  0  0  0  0  0  0  0  0
  -11.2554    4.1399   -9.4634 H   0  0  0  0  0  0  0  0  0  0  0  0
  -10.7654    3.0059   -8.1532 H   0  0  0  0  0  0  0  0  0  0  0  0
   -8.6671    4.1861   -7.7805 H   0  0  0  0  0  0  0  0  0  0  0  0
   -9.9662    5.4352   -7.8584 H   0  0  0  0  0  0  0  0  0  0  0  0
   -7.1474    7.7529  -10.9382 H   0  0  0  0  0  0  0  0  0  0  0  0
   -8.6345    2.6876  -14.2162 H   0  0  0  0  0  0  0  0  0  0  0  0
   -9.6544    2.2504  -16.4309 H   0  0  0  0  0  0  0  0  0  0  0  0
   -9.0154    3.6370  -18.4157 H   0  0  0  0  0  0  0  0  0  0  0  0
  1  2  1  0
  2  3  1  0
  3  4  2  0
  4  5  1  0
  5  6  2  0
  6  7  1  0
  7  8  1  0
  8  9  1  0
  9 10  2  0
 10 11  1  0
 11 12  1  0
 12 13  1  0
 13 14  1  0
 14 15  1  0
 15 16  1  0
 16 17  2  0
  6 18  1  0
 18 19  2  0
 19 20  1  0
 20 21  2  0
 21  2  1  0
 21  5  1  0
 17  9  1  0
 15 10  1  0
  1 22  1  0
  1 23  1  0
  1 24  1  0
  7 25  1  0
  7 26  1  0
  8 27  1  0
 11 28  1  0
 11 29  1  0
 12 30  1  0
 12 31  1  0
 13 32  1  0
 13 33  1  0
 14 34  1  0
 14 35  1  0
 17 36  1  0
 18 37  1  0
 19 38  1  0
 20 39  1  0
A    1
 C1 
A    2
 N1 
A    3
 N2 
A    4
 N3 
A    5
 C2 
A    6
 C3 
A    7
 C4 
A    8
 N4 
A    9
 C5 
A   10
 C6 
A   11
 C7 
A   12
 C8 
A   13
 C9 
A   14
 C10
A   15
 N5 
A   16
 N6 
A   17
 C11
A   18
 C12
A   19
 C13
A   20
 C14
A   21
 C15
A   22
 H1 
A   23
 H2 
A   24
 H3 
A   25
 H4 
A   26
 H5 
A   27
 H6 
A   28
 H7 
A   29
 H8 
A   30
 H9 
A   31
 H10
A   32
 H11
A   33
 H12
A   34
 H13
A   35
 H14
A   36
 H15
A   37
 H16
A   38
 H17
A   39
 H18
M  END
>  <ref_pdb>  (126) 
x0051_0B

>  <ref_mols>  (126) 
x0435_0B,x0969_1B

>  <original SMILES>  (126) 
[H]c1nn2c(c1N([H])C([H])([H])c1c([H])c([H])c([H])c3c1nnn3C([H])([H])[H])C([H])([H])C([H])([H])C([H])([H])C2([H])[H]

>  <index>  (126) 
170

>  <∆∆G>  (126) 
-7.220864

>  <∆G_bound>  (126) 
-6.936316

>  <∆G_unbound>  (126) 
0.284548

>  <comRMSD>  (126) 
0.731591

>  <N_constrained_atoms>  (126) 
20.0

>  <N_unconstrained_atoms>  (126) 
1.0

>  <runtime>  (126) 
47.411295

>  <LE>  (126) 
0.343851

>  <percent_hybrid>  (126) 
50.0

>  <dist>  (126) 
6.0

>  <ecfp4>  (126) 
0.162791

>  <daylight>  (126) 
0.255132

>  <topodist>  (126) 
1.0

>  <mces>  (126) 
24.0

>  <tdn>  (126) 
0.0

>  <tup>  (126) 
0.0

>  <rdn>  (126) 
0.0

>  <rup>  (126) 
0.0

>  <ldn>  (126) 
1.0

>  <lup>  (126) 
0.0

>  <mut>  (126) 
5.0

>  <maj>  (126) 
5.0

>  <min>  (126) 
0.0

>  <hyb>  (126) 
0.0

>  <sub>  (126) 
0.0

>  <query_index>  (126) 
311.0

>  <max_hit_Tanimoto>  (126) 
0.265957

>  <largest_ring>  (126) 
6

>  <N_interactions_kept>  (126) 
2.5

>  <N_interactions_lost>  (126) 
1.0

>  <interaction_uniqueness_metric>  (126) 
0.208827

>  <ad_hoc_penalty>  (126) 
-27.339967

>  <N_rotatable_bonds>  (126) 
4

>  <N_HA>  (126) 
21

>  <cluster>  (126) 
6065

>  <N_interactions>  (126) 
5

>  <Enamine>  (126) 
1

>  <Mcule>  (126) 
0

>  <N_PAINS>  (126) 
0

>  <UFF_Gibbs>  (126) 
110.567584

>  <strain_per_HA>  (126) 
5.265123

>  <saltbridge:HIS:51>  (126) 
0

>  <pistack:HIS:51>  (126) 
1

>  <hydroph_interaction:HIS:51>  (126) 
0

>  <hbond:ALA:132>  (126) 
0

>  <hbond:SER:135>  (126) 
0

>  <hydroph_interaction:TYR:150>  (126) 
0

>  <pistack:TYR:161>  (126) 
1

>  <hydroph_interaction:TYR:161>  (126) 
1

>  <hydroph_interaction:ASP:83>  (126) 
1

>  <hbond:TYR:130>  (126) 
0

>  <hydroph_interaction:ALA:132>  (126) 
0

>  <hbond:HIS:51>  (126) 
1

>  <hbond:ASP:129>  (126) 
0

>  <hbond:TYR:150>  (126) 
0

>  <hbond:GLY:151>  (126) 
0

>  <hbond:TYR:161>  (126) 
0

>  <hydroph_interaction:TYR:130>  (126) 
0

>  <hydroph_interaction:PRO:131>  (126) 
0

>  <hydroph_interaction:ASP:129>  (126) 
0

>  <saltbridge:ASP:75>  (126) 
0

>  <saltbridge:ASP:83>  (126) 
0

>  <hydroph_interaction:ASN:152>  (126) 
0

>  <halogenbond:TYR:150>  (126) 
0

>  <hbond:ASP:83>  (126) 
0

>  <hydroph_interaction:VAL:155>  (126) 
0

>  <pication:TYR:161>  (126) 
0

>  <hbond:PRO:131>  (126) 
0

>  <hbond:LEU:128>  (126) 
0

>  <saltbridge:ASP:129>  (126) 
0

>  <hbond:THR:134>  (126) 
0

>  <pication:HIS:51>  (126) 
0

>  <hbond:SER:81>  (126) 
0

>  <hbond:GLY:159>  (126) 
0

>  <hydroph_interaction:PRO:101>  (126) 
0

>  <hydroph_interaction:THR:134>  (126) 
0

>  <hbond:GLY:82>  (126) 
0

>  <hydroph_interaction:GLU:104>  (126) 
0

>  <hydroph_interaction:VAL:36>  (126) 
0

>  <hydroph_interaction:MET:49>  (126) 
0

>  <halogenbond:GLU:104>  (126) 
0

>  <hydroph_interaction:LYS:107>  (126) 
0

$$$$
MCULE-6539417644
     RDKit          3D

 29 30  0  0  0  0  0  0  0  0999 V2000
   -6.4660    6.2888  -19.6823 C   0  0  0  0  0  0  0  0  0  0  0  0
   -6.3995    5.3826  -18.4465 C   0  0  0  0  0  0  0  0  0  0  0  0
   -5.3774    5.8632  -17.4964 N   0  0  0  0  0  0  0  0  0  0  0  0
   -3.9850    5.5616  -17.7175 C   0  0  0  0  0  0  0  0  0  0  0  0
   -3.1058    5.1240  -16.6146 C   0  0  0  0  0  0  0  0  0  0  0  0
   -3.5659    4.4784  -15.4703 C   0  0  0  0  0  0  0  0  0  0  0  0
   -2.2396    4.1207  -14.5037 S   0  0  0  0  0  0  0  0  0  0  0  0
   -1.0705    4.7686  -15.5207 C   0  0  0  0  0  0  0  0  0  0  0  0
   -1.7091    5.2739  -16.6440 C   0  0  0  0  0  0  0  0  0  0  0  0
   -3.5034    5.6555  -18.8783 O   0  0  0  0  0  0  0  0  0  0  0  0
   -5.7874    6.7175  -16.3717 C   0  0  0  0  0  0  0  0  0  0  0  0
   -6.8883    6.0435  -15.5275 C   0  0  0  0  0  0  0  0  0  0  0  0
   -7.6460    4.9414  -16.2889 C   0  0  0  0  0  0  0  0  0  0  0  0
   -7.7881    5.2951  -17.7711 C   0  0  0  0  0  0  0  0  0  0  0  0
   -5.5192    6.2429  -20.2570 H   0  0  0  0  0  0  0  0  0  0  0  0
   -6.6515    7.3420  -19.3816 H   0  0  0  0  0  0  0  0  0  0  0  0
   -7.2858    5.9569  -20.3547 H   0  0  0  0  0  0  0  0  0  0  0  0
   -6.1227    4.3558  -18.7762 H   0  0  0  0  0  0  0  0  0  0  0  0
   -4.5903    4.2152  -15.2510 H   0  0  0  0  0  0  0  0  0  0  0  0
   -0.0046    4.7834  -15.3381 H   0  0  0  0  0  0  0  0  0  0  0  0
   -1.1739    5.7427  -17.4597 H   0  0  0  0  0  0  0  0  0  0  0  0
   -4.9238    6.9788  -15.7227 H   0  0  0  0  0  0  0  0  0  0  0  0
   -6.1787    7.6733  -16.7831 H   0  0  0  0  0  0  0  0  0  0  0  0
   -6.4438    5.6045  -14.6088 H   0  0  0  0  0  0  0  0  0  0  0  0
   -7.6109    6.8217  -15.1976 H   0  0  0  0  0  0  0  0  0  0  0  0
   -7.0980    3.9780  -16.1939 H   0  0  0  0  0  0  0  0  0  0  0  0
   -8.6528    4.8046  -15.8386 H   0  0  0  0  0  0  0  0  0  0  0  0
   -8.4028    4.5213  -18.2806 H   0  0  0  0  0  0  0  0  0  0  0  0
   -8.3300    6.2642  -17.8519 H   0  0  0  0  0  0  0  0  0  0  0  0
  1  2  1  0
  2  3  1  0
  3  4  1  0
  4  5  1  0
  5  6  2  0
  6  7  1  0
  7  8  1  0
  8  9  2  0
  4 10  2  0
  3 11  1  0
 11 12  1  0
 12 13  1  0
 13 14  1  0
 14  2  1  0
  9  5  1  0
  1 15  1  0
  1 16  1  0
  1 17  1  0
  2 18  1  0
  6 19  1  0
  8 20  1  0
  9 21  1  0
 11 22  1  0
 11 23  1  0
 12 24  1  0
 12 25  1  0
 13 26  1  0
 13 27  1  0
 14 28  1  0
 14 29  1  0
A    1
 C1 
A    2
 C2 
A    3
 N1 
A    4
 C3 
A    5
 C4 
A    6
 C5 
A    7
 S1 
A    8
 C6 
A    9
 C7 
A   10
 O1 
A   11
 C8 
A   12
 C9 
A   13
 C10
A   14
 C11
A   15
 H1 
A   16
 H2 
A   17
 H3 
A   18
 H4 
A   19
 H5 
A   20
 H6 
A   21
 H7 
A   22
 H8 
A   23
 H9 
A   24
 H10
A   25
 H11
A   26
 H12
A   27
 H13
A   28
 H14
A   29
 H15
M  END
>  <ref_pdb>  (127) 
x0051_0B

>  <ref_mols>  (127) 
x0472_0B,x0386_0B

>  <original SMILES>  (127) 
[H]c1sc([H])c(C(=O)N2C([H])([H])C([H])([H])C([H])([H])C([H])([H])C2([H])C([H])([H])[H])c1[H]

>  <index>  (127) 
148

>  <∆∆G>  (127) 
-5.020431

>  <∆G_bound>  (127) 
-4.813757

>  <∆G_unbound>  (127) 
0.206675

>  <comRMSD>  (127) 
0.726972

>  <N_constrained_atoms>  (127) 
14.0

>  <N_unconstrained_atoms>  (127) 
3.0

>  <runtime>  (127) 
19.777766

>  <LE>  (127) 
0.295319

>  <percent_hybrid>  (127) 
20.0

>  <dist>  (127) 
5.0

>  <ecfp4>  (127) 
0.224138

>  <daylight>  (127) 
0.364286

>  <topodist>  (127) 
2.0

>  <mces>  (127) 
14.0

>  <tdn>  (127) 
0.0

>  <tup>  (127) 
0.0

>  <rdn>  (127) 
1.0

>  <rup>  (127) 
1.0

>  <ldn>  (127) 
0.0

>  <lup>  (127) 
0.0

>  <mut>  (127) 
2.0

>  <maj>  (127) 
2.0

>  <min>  (127) 
0.0

>  <hyb>  (127) 
1.0

>  <sub>  (127) 
1.0

>  <query_index>  (127) 
75.0

>  <max_hit_Tanimoto>  (127) 
0.348974

>  <largest_ring>  (127) 
6

>  <N_interactions_kept>  (127) 
3.0

>  <N_interactions_lost>  (127) 
0.0

>  <interaction_uniqueness_metric>  (127) 
0.068423

>  <ad_hoc_penalty>  (127) 
-27.256626

>  <N_rotatable_bonds>  (127) 
2

>  <N_HA>  (127) 
14

>  <cluster>  (127) 
6083

>  <N_interactions>  (127) 
4

>  <Enamine>  (127) 
0

>  <Mcule>  (127) 
1

>  <N_PAINS>  (127) 
0

>  <UFF_Gibbs>  (127) 
81.975679

>  <strain_per_HA>  (127) 
4.822099

>  <saltbridge:HIS:51>  (127) 
0

>  <pistack:HIS:51>  (127) 
0

>  <hydroph_interaction:HIS:51>  (127) 
0

>  <hbond:ALA:132>  (127) 
0

>  <hbond:SER:135>  (127) 
0

>  <hydroph_interaction:TYR:150>  (127) 
0

>  <pistack:TYR:161>  (127) 
0

>  <hydroph_interaction:TYR:161>  (127) 
2

>  <hydroph_interaction:ASP:83>  (127) 
0

>  <hbond:TYR:130>  (127) 
0

>  <hydroph_interaction:ALA:132>  (127) 
1

>  <hbond:HIS:51>  (127) 
0

>  <hbond:ASP:129>  (127) 
0

>  <hbond:TYR:150>  (127) 
0

>  <hbond:GLY:151>  (127) 
0

>  <hbond:TYR:161>  (127) 
0

>  <hydroph_interaction:TYR:130>  (127) 
0

>  <hydroph_interaction:PRO:131>  (127) 
0

>  <hydroph_interaction:ASP:129>  (127) 
0

>  <saltbridge:ASP:75>  (127) 
0

>  <saltbridge:ASP:83>  (127) 
0

>  <hydroph_interaction:ASN:152>  (127) 
0

>  <halogenbond:TYR:150>  (127) 
0

>  <hbond:ASP:83>  (127) 
0

>  <hydroph_interaction:VAL:155>  (127) 
1

>  <pication:TYR:161>  (127) 
0

>  <hbond:PRO:131>  (127) 
0

>  <hbond:LEU:128>  (127) 
0

>  <saltbridge:ASP:129>  (127) 
0

>  <hbond:THR:134>  (127) 
0

>  <pication:HIS:51>  (127) 
0

>  <hbond:SER:81>  (127) 
0

>  <hbond:GLY:159>  (127) 
0

>  <hydroph_interaction:PRO:101>  (127) 
0

>  <hydroph_interaction:THR:134>  (127) 
0

>  <hbond:GLY:82>  (127) 
0

>  <hydroph_interaction:GLU:104>  (127) 
0

>  <hydroph_interaction:VAL:36>  (127) 
0

>  <hydroph_interaction:MET:49>  (127) 
0

>  <halogenbond:GLU:104>  (127) 
0

>  <hydroph_interaction:LYS:107>  (127) 
0

$$$$
VDURLHCZVPIJNO-UHFFFAOYSA-N
     RDKit          3D

 35 37  0  0  0  0  0  0  0  0999 V2000
   -9.5643    5.4272  -12.7401 C   0  0  0  0  0  0  0  0  0  0  0  0
   -8.4607    5.0907  -13.5973 N   0  0  0  0  0  0  0  0  0  0  0  0
   -8.5591    4.9607  -15.0249 C   0  0  0  0  0  0  0  0  0  0  0  0
   -7.8598    3.9283  -15.6677 C   0  0  0  0  0  0  0  0  0  0  0  0
   -7.9194    3.7911  -17.0573 C   0  0  0  0  0  0  0  0  0  0  0  0
   -8.6643    4.6942  -17.8196 C   0  0  0  0  0  0  0  0  0  0  0  0
   -9.3451    5.7450  -17.1929 C   0  0  0  0  0  0  0  0  0  0  0  0
  -10.0936    6.6893  -17.9808 C   0  0  0  0  0  0  0  0  0  0  0  0
  -10.7206    7.4802  -18.6403 C   0  0  0  0  0  0  0  0  0  0  0  0
   -9.2868    5.8833  -15.7993 C   0  0  0  0  0  0  0  0  0  0  0  0
  -10.6792    5.7543  -13.2281 O   0  0  0  0  0  0  0  0  0  0  0  0
   -9.4089    5.4146  -11.2768 C   0  0  0  0  0  0  0  0  0  0  0  0
   -8.8026    4.4649  -10.4704 C   0  0  0  0  0  0  0  0  0  0  0  0
   -9.0149    4.8145   -9.1872 N   0  0  0  0  0  0  0  0  0  0  0  0
   -8.5392    4.0755   -8.0194 C   0  0  0  0  0  0  0  0  0  0  0  0
   -8.3104    2.5985   -8.3730 C   0  0  0  0  0  0  0  0  0  0  0  0
   -7.5188    2.4692   -9.6835 C   0  0  0  0  0  0  0  0  0  0  0  0
   -8.2699    3.1127  -10.8599 C   0  0  0  0  0  0  0  0  0  0  0  0
   -9.6928    5.9493   -9.1271 N   0  0  0  0  0  0  0  0  0  0  0  0
   -9.9577    6.3296  -10.3934 C   0  0  0  0  0  0  0  0  0  0  0  0
   -7.5390    4.8721  -13.1596 H   0  0  0  0  0  0  0  0  0  0  0  0
   -7.2778    3.2229  -15.0877 H   0  0  0  0  0  0  0  0  0  0  0  0
   -7.3858    2.9849  -17.5438 H   0  0  0  0  0  0  0  0  0  0  0  0
   -8.7019    4.5792  -18.8963 H   0  0  0  0  0  0  0  0  0  0  0  0
  -11.2709    8.1744  -19.2192 H   0  0  0  0  0  0  0  0  0  0  0  0
   -9.7813    6.7233  -15.3284 H   0  0  0  0  0  0  0  0  0  0  0  0
   -9.2844    4.1480   -7.1982 H   0  0  0  0  0  0  0  0  0  0  0  0
   -7.5855    4.5267   -7.6706 H   0  0  0  0  0  0  0  0  0  0  0  0
   -7.7516    2.1039   -7.5496 H   0  0  0  0  0  0  0  0  0  0  0  0
   -9.2916    2.0865   -8.4817 H   0  0  0  0  0  0  0  0  0  0  0  0
   -6.5271    2.9590   -9.5643 H   0  0  0  0  0  0  0  0  0  0  0  0
   -7.3434    1.3944   -9.9047 H   0  0  0  0  0  0  0  0  0  0  0  0
   -7.5800    3.1878  -11.7219 H   0  0  0  0  0  0  0  0  0  0  0  0
   -9.1249    2.4648  -11.1494 H   0  0  0  0  0  0  0  0  0  0  0  0
  -10.5247    7.2128  -10.6563 H   0  0  0  0  0  0  0  0  0  0  0  0
  1  2  1  0
  2  3  1  0
  3  4  2  0
  4  5  1  0
  5  6  2  0
  6  7  1  0
  7  8  1  0
  8  9  3  0
  7 10  2  0
  1 11  2  0
  1 12  1  0
 12 13  2  0
 13 14  1  0
 14 15  1  0
 15 16  1  0
 16 17  1  0
 17 18  1  0
 14 19  1  0
 19 20  2  0
  3 10  1  0
 20 12  1  0
 18 13  1  0
  2 21  1  0
  4 22  1  0
  5 23  1  0
  6 24  1  0
  9 25  1  0
 10 26  1  0
 15 27  1  0
 15 28  1  0
 16 29  1  0
 16 30  1  0
 17 31  1  0
 17 32  1  0
 18 33  1  0
 18 34  1  0
 20 35  1  0
A    1
 C1 
A    2
 N1 
A    3
 C2 
A    4
 C3 
A    5
 C4 
A    6
 C5 
A    7
 C6 
A    8
 C7 
A    9
 C8 
A   10
 C9 
A   11
 O1 
A   12
 C10
A   13
 C11
A   14
 N2 
A   15
 C12
A   16
 C13
A   17
 C14
A   18
 C15
A   19
 N3 
A   20
 C16
A   21
 H1 
A   22
 H2 
A   23
 H3 
A   24
 H4 
A   25
 H5 
A   26
 H6 
A   27
 H7 
A   28
 H8 
A   29
 H9 
A   30
 H10
A   31
 H11
A   32
 H12
A   33
 H13
A   34
 H14
A   35
 H15
M  END
>  <ref_pdb>  (128) 
x0051_0B

>  <ref_mols>  (128) 
x0553_0B,x0969_1B

>  <original SMILES>  (128) 
[H]C#Cc1c([H])c([H])c([H])c(N([H])C(=O)c2c([H])nn3c2C([H])([H])C([H])([H])C([H])([H])C3([H])[H])c1[H]

>  <index>  (128) 
126

>  <∆∆G>  (128) 
-6.258845

>  <∆G_bound>  (128) 
-5.829733

>  <∆G_unbound>  (128) 
0.429112

>  <comRMSD>  (128) 
0.836181

>  <N_constrained_atoms>  (128) 
19.0

>  <N_unconstrained_atoms>  (128) 
2.0

>  <runtime>  (128) 
60.232325

>  <LE>  (128) 
0.29804

>  <percent_hybrid>  (128) 
48.0

>  <dist>  (128) 
7.0

>  <ecfp4>  (128) 
0.246914

>  <daylight>  (128) 
0.265781

>  <topodist>  (128) 
3.0

>  <mces>  (128) 
21.0

>  <tdn>  (128) 
1.0

>  <tup>  (128) 
1.0

>  <rdn>  (128) 
0.0

>  <rup>  (128) 
0.0

>  <ldn>  (128) 
1.0

>  <lup>  (128) 
0.0

>  <mut>  (128) 
3.0

>  <maj>  (128) 
3.0

>  <min>  (128) 
0.0

>  <hyb>  (128) 
1.0

>  <sub>  (128) 
1.0

>  <query_index>  (128) 
375.0

>  <max_hit_Tanimoto>  (128) 
0.322581

>  <largest_ring>  (128) 
6

>  <N_interactions_kept>  (128) 
1.5

>  <N_interactions_lost>  (128) 
1.0

>  <interaction_uniqueness_metric>  (128) 
0.183458

>  <ad_hoc_penalty>  (128) 
-27.226541

>  <N_rotatable_bonds>  (128) 
2

>  <N_HA>  (128) 
20

>  <cluster>  (128) 
6102

>  <N_interactions>  (128) 
5

>  <Enamine>  (128) 
0

>  <Mcule>  (128) 
1

>  <N_PAINS>  (128) 
0

>  <UFF_Gibbs>  (128) 
154.176491

>  <strain_per_HA>  (128) 
7.341738

>  <saltbridge:HIS:51>  (128) 
0

>  <pistack:HIS:51>  (128) 
1

>  <hydroph_interaction:HIS:51>  (128) 
0

>  <hbond:ALA:132>  (128) 
0

>  <hbond:SER:135>  (128) 
0

>  <hydroph_interaction:TYR:150>  (128) 
1

>  <pistack:TYR:161>  (128) 
1

>  <hydroph_interaction:TYR:161>  (128) 
0

>  <hydroph_interaction:ASP:83>  (128) 
1

>  <hbond:TYR:130>  (128) 
0

>  <hydroph_interaction:ALA:132>  (128) 
0

>  <hbond:HIS:51>  (128) 
0

>  <hbond:ASP:129>  (128) 
0

>  <hbond:TYR:150>  (128) 
0

>  <hbond:GLY:151>  (128) 
0

>  <hbond:TYR:161>  (128) 
1

>  <hydroph_interaction:TYR:130>  (128) 
0

>  <hydroph_interaction:PRO:131>  (128) 
0

>  <hydroph_interaction:ASP:129>  (128) 
0

>  <saltbridge:ASP:75>  (128) 
0

>  <saltbridge:ASP:83>  (128) 
0

>  <hydroph_interaction:ASN:152>  (128) 
0

>  <halogenbond:TYR:150>  (128) 
0

>  <hbond:ASP:83>  (128) 
0

>  <hydroph_interaction:VAL:155>  (128) 
0

>  <pication:TYR:161>  (128) 
0

>  <hbond:PRO:131>  (128) 
0

>  <hbond:LEU:128>  (128) 
0

>  <saltbridge:ASP:129>  (128) 
0

>  <hbond:THR:134>  (128) 
0

>  <pication:HIS:51>  (128) 
0

>  <hbond:SER:81>  (128) 
0

>  <hbond:GLY:159>  (128) 
0

>  <hydroph_interaction:PRO:101>  (128) 
0

>  <hydroph_interaction:THR:134>  (128) 
0

>  <hbond:GLY:82>  (128) 
0

>  <hydroph_interaction:GLU:104>  (128) 
0

>  <hydroph_interaction:VAL:36>  (128) 
0

>  <hydroph_interaction:MET:49>  (128) 
0

>  <halogenbond:GLU:104>  (128) 
0

>  <hydroph_interaction:LYS:107>  (128) 
0

$$$$
CSSS00000169026
     RDKit          3D

 21 22  0  0  0  0  0  0  0  0999 V2000
   -9.9082    5.4014  -15.2640 C   0  0  0  0  0  0  0  0  0  0  0  0
   -9.3325    5.1532  -16.6160 C   0  0  0  0  0  0  0  0  0  0  0  0
   -8.0266    5.3197  -16.9129 N   0  0  0  0  0  0  0  0  0  0  0  0
   -7.7611    5.0960  -18.2313 C   0  0  0  0  0  0  0  0  0  0  0  0
   -8.8842    4.7566  -18.9941 C   0  0  0  0  0  0  0  0  0  0  0  0
  -10.2244    4.7485  -17.9783 S   0  0  0  0  0  0  0  0  0  0  0  0
   -6.3807    5.2101  -18.7722 C   0  0  0  0  0  0  0  0  0  0  0  0
   -5.2875    5.2966  -17.8877 C   0  0  0  0  0  0  0  0  0  0  0  0
   -3.9825    5.4057  -18.3775 C   0  0  0  0  0  0  0  0  0  0  0  0
   -3.7504    5.4339  -19.7534 C   0  0  0  0  0  0  0  0  0  0  0  0
   -4.8233    5.3553  -20.6428 C   0  0  0  0  0  0  0  0  0  0  0  0
   -6.1311    5.2454  -20.1597 C   0  0  0  0  0  0  0  0  0  0  0  0
  -10.7708    4.7248  -15.0896 H   0  0  0  0  0  0  0  0  0  0  0  0
  -10.2490    6.4551  -15.1956 H   0  0  0  0  0  0  0  0  0  0  0  0
   -9.1406    5.2134  -14.4843 H   0  0  0  0  0  0  0  0  0  0  0  0
   -8.9112    4.5239  -20.0488 H   0  0  0  0  0  0  0  0  0  0  0  0
   -5.4384    5.2729  -16.8158 H   0  0  0  0  0  0  0  0  0  0  0  0
   -3.1502    5.4681  -17.6883 H   0  0  0  0  0  0  0  0  0  0  0  0
   -2.7395    5.5192  -20.1305 H   0  0  0  0  0  0  0  0  0  0  0  0
   -4.6422    5.3833  -21.7097 H   0  0  0  0  0  0  0  0  0  0  0  0
   -6.9375    5.2038  -20.8776 H   0  0  0  0  0  0  0  0  0  0  0  0
  1  2  1  0
  2  3  2  0
  3  4  1  0
  4  5  2  0
  5  6  1  0
  4  7  1  0
  7  8  2  0
  8  9  1  0
  9 10  2  0
 10 11  1  0
 11 12  2  0
  6  2  1  0
 12  7  1  0
  1 13  1  0
  1 14  1  0
  1 15  1  0
  5 16  1  0
  8 17  1  0
  9 18  1  0
 10 19  1  0
 11 20  1  0
 12 21  1  0
A    1
 C1 
A    2
 C2 
A    3
 N1 
A    4
 C3 
A    5
 C4 
A    6
 S1 
A    7
 C5 
A    8
 C6 
A    9
 C7 
A   10
 C8 
A   11
 C9 
A   12
 C10
A   13
 H1 
A   14
 H2 
A   15
 H3 
A   16
 H4 
A   17
 H5 
A   18
 H6 
A   19
 H7 
A   20
 H8 
A   21
 H9 
M  END
>  <ref_pdb>  (129) 
x0051_0B

>  <ref_mols>  (129) 
x0680_0B,x0386_0B

>  <original SMILES>  (129) 
[H]c1sc(C([H])([H])[H])nc1-c1c([H])c([H])c([H])c([H])c1[H]

>  <index>  (129) 
247

>  <∆∆G>  (129) 
-7.439103

>  <∆G_bound>  (129) 
-7.460449

>  <∆G_unbound>  (129) 
-0.021346

>  <comRMSD>  (129) 
0.636561

>  <N_constrained_atoms>  (129) 
12.0

>  <N_unconstrained_atoms>  (129) 
1.0

>  <runtime>  (129) 
32.126457

>  <LE>  (129) 
0.572239

>  <percent_hybrid>  (129) 
17.0

>  <dist>  (129) 
4.0

>  <ecfp4>  (129) 
0.16

>  <daylight>  (129) 
0.187919

>  <topodist>  (129) 
2.0

>  <mces>  (129) 
12.0

>  <tdn>  (129) 
1.0

>  <tup>  (129) 
1.0

>  <rdn>  (129) 
0.0

>  <rup>  (129) 
0.0

>  <ldn>  (129) 
0.0

>  <lup>  (129) 
0.0

>  <mut>  (129) 
2.0

>  <maj>  (129) 
1.0

>  <min>  (129) 
1.0

>  <hyb>  (129) 
0.0

>  <sub>  (129) 
2.0

>  <query_index>  (129) 
296.0

>  <max_hit_Tanimoto>  (129) 
0.083636

>  <largest_ring>  (129) 
6

>  <N_interactions_kept>  (129) 
3.5

>  <N_interactions_lost>  (129) 
0.5

>  <interaction_uniqueness_metric>  (129) 
0.016266

>  <ad_hoc_penalty>  (129) 
-27.209914

>  <N_rotatable_bonds>  (129) 
2

>  <N_HA>  (129) 
12

>  <cluster>  (129) 
5993

>  <N_interactions>  (129) 
3

>  <Enamine>  (129) 
1

>  <Mcule>  (129) 
0

>  <N_PAINS>  (129) 
0

>  <UFF_Gibbs>  (129) 
18.412507

>  <strain_per_HA>  (129) 
1.416347

>  <saltbridge:HIS:51>  (129) 
0

>  <pistack:HIS:51>  (129) 
0

>  <hydroph_interaction:HIS:51>  (129) 
0

>  <hbond:ALA:132>  (129) 
0

>  <hbond:SER:135>  (129) 
0

>  <hydroph_interaction:TYR:150>  (129) 
0

>  <pistack:TYR:161>  (129) 
0

>  <hydroph_interaction:TYR:161>  (129) 
3

>  <hydroph_interaction:ASP:83>  (129) 
0

>  <hbond:TYR:130>  (129) 
0

>  <hydroph_interaction:ALA:132>  (129) 
0

>  <hbond:HIS:51>  (129) 
0

>  <hbond:ASP:129>  (129) 
0

>  <hbond:TYR:150>  (129) 
0

>  <hbond:GLY:151>  (129) 
0

>  <hbond:TYR:161>  (129) 
0

>  <hydroph_interaction:TYR:130>  (129) 
0

>  <hydroph_interaction:PRO:131>  (129) 
0

>  <hydroph_interaction:ASP:129>  (129) 
0

>  <saltbridge:ASP:75>  (129) 
0

>  <saltbridge:ASP:83>  (129) 
0

>  <hydroph_interaction:ASN:152>  (129) 
0

>  <halogenbond:TYR:150>  (129) 
0

>  <hbond:ASP:83>  (129) 
0

>  <hydroph_interaction:VAL:155>  (129) 
0

>  <pication:TYR:161>  (129) 
0

>  <hbond:PRO:131>  (129) 
0

>  <hbond:LEU:128>  (129) 
0

>  <saltbridge:ASP:129>  (129) 
0

>  <hbond:THR:134>  (129) 
0

>  <pication:HIS:51>  (129) 
0

>  <hbond:SER:81>  (129) 
0

>  <hbond:GLY:159>  (129) 
0

>  <hydroph_interaction:PRO:101>  (129) 
0

>  <hydroph_interaction:THR:134>  (129) 
0

>  <hbond:GLY:82>  (129) 
0

>  <hydroph_interaction:GLU:104>  (129) 
0

>  <hydroph_interaction:VAL:36>  (129) 
0

>  <hydroph_interaction:MET:49>  (129) 
0

>  <halogenbond:GLU:104>  (129) 
0

>  <hydroph_interaction:LYS:107>  (129) 
0

$$$$
CSSS00000212247
     RDKit          3D

 20 21  0  0  0  0  0  0  0  0999 V2000
   -6.7235    6.4160  -20.4937 O   0  0  0  0  0  0  0  0  0  0  0  0
   -6.5665    5.2621  -19.7107 C   0  0  0  0  0  0  0  0  0  0  0  0
   -5.3381    5.4086  -18.7861 C   0  0  0  0  0  0  0  0  0  0  0  0
   -5.8576    5.5341  -17.3409 C   0  0  0  0  0  0  0  0  0  0  0  0
   -7.3102    5.2752  -17.4594 C   0  0  0  0  0  0  0  0  0  0  0  0
   -8.2320    5.1918  -16.4126 C   0  0  0  0  0  0  0  0  0  0  0  0
   -9.5786    4.9414  -16.7177 C   0  0  0  0  0  0  0  0  0  0  0  0
   -9.9819    4.7810  -18.0554 C   0  0  0  0  0  0  0  0  0  0  0  0
   -9.0398    4.8724  -19.0915 C   0  0  0  0  0  0  0  0  0  0  0  0
   -7.7035    5.1237  -18.7657 C   0  0  0  0  0  0  0  0  0  0  0  0
   -7.3529    6.1799  -21.2243 H   0  0  0  0  0  0  0  0  0  0  0  0
   -6.4693    4.3528  -20.3481 H   0  0  0  0  0  0  0  0  0  0  0  0
   -4.6972    4.5036  -18.8730 H   0  0  0  0  0  0  0  0  0  0  0  0
   -4.7252    6.2960  -19.0582 H   0  0  0  0  0  0  0  0  0  0  0  0
   -5.6881    6.5599  -16.9484 H   0  0  0  0  0  0  0  0  0  0  0  0
   -5.3797    4.7827  -16.6760 H   0  0  0  0  0  0  0  0  0  0  0  0
   -7.9149    5.3165  -15.3852 H   0  0  0  0  0  0  0  0  0  0  0  0
  -10.3084    4.8715  -15.9216 H   0  0  0  0  0  0  0  0  0  0  0  0
  -11.0213    4.5877  -18.2866 H   0  0  0  0  0  0  0  0  0  0  0  0
   -9.3446    4.7512  -20.1230 H   0  0  0  0  0  0  0  0  0  0  0  0
  1  2  1  0
  2  3  1  0
  3  4  1  0
  4  5  1  0
  5  6  2  0
  6  7  1  0
  7  8  2  0
  8  9  1  0
  9 10  2  0
 10  2  1  0
 10  5  1  0
  1 11  1  0
  2 12  1  0
  3 13  1  0
  3 14  1  0
  4 15  1  0
  4 16  1  0
  6 17  1  0
  7 18  1  0
  8 19  1  0
  9 20  1  0
A    1
 O1 
A    2
 C1 
A    3
 C2 
A    4
 C3 
A    5
 C4 
A    6
 C5 
A    7
 C6 
A    8
 C7 
A    9
 C8 
A   10
 C9 
A   11
 H1 
A   12
 H2 
A   13
 H3 
A   14
 H4 
A   15
 H5 
A   16
 H6 
A   17
 H7 
A   18
 H8 
A   19
 H9 
A   20
 H10
M  END
>  <ref_pdb>  (130) 
x0051_0B

>  <ref_mols>  (130) 
x0727_0B,x0693_0B

>  <original SMILES>  (130) 
[H]OC1([H])c2c([H])c([H])c([H])c([H])c2C([H])([H])C1([H])[H]

>  <index>  (130) 
266

>  <∆∆G>  (130) 
-5.884592

>  <∆G_bound>  (130) 
-5.804144

>  <∆G_unbound>  (130) 
0.080449

>  <comRMSD>  (130) 
0.792803

>  <N_constrained_atoms>  (130) 
13.0

>  <N_unconstrained_atoms>  (130) 
0.0

>  <runtime>  (130) 
21.061111

>  <LE>  (130) 
0.452661

>  <percent_hybrid>  (130) 
34.0

>  <dist>  (130) 
4.0

>  <ecfp4>  (130) 
0.222222

>  <daylight>  (130) 
0.326531

>  <topodist>  (130) 
4.0

>  <mces>  (130) 
11.0

>  <tdn>  (130) 
3.0

>  <tup>  (130) 
0.0

>  <rdn>  (130) 
0.0

>  <rup>  (130) 
0.0

>  <ldn>  (130) 
1.0

>  <lup>  (130) 
0.0

>  <mut>  (130) 
0.0

>  <maj>  (130) 
0.0

>  <min>  (130) 
0.0

>  <hyb>  (130) 
0.0

>  <sub>  (130) 
2.0

>  <query_index>  (130) 
129.0

>  <max_hit_Tanimoto>  (130) 
0.142857

>  <largest_ring>  (130) 
6

>  <N_interactions_kept>  (130) 
3.5

>  <N_interactions_lost>  (130) 
1.5

>  <interaction_uniqueness_metric>  (130) 
0.05615

>  <ad_hoc_penalty>  (130) 
-27.196465

>  <N_rotatable_bonds>  (130) 
1

>  <N_HA>  (130) 
10

>  <cluster>  (130) 
5974

>  <N_interactions>  (130) 
5

>  <Enamine>  (130) 
1

>  <Mcule>  (130) 
0

>  <N_PAINS>  (130) 
0

>  <UFF_Gibbs>  (130) 
17.201192

>  <strain_per_HA>  (130) 
1.323169

>  <saltbridge:HIS:51>  (130) 
0

>  <pistack:HIS:51>  (130) 
0

>  <hydroph_interaction:HIS:51>  (130) 
0

>  <hbond:ALA:132>  (130) 
0

>  <hbond:SER:135>  (130) 
0

>  <hydroph_interaction:TYR:150>  (130) 
1

>  <pistack:TYR:161>  (130) 
0

>  <hydroph_interaction:TYR:161>  (130) 
3

>  <hydroph_interaction:ASP:83>  (130) 
0

>  <hbond:TYR:130>  (130) 
1

>  <hydroph_interaction:ALA:132>  (130) 
0

>  <hbond:HIS:51>  (130) 
0

>  <hbond:ASP:129>  (130) 
0

>  <hbond:TYR:150>  (130) 
0

>  <hbond:GLY:151>  (130) 
0

>  <hbond:TYR:161>  (130) 
0

>  <hydroph_interaction:TYR:130>  (130) 
0

>  <hydroph_interaction:PRO:131>  (130) 
0

>  <hydroph_interaction:ASP:129>  (130) 
0

>  <saltbridge:ASP:75>  (130) 
0

>  <saltbridge:ASP:83>  (130) 
0

>  <hydroph_interaction:ASN:152>  (130) 
0

>  <halogenbond:TYR:150>  (130) 
0

>  <hbond:ASP:83>  (130) 
0

>  <hydroph_interaction:VAL:155>  (130) 
0

>  <pication:TYR:161>  (130) 
0

>  <hbond:PRO:131>  (130) 
0

>  <hbond:LEU:128>  (130) 
0

>  <saltbridge:ASP:129>  (130) 
0

>  <hbond:THR:134>  (130) 
0

>  <pication:HIS:51>  (130) 
0

>  <hbond:SER:81>  (130) 
0

>  <hbond:GLY:159>  (130) 
0

>  <hydroph_interaction:PRO:101>  (130) 
0

>  <hydroph_interaction:THR:134>  (130) 
0

>  <hbond:GLY:82>  (130) 
0

>  <hydroph_interaction:GLU:104>  (130) 
0

>  <hydroph_interaction:VAL:36>  (130) 
0

>  <hydroph_interaction:MET:49>  (130) 
0

>  <halogenbond:GLU:104>  (130) 
0

>  <hydroph_interaction:LYS:107>  (130) 
0

$$$$
CSSB00000183848
     RDKit          3D

 19 20  0  0  0  0  0  0  0  0999 V2000
   -9.7587    4.9179  -15.3028 N   0  0  0  0  0  0  0  0  0  0  0  0
   -9.2214    4.8648  -16.6212 C   0  0  0  0  0  0  0  0  0  0  0  0
   -7.9323    5.1382  -16.9061 N   0  0  0  0  0  0  0  0  0  0  0  0
   -7.6684    5.0170  -18.2380 C   0  0  0  0  0  0  0  0  0  0  0  0
   -8.7727    4.6366  -19.0109 C   0  0  0  0  0  0  0  0  0  0  0  0
  -10.0990    4.4562  -17.9901 S   0  0  0  0  0  0  0  0  0  0  0  0
   -6.3072    5.2659  -18.7820 C   0  0  0  0  0  0  0  0  0  0  0  0
   -5.2157    5.4162  -17.9079 C   0  0  0  0  0  0  0  0  0  0  0  0
   -3.9353    5.6510  -18.4112 C   0  0  0  0  0  0  0  0  0  0  0  0
   -3.7484    5.7392  -19.7896 C   0  0  0  0  0  0  0  0  0  0  0  0
   -4.8071    5.5999  -20.6287 N   0  0  0  0  0  0  0  0  0  0  0  0
   -6.0649    5.3689  -20.1659 C   0  0  0  0  0  0  0  0  0  0  0  0
   -9.1495    5.1796  -14.4964 H   0  0  0  0  0  0  0  0  0  0  0  0
  -10.7645    4.6956  -15.1338 H   0  0  0  0  0  0  0  0  0  0  0  0
   -8.7933    4.4638  -20.0771 H   0  0  0  0  0  0  0  0  0  0  0  0
   -5.3484    5.3461  -16.8356 H   0  0  0  0  0  0  0  0  0  0  0  0
   -3.0953    5.7630  -17.7379 H   0  0  0  0  0  0  0  0  0  0  0  0
   -2.7614    5.9213  -20.1936 H   0  0  0  0  0  0  0  0  0  0  0  0
   -6.8664    5.2810  -20.8842 H   0  0  0  0  0  0  0  0  0  0  0  0
  1  2  1  0
  2  3  2  0
  3  4  1  0
  4  5  2  0
  5  6  1  0
  4  7  1  0
  7  8  2  0
  8  9  1  0
  9 10  2  0
 10 11  1  0
 11 12  2  0
  6  2  1  0
 12  7  1  0
  1 13  1  0
  1 14  1  0
  5 15  1  0
  8 16  1  0
  9 17  1  0
 10 18  1  0
 12 19  1  0
A    1
 N1 
A    2
 C1 
A    3
 N2 
A    4
 C2 
A    5
 C3 
A    6
 S1 
A    7
 C4 
A    8
 C5 
A    9
 C6 
A   10
 C7 
A   11
 N3 
A   12
 C8 
A   13
 H1 
A   14
 H2 
A   15
 H3 
A   16
 H4 
A   17
 H5 
A   18
 H6 
A   19
 H7 
M  END
>  <ref_pdb>  (131) 
x0051_0B

>  <ref_mols>  (131) 
x0680_0B,x0386_0B

>  <original SMILES>  (131) 
[H]c1nc([H])c(-c2nc(N([H])[H])sc2[H])c([H])c1[H]

>  <index>  (131) 
197

>  <∆∆G>  (131) 
-5.982265

>  <∆G_bound>  (131) 
-5.86974

>  <∆G_unbound>  (131) 
0.112525

>  <comRMSD>  (131) 
0.689466

>  <N_constrained_atoms>  (131) 
12.0

>  <N_unconstrained_atoms>  (131) 
1.0

>  <runtime>  (131) 
27.710925

>  <LE>  (131) 
0.460174

>  <percent_hybrid>  (131) 
17.0

>  <dist>  (131) 
3.0

>  <ecfp4>  (131) 
0.230769

>  <daylight>  (131) 
0.352941

>  <topodist>  (131) 
2.0

>  <mces>  (131) 
12.0

>  <tdn>  (131) 
1.0

>  <tup>  (131) 
1.0

>  <rdn>  (131) 
0.0

>  <rup>  (131) 
0.0

>  <ldn>  (131) 
0.0

>  <lup>  (131) 
0.0

>  <mut>  (131) 
1.0

>  <maj>  (131) 
0.0

>  <min>  (131) 
1.0

>  <hyb>  (131) 
0.0

>  <sub>  (131) 
2.0

>  <query_index>  (131) 
296.0

>  <max_hit_Tanimoto>  (131) 
0.131068

>  <largest_ring>  (131) 
6

>  <N_interactions_kept>  (131) 
3.5

>  <N_interactions_lost>  (131) 
0.5

>  <interaction_uniqueness_metric>  (131) 
0.081009

>  <ad_hoc_penalty>  (131) 
-27.193184

>  <N_rotatable_bonds>  (131) 
2

>  <N_HA>  (131) 
12

>  <cluster>  (131) 
6040

>  <N_interactions>  (131) 
4

>  <Enamine>  (131) 
1

>  <Mcule>  (131) 
0

>  <N_PAINS>  (131) 
0

>  <UFF_Gibbs>  (131) 
44.263263

>  <strain_per_HA>  (131) 
3.404866

>  <saltbridge:HIS:51>  (131) 
0

>  <pistack:HIS:51>  (131) 
0

>  <hydroph_interaction:HIS:51>  (131) 
0

>  <hbond:ALA:132>  (131) 
0

>  <hbond:SER:135>  (131) 
2

>  <hydroph_interaction:TYR:150>  (131) 
0

>  <pistack:TYR:161>  (131) 
0

>  <hydroph_interaction:TYR:161>  (131) 
2

>  <hydroph_interaction:ASP:83>  (131) 
0

>  <hbond:TYR:130>  (131) 
0

>  <hydroph_interaction:ALA:132>  (131) 
0

>  <hbond:HIS:51>  (131) 
0

>  <hbond:ASP:129>  (131) 
0

>  <hbond:TYR:150>  (131) 
0

>  <hbond:GLY:151>  (131) 
0

>  <hbond:TYR:161>  (131) 
0

>  <hydroph_interaction:TYR:130>  (131) 
0

>  <hydroph_interaction:PRO:131>  (131) 
0

>  <hydroph_interaction:ASP:129>  (131) 
0

>  <saltbridge:ASP:75>  (131) 
0

>  <saltbridge:ASP:83>  (131) 
0

>  <hydroph_interaction:ASN:152>  (131) 
0

>  <halogenbond:TYR:150>  (131) 
0

>  <hbond:ASP:83>  (131) 
0

>  <hydroph_interaction:VAL:155>  (131) 
0

>  <pication:TYR:161>  (131) 
0

>  <hbond:PRO:131>  (131) 
0

>  <hbond:LEU:128>  (131) 
0

>  <saltbridge:ASP:129>  (131) 
0

>  <hbond:THR:134>  (131) 
0

>  <pication:HIS:51>  (131) 
0

>  <hbond:SER:81>  (131) 
0

>  <hbond:GLY:159>  (131) 
0

>  <hydroph_interaction:PRO:101>  (131) 
0

>  <hydroph_interaction:THR:134>  (131) 
0

>  <hbond:GLY:82>  (131) 
0

>  <hydroph_interaction:GLU:104>  (131) 
0

>  <hydroph_interaction:VAL:36>  (131) 
0

>  <hydroph_interaction:MET:49>  (131) 
0

>  <halogenbond:GLU:104>  (131) 
0

>  <hydroph_interaction:LYS:107>  (131) 
0

$$$$
Z166918864
     RDKit          3D

 44 47  0  0  0  0  0  0  0  0999 V2000
   -6.1468    4.5033  -23.2149 O   0  0  0  0  0  0  0  0  0  0  0  0
   -6.3561    5.3919  -22.3452 C   0  0  0  0  0  0  0  0  0  0  0  0
   -5.9406    5.1528  -20.9938 N   0  0  0  0  0  0  0  0  0  0  0  0
   -6.6497    5.6868  -19.9018 N   0  0  0  0  0  0  0  0  0  0  0  0
   -6.1427    5.5877  -18.5632 C   0  0  0  0  0  0  0  0  0  0  0  0
   -5.0024    5.0897  -18.3586 O   0  0  0  0  0  0  0  0  0  0  0  0
   -6.9277    6.0823  -17.4154 C   0  0  0  0  0  0  0  0  0  0  0  0
   -6.4924    6.1652  -16.1071 C   0  0  0  0  0  0  0  0  0  0  0  0
   -7.4568    6.6486  -15.3577 O   0  0  0  0  0  0  0  0  0  0  0  0
   -8.5064    6.8840  -16.1113 C   0  0  0  0  0  0  0  0  0  0  0  0
   -8.2298    6.5449  -17.4196 C   0  0  0  0  0  0  0  0  0  0  0  0
   -7.0039    6.6620  -22.7454 C   0  0  0  0  0  0  0  0  0  0  0  0
   -7.9292    6.6812  -23.8026 C   0  0  0  0  0  0  0  0  0  0  0  0
   -8.5398    7.8787  -24.1869 C   0  0  0  0  0  0  0  0  0  0  0  0
   -8.2243    9.0784  -23.5295 C   0  0  0  0  0  0  0  0  0  0  0  0
   -8.8556   10.3741  -23.9586 C   0  0  0  0  0  0  0  0  0  0  0  0
   -7.7137   11.3352  -25.0121 S   0  0  0  0  0  0  0  0  0  0  0  0
   -7.9185   10.2801  -26.4458 C   0  0  0  0  0  0  0  0  0  0  0  0
   -7.0647    9.2660  -26.7434 N   0  0  0  0  0  0  0  0  0  0  0  0
   -7.6134    8.7397  -27.8532 C   0  0  0  0  0  0  0  0  0  0  0  0
   -7.1620    7.6484  -28.5924 C   0  0  0  0  0  0  0  0  0  0  0  0
   -7.9179    7.2629  -29.7169 C   0  0  0  0  0  0  0  0  0  0  0  0
   -9.0925    7.9692  -30.0672 C   0  0  0  0  0  0  0  0  0  0  0  0
   -9.5209    9.0666  -29.2958 C   0  0  0  0  0  0  0  0  0  0  0  0
   -8.7458    9.4190  -28.1935 C   0  0  0  0  0  0  0  0  0  0  0  0
   -8.9521   10.4036  -27.3126 N   0  0  0  0  0  0  0  0  0  0  0  0
   -7.2806    9.0661  -22.4917 C   0  0  0  0  0  0  0  0  0  0  0  0
   -6.6755    7.8682  -22.1022 C   0  0  0  0  0  0  0  0  0  0  0  0
   -5.1812    4.4549  -20.8264 H   0  0  0  0  0  0  0  0  0  0  0  0
   -7.5607    6.1675  -20.0706 H   0  0  0  0  0  0  0  0  0  0  0  0
   -5.5149    5.8836  -15.7365 H   0  0  0  0  0  0  0  0  0  0  0  0
   -9.4424    7.2848  -15.7447 H   0  0  0  0  0  0  0  0  0  0  0  0
   -8.9081    6.6242  -18.2585 H   0  0  0  0  0  0  0  0  0  0  0  0
   -8.1893    5.7677  -24.3234 H   0  0  0  0  0  0  0  0  0  0  0  0
   -9.2536    7.8709  -25.0018 H   0  0  0  0  0  0  0  0  0  0  0  0
   -9.0969   10.9817  -23.0614 H   0  0  0  0  0  0  0  0  0  0  0  0
   -9.8129   10.1949  -24.4958 H   0  0  0  0  0  0  0  0  0  0  0  0
   -6.2646    7.1121  -28.3098 H   0  0  0  0  0  0  0  0  0  0  0  0
   -7.6015    6.4171  -30.3144 H   0  0  0  0  0  0  0  0  0  0  0  0
   -9.6670    7.6625  -30.9314 H   0  0  0  0  0  0  0  0  0  0  0  0
  -10.4199    9.6132  -29.5499 H   0  0  0  0  0  0  0  0  0  0  0  0
   -9.7364   11.0924  -27.2855 H   0  0  0  0  0  0  0  0  0  0  0  0
   -7.0103    9.9858  -21.9873 H   0  0  0  0  0  0  0  0  0  0  0  0
   -5.9385    7.8892  -21.3090 H   0  0  0  0  0  0  0  0  0  0  0  0
  1  2  2  0
  2  3  1  0
  3  4  1  0
  4  5  1  0
  5  6  2  0
  5  7  1  0
  7  8  2  0
  8  9  1  0
  9 10  1  0
 10 11  2  0
  2 12  1  0
 12 13  2  0
 13 14  1  0
 14 15  2  0
 15 16  1  0
 16 17  1  0
 17 18  1  0
 18 19  2  0
 19 20  1  0
 20 21  2  0
 21 22  1  0
 22 23  2  0
 23 24  1  0
 24 25  2  0
 25 26  1  0
 15 27  1  0
 27 28  2  0
 11  7  1  0
 28 12  1  0
 26 18  1  0
 25 20  1  0
  3 29  1  0
  4 30  1  0
  8 31  1  0
 10 32  1  0
 11 33  1  0
 13 34  1  0
 14 35  1  0
 16 36  1  0
 16 37  1  0
 21 38  1  0
 22 39  1  0
 23 40  1  0
 24 41  1  0
 26 42  1  0
 27 43  1  0
 28 44  1  0
A    1
 O1 
A    2
 C1 
A    3
 N1 
A    4
 N2 
A    5
 C2 
A    6
 O2 
A    7
 C3 
A    8
 C4 
A    9
 O3 
A   10
 C5 
A   11
 C6 
A   12
 C7 
A   13
 C8 
A   14
 C9 
A   15
 C10
A   16
 C11
A   17
 S1 
A   18
 C12
A   19
 N3 
A   20
 C13
A   21
 C14
A   22
 C15
A   23
 C16
A   24
 C17
A   25
 C18
A   26
 N4 
A   27
 C19
A   28
 C20
A   29
 H1 
A   30
 H2 
A   31
 H3 
A   32
 H4 
A   33
 H5 
A   34
 H6 
A   35
 H7 
A   36
 H8 
A   37
 H9 
A   38
 H10
A   39
 H11
A   40
 H12
A   41
 H13
A   42
 H14
A   43
 H15
A   44
 H16
M  END
>  <ref_pdb>  (132) 
x0051_0B

>  <ref_mols>  (132) 
x0386_0B,x0846_1B

>  <original SMILES>  (132) 
[H]c1oc([H])c(C(=O)N([H])N([H])C(=O)c2c([H])c([H])c(C([H])([H])Sc3nc4c([H])c([H])c([H])c([H])c4n3[H])c([H])c2[H])c1[H]

>  <index>  (132) 
163

>  <∆∆G>  (132) 
-8.352306

>  <∆G_bound>  (132) 
-7.796671

>  <∆G_unbound>  (132) 
0.555635

>  <comRMSD>  (132) 
0.63411

>  <N_constrained_atoms>  (132) 
25.0

>  <N_unconstrained_atoms>  (132) 
3.0

>  <runtime>  (132) 
56.432254

>  <LE>  (132) 
0.298297

>  <percent_hybrid>  (132) 
28.0

>  <dist>  (132) 
8.0

>  <ecfp4>  (132) 
0.258427

>  <daylight>  (132) 
0.29386

>  <topodist>  (132) 
3.0

>  <mces>  (132) 
29.0

>  <tdn>  (132) 
1.0

>  <tup>  (132) 
2.0

>  <rdn>  (132) 
0.0

>  <rup>  (132) 
0.0

>  <ldn>  (132) 
0.0

>  <lup>  (132) 
0.0

>  <mut>  (132) 
3.0

>  <maj>  (132) 
3.0

>  <min>  (132) 
0.0

>  <hyb>  (132) 
2.0

>  <sub>  (132) 
1.0

>  <query_index>  (132) 
362.0

>  <max_hit_Tanimoto>  (132) 
0.29882

>  <largest_ring>  (132) 
6

>  <N_interactions_kept>  (132) 
0.0

>  <N_interactions_lost>  (132) 
2.0

>  <interaction_uniqueness_metric>  (132) 
0.197376

>  <ad_hoc_penalty>  (132) 
-27.170796

>  <N_rotatable_bonds>  (132) 
5

>  <N_HA>  (132) 
28

>  <cluster>  (132) 
499

>  <N_interactions>  (132) 
7

>  <Enamine>  (132) 
1

>  <Mcule>  (132) 
0

>  <N_PAINS>  (132) 
0

>  <UFF_Gibbs>  (132) 
157.708683

>  <strain_per_HA>  (132) 
5.632453

>  <saltbridge:HIS:51>  (132) 
0

>  <pistack:HIS:51>  (132) 
0

>  <hydroph_interaction:HIS:51>  (132) 
0

>  <hbond:ALA:132>  (132) 
0

>  <hbond:SER:135>  (132) 
0

>  <hydroph_interaction:TYR:150>  (132) 
1

>  <pistack:TYR:161>  (132) 
0

>  <hydroph_interaction:TYR:161>  (132) 
2

>  <hydroph_interaction:ASP:83>  (132) 
0

>  <hbond:TYR:130>  (132) 
1

>  <hydroph_interaction:ALA:132>  (132) 
0

>  <hbond:HIS:51>  (132) 
0

>  <hbond:ASP:129>  (132) 
1

>  <hbond:TYR:150>  (132) 
0

>  <hbond:GLY:151>  (132) 
0

>  <hbond:TYR:161>  (132) 
0

>  <hydroph_interaction:TYR:130>  (132) 
1

>  <hydroph_interaction:PRO:131>  (132) 
1

>  <hydroph_interaction:ASP:129>  (132) 
0

>  <saltbridge:ASP:75>  (132) 
0

>  <saltbridge:ASP:83>  (132) 
0

>  <hydroph_interaction:ASN:152>  (132) 
0

>  <halogenbond:TYR:150>  (132) 
0

>  <hbond:ASP:83>  (132) 
0

>  <hydroph_interaction:VAL:155>  (132) 
0

>  <pication:TYR:161>  (132) 
0

>  <hbond:PRO:131>  (132) 
0

>  <hbond:LEU:128>  (132) 
0

>  <saltbridge:ASP:129>  (132) 
0

>  <hbond:THR:134>  (132) 
0

>  <pication:HIS:51>  (132) 
0

>  <hbond:SER:81>  (132) 
0

>  <hbond:GLY:159>  (132) 
0

>  <hydroph_interaction:PRO:101>  (132) 
0

>  <hydroph_interaction:THR:134>  (132) 
0

>  <hbond:GLY:82>  (132) 
0

>  <hydroph_interaction:GLU:104>  (132) 
0

>  <hydroph_interaction:VAL:36>  (132) 
0

>  <hydroph_interaction:MET:49>  (132) 
0

>  <halogenbond:GLU:104>  (132) 
0

>  <hydroph_interaction:LYS:107>  (132) 
0

$$$$
CSSS00026427523
     RDKit          3D

 31 33  0  0  0  0  0  0  0  0999 V2000
   -8.0217    7.8582  -16.1711 O   0  0  0  0  0  0  0  0  0  0  0  0
   -8.6890    6.7883  -16.1834 C   0  0  0  0  0  0  0  0  0  0  0  0
   -9.6571    6.5238  -15.1538 N   0  0  0  0  0  0  0  0  0  0  0  0
   -9.7752    7.2916  -13.9441 C   0  0  0  0  0  0  0  0  0  0  0  0
  -11.0329    7.4571  -13.3487 C   0  0  0  0  0  0  0  0  0  0  0  0
  -11.1574    8.1809  -12.1616 C   0  0  0  0  0  0  0  0  0  0  0  0
  -10.0158    8.7211  -11.5678 C   0  0  0  0  0  0  0  0  0  0  0  0
   -8.7973    8.5318  -12.1395 N   0  0  0  0  0  0  0  0  0  0  0  0
   -8.6503    7.8345  -13.2980 C   0  0  0  0  0  0  0  0  0  0  0  0
   -8.5191    5.8412  -17.3078 C   0  0  0  0  0  0  0  0  0  0  0  0
   -9.6644    5.4321  -18.0113 C   0  0  0  0  0  0  0  0  0  0  0  0
   -9.5614    4.5820  -19.1117 C   0  0  0  0  0  0  0  0  0  0  0  0
   -8.3149    4.1237  -19.5321 C   0  0  0  0  0  0  0  0  0  0  0  0
   -7.1541    4.5033  -18.8447 C   0  0  0  0  0  0  0  0  0  0  0  0
   -5.9031    4.0250  -19.2659 C   0  0  0  0  0  0  0  0  0  0  0  0
   -4.7450    4.3779  -18.5726 C   0  0  0  0  0  0  0  0  0  0  0  0
   -4.8243    5.2022  -17.4506 C   0  0  0  0  0  0  0  0  0  0  0  0
   -6.0606    5.6892  -17.0188 C   0  0  0  0  0  0  0  0  0  0  0  0
   -7.2446    5.3636  -17.7161 C   0  0  0  0  0  0  0  0  0  0  0  0
  -10.3535    5.7610  -15.3131 H   0  0  0  0  0  0  0  0  0  0  0  0
  -11.9161    7.0342  -13.8110 H   0  0  0  0  0  0  0  0  0  0  0  0
  -12.1289    8.3200  -11.7051 H   0  0  0  0  0  0  0  0  0  0  0  0
  -10.0969    9.2830  -10.6470 H   0  0  0  0  0  0  0  0  0  0  0  0
   -7.6557    7.6831  -13.6937 H   0  0  0  0  0  0  0  0  0  0  0  0
  -10.6441    5.7937  -17.7237 H   0  0  0  0  0  0  0  0  0  0  0  0
  -10.4535    4.2839  -19.6474 H   0  0  0  0  0  0  0  0  0  0  0  0
   -8.2585    3.4671  -20.3923 H   0  0  0  0  0  0  0  0  0  0  0  0
   -5.8220    3.3736  -20.1281 H   0  0  0  0  0  0  0  0  0  0  0  0
   -3.7838    4.0037  -18.9006 H   0  0  0  0  0  0  0  0  0  0  0  0
   -3.9238    5.4611  -16.9087 H   0  0  0  0  0  0  0  0  0  0  0  0
   -6.0769    6.3042  -16.1299 H   0  0  0  0  0  0  0  0  0  0  0  0
  1  2  2  0
  2  3  1  0
  3  4  1  0
  4  5  2  0
  5  6  1  0
  6  7  2  0
  7  8  1  0
  8  9  2  0
  2 10  1  0
 10 11  2  0
 11 12  1  0
 12 13  2  0
 13 14  1  0
 14 15  2  0
 15 16  1  0
 16 17  2  0
 17 18  1  0
 18 19  2  0
  9  4  1  0
 19 10  1  0
 19 14  1  0
  3 20  1  0
  5 21  1  0
  6 22  1  0
  7 23  1  0
  9 24  1  0
 11 25  1  0
 12 26  1  0
 13 27  1  0
 15 28  1  0
 16 29  1  0
 17 30  1  0
 18 31  1  0
A    1
 O1 
A    2
 C1 
A    3
 N1 
A    4
 C2 
A    5
 C3 
A    6
 C4 
A    7
 C5 
A    8
 N2 
A    9
 C6 
A   10
 C7 
A   11
 C8 
A   12
 C9 
A   13
 C10
A   14
 C11
A   15
 C12
A   16
 C13
A   17
 C14
A   18
 C15
A   19
 C16
A   20
 H1 
A   21
 H2 
A   22
 H3 
A   23
 H4 
A   24
 H5 
A   25
 H6 
A   26
 H7 
A   27
 H8 
A   28
 H9 
A   29
 H10
A   30
 H11
A   31
 H12
M  END
>  <ref_pdb>  (133) 
x0051_0B

>  <ref_mols>  (133) 
x0429_0B,x0951_0B

>  <original SMILES>  (133) 
[H]c1nc([H])c(N([H])C(=O)c2c([H])c([H])c([H])c3c([H])c([H])c([H])c([H])c23)c([H])c1[H]

>  <index>  (133) 
222

>  <∆∆G>  (133) 
-8.734849

>  <∆G_bound>  (133) 
-8.565179

>  <∆G_unbound>  (133) 
0.16967

>  <comRMSD>  (133) 
0.38819

>  <N_constrained_atoms>  (133) 
16.0

>  <N_unconstrained_atoms>  (133) 
4.0

>  <runtime>  (133) 
52.196356

>  <LE>  (133) 
0.436742

>  <percent_hybrid>  (133) 
45.0

>  <dist>  (133) 
12.0

>  <ecfp4>  (133) 
0.144928

>  <daylight>  (133) 
0.24

>  <topodist>  (133) 
3.0

>  <mces>  (133) 
21.0

>  <tdn>  (133) 
2.0

>  <tup>  (133) 
0.0

>  <rdn>  (133) 
1.0

>  <rup>  (133) 
0.0

>  <ldn>  (133) 
0.0

>  <lup>  (133) 
0.0

>  <mut>  (133) 
4.0

>  <maj>  (133) 
4.0

>  <min>  (133) 
0.0

>  <hyb>  (133) 
5.0

>  <sub>  (133) 
1.0

>  <query_index>  (133) 
76.0

>  <max_hit_Tanimoto>  (133) 
0.220979

>  <largest_ring>  (133) 
6

>  <N_interactions_kept>  (133) 
0.0

>  <N_interactions_lost>  (133) 
3.0

>  <interaction_uniqueness_metric>  (133) 
0.260922

>  <ad_hoc_penalty>  (133) 
-27.113402

>  <N_rotatable_bonds>  (133) 
2

>  <N_HA>  (133) 
19

>  <cluster>  (133) 
6016

>  <N_interactions>  (133) 
7

>  <Enamine>  (133) 
1

>  <Mcule>  (133) 
0

>  <N_PAINS>  (133) 
0

>  <UFF_Gibbs>  (133) 
94.61144

>  <strain_per_HA>  (133) 
4.730572

>  <saltbridge:HIS:51>  (133) 
0

>  <pistack:HIS:51>  (133) 
0

>  <hydroph_interaction:HIS:51>  (133) 
0

>  <hbond:ALA:132>  (133) 
0

>  <hbond:SER:135>  (133) 
0

>  <hydroph_interaction:TYR:150>  (133) 
1

>  <pistack:TYR:161>  (133) 
2

>  <hydroph_interaction:TYR:161>  (133) 
1

>  <hydroph_interaction:ASP:83>  (133) 
0

>  <hbond:TYR:130>  (133) 
0

>  <hydroph_interaction:ALA:132>  (133) 
1

>  <hbond:HIS:51>  (133) 
0

>  <hbond:ASP:129>  (133) 
0

>  <hbond:TYR:150>  (133) 
0

>  <hbond:GLY:151>  (133) 
1

>  <hbond:TYR:161>  (133) 
0

>  <hydroph_interaction:TYR:130>  (133) 
0

>  <hydroph_interaction:PRO:131>  (133) 
0

>  <hydroph_interaction:ASP:129>  (133) 
0

>  <saltbridge:ASP:75>  (133) 
0

>  <saltbridge:ASP:83>  (133) 
0

>  <hydroph_interaction:ASN:152>  (133) 
0

>  <halogenbond:TYR:150>  (133) 
0

>  <hbond:ASP:83>  (133) 
0

>  <hydroph_interaction:VAL:155>  (133) 
0

>  <pication:TYR:161>  (133) 
0

>  <hbond:PRO:131>  (133) 
0

>  <hbond:LEU:128>  (133) 
0

>  <saltbridge:ASP:129>  (133) 
0

>  <hbond:THR:134>  (133) 
0

>  <pication:HIS:51>  (133) 
1

>  <hbond:SER:81>  (133) 
0

>  <hbond:GLY:159>  (133) 
0

>  <hydroph_interaction:PRO:101>  (133) 
0

>  <hydroph_interaction:THR:134>  (133) 
0

>  <hbond:GLY:82>  (133) 
0

>  <hydroph_interaction:GLU:104>  (133) 
0

>  <hydroph_interaction:VAL:36>  (133) 
0

>  <hydroph_interaction:MET:49>  (133) 
0

>  <halogenbond:GLU:104>  (133) 
0

>  <hydroph_interaction:LYS:107>  (133) 
0

$$$$
HMSUWMDUCWPBMA-UHFFFAOYSA-N
     RDKit          3D

 50 54  0  0  0  0  0  0  0  0999 V2000
   -6.7673    9.0947  -24.5212 C   0  0  0  0  0  0  0  0  0  0  0  0
   -7.3323    8.2127  -25.5068 N   0  0  0  0  0  0  0  0  0  0  0  0
   -8.3976    8.5717  -26.3983 C   0  0  0  0  0  0  0  0  0  0  0  0
   -9.3855    9.9464  -26.2580 S   0  0  0  0  0  0  0  0  0  0  0  0
  -10.2871    9.5198  -27.6071 C   0  0  0  0  0  0  0  0  0  0  0  0
  -11.3620   10.1917  -28.1820 C   0  0  0  0  0  0  0  0  0  0  0  0
  -11.9614    9.6350  -29.3294 C   0  0  0  0  0  0  0  0  0  0  0  0
  -13.1458   10.3048  -29.9595 C   0  0  0  0  0  0  0  0  0  0  0  0
  -11.4843    8.4075  -29.8449 C   0  0  0  0  0  0  0  0  0  0  0  0
  -10.3984    7.7510  -29.2418 C   0  0  0  0  0  0  0  0  0  0  0  0
   -9.8057    8.3260  -28.1179 C   0  0  0  0  0  0  0  0  0  0  0  0
   -8.7559    7.7888  -27.4452 N   0  0  0  0  0  0  0  0  0  0  0  0
   -6.9606   10.3381  -24.6040 O   0  0  0  0  0  0  0  0  0  0  0  0
   -5.9131    8.5668  -23.4296 C   0  0  0  0  0  0  0  0  0  0  0  0
   -6.0167    7.2288  -23.0102 C   0  0  0  0  0  0  0  0  0  0  0  0
   -5.2032    6.7411  -21.9828 C   0  0  0  0  0  0  0  0  0  0  0  0
   -4.2748    7.5866  -21.3478 C   0  0  0  0  0  0  0  0  0  0  0  0
   -3.4299    7.1480  -20.3153 O   0  0  0  0  0  0  0  0  0  0  0  0
   -3.4578    5.8511  -19.7191 C   0  0  0  0  0  0  0  0  0  0  0  0
   -4.6772    5.6892  -18.8603 C   0  0  0  0  0  0  0  0  0  0  0  0
   -5.5824    4.7141  -19.1482 N   0  0  0  0  0  0  0  0  0  0  0  0
   -6.7020    4.5288  -18.3990 C   0  0  0  0  0  0  0  0  0  0  0  0
   -6.9490    5.3592  -17.2826 C   0  0  0  0  0  0  0  0  0  0  0  0
   -8.1022    5.1607  -16.5089 C   0  0  0  0  0  0  0  0  0  0  0  0
   -9.0012    4.1438  -16.8450 C   0  0  0  0  0  0  0  0  0  0  0  0
   -8.7556    3.3244  -17.9518 C   0  0  0  0  0  0  0  0  0  0  0  0
   -7.6085    3.5158  -18.7286 C   0  0  0  0  0  0  0  0  0  0  0  0
   -6.0276    6.3661  -16.9708 C   0  0  0  0  0  0  0  0  0  0  0  0
   -4.8880    6.5331  -17.7600 C   0  0  0  0  0  0  0  0  0  0  0  0
   -4.1796    8.9201  -21.7576 C   0  0  0  0  0  0  0  0  0  0  0  0
   -4.9921    9.4097  -22.7838 C   0  0  0  0  0  0  0  0  0  0  0  0
   -6.9078    7.2678  -25.6348 H   0  0  0  0  0  0  0  0  0  0  0  0
  -11.7216   11.1185  -27.7530 H   0  0  0  0  0  0  0  0  0  0  0  0
  -14.0784    9.9046  -29.5097 H   0  0  0  0  0  0  0  0  0  0  0  0
  -13.1079   11.4031  -29.7983 H   0  0  0  0  0  0  0  0  0  0  0  0
  -13.1624   10.1186  -31.0546 H   0  0  0  0  0  0  0  0  0  0  0  0
  -11.9541    7.9615  -30.7128 H   0  0  0  0  0  0  0  0  0  0  0  0
  -10.0324    6.8144  -29.6418 H   0  0  0  0  0  0  0  0  0  0  0  0
   -6.7377    6.5587  -23.4598 H   0  0  0  0  0  0  0  0  0  0  0  0
   -5.3069    5.7056  -21.6942 H   0  0  0  0  0  0  0  0  0  0  0  0
   -3.4054    5.0638  -20.5016 H   0  0  0  0  0  0  0  0  0  0  0  0
   -2.5575    5.7373  -19.0796 H   0  0  0  0  0  0  0  0  0  0  0  0
   -8.3057    5.7867  -15.6484 H   0  0  0  0  0  0  0  0  0  0  0  0
   -9.8897    3.9891  -16.2466 H   0  0  0  0  0  0  0  0  0  0  0  0
   -9.4542    2.5379  -18.2065 H   0  0  0  0  0  0  0  0  0  0  0  0
   -7.4254    2.8749  -19.5824 H   0  0  0  0  0  0  0  0  0  0  0  0
   -6.1877    7.0197  -16.1216 H   0  0  0  0  0  0  0  0  0  0  0  0
   -4.1753    7.3122  -17.5178 H   0  0  0  0  0  0  0  0  0  0  0  0
   -3.4702    9.5819  -21.2771 H   0  0  0  0  0  0  0  0  0  0  0  0
   -4.8898   10.4460  -23.0808 H   0  0  0  0  0  0  0  0  0  0  0  0
  1  2  1  0
  2  3  1  0
  3  4  1  0
  4  5  1  0
  5  6  2  0
  6  7  1  0
  7  8  1  0
  7  9  2  0
  9 10  1  0
 10 11  2  0
 11 12  1  0
  1 13  2  0
  1 14  1  0
 14 15  2  0
 15 16  1  0
 16 17  2  0
 17 18  1  0
 18 19  1  0
 19 20  1  0
 20 21  2  0
 21 22  1  0
 22 23  2  0
 23 24  1  0
 24 25  2  0
 25 26  1  0
 26 27  2  0
 23 28  1  0
 28 29  2  0
 17 30  1  0
 30 31  2  0
  3 12  2  0
 11  5  1  0
 31 14  1  0
 29 20  1  0
 27 22  1  0
  2 32  1  0
  6 33  1  0
  8 34  1  0
  8 35  1  0
  8 36  1  0
  9 37  1  0
 10 38  1  0
 15 39  1  0
 16 40  1  0
 19 41  1  0
 19 42  1  0
 24 43  1  0
 25 44  1  0
 26 45  1  0
 27 46  1  0
 28 47  1  0
 29 48  1  0
 30 49  1  0
 31 50  1  0
A    1
 C1 
A    2
 N1 
A    3
 C2 
A    4
 S1 
A    5
 C3 
A    6
 C4 
A    7
 C5 
A    8
 C6 
A    9
 C7 
A   10
 C8 
A   11
 C9 
A   12
 N2 
A   13
 O1 
A   14
 C10
A   15
 C11
A   16
 C12
A   17
 C13
A   18
 O2 
A   19
 C14
A   20
 C15
A   21
 N3 
A   22
 C16
A   23
 C17
A   24
 C18
A   25
 C19
A   26
 C20
A   27
 C21
A   28
 C22
A   29
 C23
A   30
 C24
A   31
 C25
A   32
 H1 
A   33
 H2 
A   34
 H3 
A   35
 H4 
A   36
 H5 
A   37
 H6 
A   38
 H7 
A   39
 H8 
A   40
 H9 
A   41
 H10
A   42
 H11
A   43
 H12
A   44
 H13
A   45
 H14
A   46
 H15
A   47
 H16
A   48
 H17
A   49
 H18
A   50
 H19
M  END
>  <ref_pdb>  (134) 
x0051_0B

>  <ref_mols>  (134) 
x0846_1B,x0727_0B

>  <original SMILES>  (134) 
[H]c1c([H])c(C(=O)N([H])c2nc3c([H])c([H])c(C([H])([H])[H])c([H])c3s2)c([H])c([H])c1OC([H])([H])c1nc2c([H])c([H])c([H])c([H])c2c([H])c1[H]

>  <index>  (134) 
436

>  <∆∆G>  (134) 
-10.303681

>  <∆G_bound>  (134) 
-9.884831

>  <∆G_unbound>  (134) 
0.418851

>  <comRMSD>  (134) 
0.964839

>  <N_constrained_atoms>  (134) 
28.0

>  <N_unconstrained_atoms>  (134) 
4.0

>  <runtime>  (134) 
65.862479

>  <LE>  (134) 
0.32199

>  <percent_hybrid>  (134) 
36.0

>  <dist>  (134) 
9.0

>  <ecfp4>  (134) 
0.255319

>  <daylight>  (134) 
0.519841

>  <topodist>  (134) 
5.0

>  <mces>  (134) 
33.0

>  <tdn>  (134) 
3.0

>  <tup>  (134) 
2.0

>  <rdn>  (134) 
0.0

>  <rup>  (134) 
0.0

>  <ldn>  (134) 
0.0

>  <lup>  (134) 
0.0

>  <mut>  (134) 
3.0

>  <maj>  (134) 
3.0

>  <min>  (134) 
0.0

>  <hyb>  (134) 
1.0

>  <sub>  (134) 
3.0

>  <query_index>  (134) 
17.0

>  <max_hit_Tanimoto>  (134) 
0.272904

>  <largest_ring>  (134) 
6

>  <N_interactions_kept>  (134) 
0.5

>  <N_interactions_lost>  (134) 
2.5

>  <interaction_uniqueness_metric>  (134) 
0.47249

>  <ad_hoc_penalty>  (134) 
-27.103168

>  <N_rotatable_bonds>  (134) 
6

>  <N_HA>  (134) 
31

>  <cluster>  (134) 
5822

>  <N_interactions>  (134) 
6

>  <Enamine>  (134) 
0

>  <Mcule>  (134) 
1

>  <N_PAINS>  (134) 
0

>  <UFF_Gibbs>  (134) 
132.178435

>  <strain_per_HA>  (134) 
4.130576

>  <saltbridge:HIS:51>  (134) 
0

>  <pistack:HIS:51>  (134) 
0

>  <hydroph_interaction:HIS:51>  (134) 
0

>  <hbond:ALA:132>  (134) 
0

>  <hbond:SER:135>  (134) 
0

>  <hydroph_interaction:TYR:150>  (134) 
1

>  <pistack:TYR:161>  (134) 
2

>  <hydroph_interaction:TYR:161>  (134) 
0

>  <hydroph_interaction:ASP:83>  (134) 
0

>  <hbond:TYR:130>  (134) 
0

>  <hydroph_interaction:ALA:132>  (134) 
0

>  <hbond:HIS:51>  (134) 
0

>  <hbond:ASP:129>  (134) 
0

>  <hbond:TYR:150>  (134) 
0

>  <hbond:GLY:151>  (134) 
0

>  <hbond:TYR:161>  (134) 
0

>  <hydroph_interaction:TYR:130>  (134) 
1

>  <hydroph_interaction:PRO:131>  (134) 
1

>  <hydroph_interaction:ASP:129>  (134) 
0

>  <saltbridge:ASP:75>  (134) 
0

>  <saltbridge:ASP:83>  (134) 
0

>  <hydroph_interaction:ASN:152>  (134) 
0

>  <halogenbond:TYR:150>  (134) 
0

>  <hbond:ASP:83>  (134) 
0

>  <hydroph_interaction:VAL:155>  (134) 
0

>  <pication:TYR:161>  (134) 
0

>  <hbond:PRO:131>  (134) 
0

>  <hbond:LEU:128>  (134) 
0

>  <saltbridge:ASP:129>  (134) 
0

>  <hbond:THR:134>  (134) 
0

>  <pication:HIS:51>  (134) 
0

>  <hbond:SER:81>  (134) 
0

>  <hbond:GLY:159>  (134) 
0

>  <hydroph_interaction:PRO:101>  (134) 
1

>  <hydroph_interaction:THR:134>  (134) 
0

>  <hbond:GLY:82>  (134) 
0

>  <hydroph_interaction:GLU:104>  (134) 
0

>  <hydroph_interaction:VAL:36>  (134) 
0

>  <hydroph_interaction:MET:49>  (134) 
0

>  <halogenbond:GLU:104>  (134) 
0

>  <hydroph_interaction:LYS:107>  (134) 
0

$$$$
CSSB00000084719
     RDKit          3D

 18 19  0  0  0  0  0  0  0  0999 V2000
  -10.3344    4.5920  -18.2840 S   0  0  0  0  0  0  0  0  0  0  0  0
   -9.7079    5.0981  -16.8119 C   0  0  0  0  0  0  0  0  0  0  0  0
   -8.3492    5.3259  -16.9757 C   0  0  0  0  0  0  0  0  0  0  0  0
   -7.8839    5.0809  -18.2822 C   0  0  0  0  0  0  0  0  0  0  0  0
   -8.8947    4.6583  -19.1464 C   0  0  0  0  0  0  0  0  0  0  0  0
   -6.4682    5.2540  -18.6982 C   0  0  0  0  0  0  0  0  0  0  0  0
   -5.4192    5.1040  -17.7738 C   0  0  0  0  0  0  0  0  0  0  0  0
   -4.0942    5.2685  -18.1806 C   0  0  0  0  0  0  0  0  0  0  0  0
   -3.8210    5.5836  -19.5112 C   0  0  0  0  0  0  0  0  0  0  0  0
   -4.8397    5.7277  -20.3982 N   0  0  0  0  0  0  0  0  0  0  0  0
   -6.1392    5.5709  -20.0292 C   0  0  0  0  0  0  0  0  0  0  0  0
  -10.2652    5.2295  -15.8944 H   0  0  0  0  0  0  0  0  0  0  0  0
   -7.7233    5.6786  -16.1672 H   0  0  0  0  0  0  0  0  0  0  0  0
   -8.7812    4.3937  -20.1889 H   0  0  0  0  0  0  0  0  0  0  0  0
   -5.6173    4.8404  -16.7433 H   0  0  0  0  0  0  0  0  0  0  0  0
   -3.2856    5.1484  -17.4711 H   0  0  0  0  0  0  0  0  0  0  0  0
   -2.7986    5.7137  -19.8398 H   0  0  0  0  0  0  0  0  0  0  0  0
   -6.9111    5.7130  -20.7732 H   0  0  0  0  0  0  0  0  0  0  0  0
  1  2  1  0
  2  3  2  0
  3  4  1  0
  4  5  2  0
  4  6  1  0
  6  7  2  0
  7  8  1  0
  8  9  2  0
  9 10  1  0
 10 11  2  0
  5  1  1  0
 11  6  1  0
  2 12  1  0
  3 13  1  0
  5 14  1  0
  7 15  1  0
  8 16  1  0
  9 17  1  0
 11 18  1  0
A    1
 S1 
A    2
 C1 
A    3
 C2 
A    4
 C3 
A    5
 C4 
A    6
 C5 
A    7
 C6 
A    8
 C7 
A    9
 C8 
A   10
 N1 
A   11
 C9 
A   12
 H1 
A   13
 H2 
A   14
 H3 
A   15
 H4 
A   16
 H5 
A   17
 H6 
A   18
 H7 
M  END
>  <ref_pdb>  (135) 
x0051_0B

>  <ref_mols>  (135) 
x0680_0B,x0386_0B

>  <original SMILES>  (135) 
[H]c1nc([H])c(-c2c([H])sc([H])c2[H])c([H])c1[H]

>  <index>  (135) 
202

>  <∆∆G>  (135) 
-6.555143

>  <∆G_bound>  (135) 
-6.587405

>  <∆G_unbound>  (135) 
-0.032262

>  <comRMSD>  (135) 
0.662042

>  <N_constrained_atoms>  (135) 
13.0

>  <N_unconstrained_atoms>  (135) 
0.0

>  <runtime>  (135) 
20.755409

>  <LE>  (135) 
0.504242

>  <percent_hybrid>  (135) 
25.0

>  <dist>  (135) 
3.0

>  <ecfp4>  (135) 
0.2

>  <daylight>  (135) 
0.30597

>  <topodist>  (135) 
1.0

>  <mces>  (135) 
12.0

>  <tdn>  (135) 
1.0

>  <tup>  (135) 
0.0

>  <rdn>  (135) 
0.0

>  <rup>  (135) 
0.0

>  <ldn>  (135) 
0.0

>  <lup>  (135) 
0.0

>  <mut>  (135) 
2.0

>  <maj>  (135) 
1.0

>  <min>  (135) 
1.0

>  <hyb>  (135) 
0.0

>  <sub>  (135) 
1.0

>  <query_index>  (135) 
296.0

>  <max_hit_Tanimoto>  (135) 
0.141962

>  <largest_ring>  (135) 
6

>  <N_interactions_kept>  (135) 
3.5

>  <N_interactions_lost>  (135) 
0.5

>  <interaction_uniqueness_metric>  (135) 
0.016266

>  <ad_hoc_penalty>  (135) 
-27.04346

>  <N_rotatable_bonds>  (135) 
1

>  <N_HA>  (135) 
11

>  <cluster>  (135) 
6035

>  <N_interactions>  (135) 
3

>  <Enamine>  (135) 
1

>  <Mcule>  (135) 
0

>  <N_PAINS>  (135) 
0

>  <UFF_Gibbs>  (135) 
34.960188

>  <strain_per_HA>  (135) 
2.689245

>  <saltbridge:HIS:51>  (135) 
0

>  <pistack:HIS:51>  (135) 
0

>  <hydroph_interaction:HIS:51>  (135) 
0

>  <hbond:ALA:132>  (135) 
0

>  <hbond:SER:135>  (135) 
0

>  <hydroph_interaction:TYR:150>  (135) 
0

>  <pistack:TYR:161>  (135) 
0

>  <hydroph_interaction:TYR:161>  (135) 
3

>  <hydroph_interaction:ASP:83>  (135) 
0

>  <hbond:TYR:130>  (135) 
0

>  <hydroph_interaction:ALA:132>  (135) 
0

>  <hbond:HIS:51>  (135) 
0

>  <hbond:ASP:129>  (135) 
0

>  <hbond:TYR:150>  (135) 
0

>  <hbond:GLY:151>  (135) 
0

>  <hbond:TYR:161>  (135) 
0

>  <hydroph_interaction:TYR:130>  (135) 
0

>  <hydroph_interaction:PRO:131>  (135) 
0

>  <hydroph_interaction:ASP:129>  (135) 
0

>  <saltbridge:ASP:75>  (135) 
0

>  <saltbridge:ASP:83>  (135) 
0

>  <hydroph_interaction:ASN:152>  (135) 
0

>  <halogenbond:TYR:150>  (135) 
0

>  <hbond:ASP:83>  (135) 
0

>  <hydroph_interaction:VAL:155>  (135) 
0

>  <pication:TYR:161>  (135) 
0

>  <hbond:PRO:131>  (135) 
0

>  <hbond:LEU:128>  (135) 
0

>  <saltbridge:ASP:129>  (135) 
0

>  <hbond:THR:134>  (135) 
0

>  <pication:HIS:51>  (135) 
0

>  <hbond:SER:81>  (135) 
0

>  <hbond:GLY:159>  (135) 
0

>  <hydroph_interaction:PRO:101>  (135) 
0

>  <hydroph_interaction:THR:134>  (135) 
0

>  <hbond:GLY:82>  (135) 
0

>  <hydroph_interaction:GLU:104>  (135) 
0

>  <hydroph_interaction:VAL:36>  (135) 
0

>  <hydroph_interaction:MET:49>  (135) 
0

>  <halogenbond:GLU:104>  (135) 
0

>  <hydroph_interaction:LYS:107>  (135) 
0

$$$$
Z27747936
     RDKit          3D

 46 49  0  0  0  0  0  0  0  0999 V2000
   -4.2615    6.3526  -21.4526 O   0  0  0  0  0  0  0  0  0  0  0  0
   -5.3781    6.9385  -21.4061 C   0  0  0  0  0  0  0  0  0  0  0  0
   -6.3928    6.4554  -20.5120 N   0  0  0  0  0  0  0  0  0  0  0  0
   -6.2312    5.1920  -19.7933 C   0  0  0  0  0  0  0  0  0  0  0  0
   -7.4530    4.8919  -18.9676 C   0  0  0  0  0  0  0  0  0  0  0  0
   -7.5380    5.3389  -17.6386 C   0  0  0  0  0  0  0  0  0  0  0  0
   -8.6904    5.0925  -16.8856 C   0  0  0  0  0  0  0  0  0  0  0  0
   -9.7680    4.4100  -17.4570 C   0  0  0  0  0  0  0  0  0  0  0  0
   -9.6969    3.9768  -18.7839 C   0  0  0  0  0  0  0  0  0  0  0  0
   -8.5463    4.2211  -19.5403 C   0  0  0  0  0  0  0  0  0  0  0  0
   -5.6129    8.1242  -22.2654 C   0  0  0  0  0  0  0  0  0  0  0  0
   -6.9140    8.5017  -22.6442 C   0  0  0  0  0  0  0  0  0  0  0  0
   -7.1190    9.6152  -23.4634 C   0  0  0  0  0  0  0  0  0  0  0  0
   -6.0285   10.3670  -23.9260 C   0  0  0  0  0  0  0  0  0  0  0  0
   -6.2443   11.5368  -24.8475 C   0  0  0  0  0  0  0  0  0  0  0  0
   -5.7873   11.1135  -26.5657 S   0  0  0  0  0  0  0  0  0  0  0  0
   -7.1242    9.9419  -26.7891 C   0  0  0  0  0  0  0  0  0  0  0  0
   -6.9808    8.6096  -26.5626 N   0  0  0  0  0  0  0  0  0  0  0  0
   -8.2154    8.1372  -26.8091 C   0  0  0  0  0  0  0  0  0  0  0  0
   -8.6577    6.8198  -26.7164 C   0  0  0  0  0  0  0  0  0  0  0  0
  -10.0106    6.5624  -27.0111 C   0  0  0  0  0  0  0  0  0  0  0  0
  -10.8758    7.6174  -27.3841 C   0  0  0  0  0  0  0  0  0  0  0  0
  -10.3953    8.9382  -27.4653 C   0  0  0  0  0  0  0  0  0  0  0  0
   -9.0514    9.1525  -27.1685 C   0  0  0  0  0  0  0  0  0  0  0  0
   -8.3738   10.3063  -27.1639 N   0  0  0  0  0  0  0  0  0  0  0  0
   -4.7292    9.9862  -23.5628 C   0  0  0  0  0  0  0  0  0  0  0  0
   -4.5227    8.8745  -22.7413 C   0  0  0  0  0  0  0  0  0  0  0  0
   -7.2379    7.0424  -20.3293 H   0  0  0  0  0  0  0  0  0  0  0  0
   -5.3334    5.2495  -19.1399 H   0  0  0  0  0  0  0  0  0  0  0  0
   -6.0632    4.3709  -20.5240 H   0  0  0  0  0  0  0  0  0  0  0  0
   -6.7141    5.8780  -17.1874 H   0  0  0  0  0  0  0  0  0  0  0  0
   -8.7496    5.4342  -15.8603 H   0  0  0  0  0  0  0  0  0  0  0  0
  -10.6598    4.2214  -16.8734 H   0  0  0  0  0  0  0  0  0  0  0  0
  -10.5350    3.4552  -19.2278 H   0  0  0  0  0  0  0  0  0  0  0  0
   -8.5076    3.8898  -20.5707 H   0  0  0  0  0  0  0  0  0  0  0  0
   -7.7754    7.9244  -22.3364 H   0  0  0  0  0  0  0  0  0  0  0  0
   -8.1289    9.8784  -23.7537 H   0  0  0  0  0  0  0  0  0  0  0  0
   -7.2999   11.8839  -24.8169 H   0  0  0  0  0  0  0  0  0  0  0  0
   -5.6108   12.3864  -24.5157 H   0  0  0  0  0  0  0  0  0  0  0  0
   -7.9868    6.0219  -26.4254 H   0  0  0  0  0  0  0  0  0  0  0  0
  -10.3908    5.5511  -26.9497 H   0  0  0  0  0  0  0  0  0  0  0  0
  -11.9140    7.4085  -27.6068 H   0  0  0  0  0  0  0  0  0  0  0  0
  -11.0467    9.7557  -27.7458 H   0  0  0  0  0  0  0  0  0  0  0  0
   -8.7280   11.2647  -27.3790 H   0  0  0  0  0  0  0  0  0  0  0  0
   -3.8753   10.5475  -23.9218 H   0  0  0  0  0  0  0  0  0  0  0  0
   -3.5086    8.6047  -22.4734 H   0  0  0  0  0  0  0  0  0  0  0  0
  1  2  2  0
  2  3  1  0
  3  4  1  0
  4  5  1  0
  5  6  2  0
  6  7  1  0
  7  8  2  0
  8  9  1  0
  9 10  2  0
  2 11  1  0
 11 12  2  0
 12 13  1  0
 13 14  2  0
 14 15  1  0
 15 16  1  0
 16 17  1  0
 17 18  2  0
 18 19  1  0
 19 20  2  0
 20 21  1  0
 21 22  2  0
 22 23  1  0
 23 24  2  0
 24 25  1  0
 14 26  1  0
 26 27  2  0
 10  5  1  0
 27 11  1  0
 25 17  1  0
 24 19  1  0
  3 28  1  0
  4 29  1  0
  4 30  1  0
  6 31  1  0
  7 32  1  0
  8 33  1  0
  9 34  1  0
 10 35  1  0
 12 36  1  0
 13 37  1  0
 15 38  1  0
 15 39  1  0
 20 40  1  0
 21 41  1  0
 22 42  1  0
 23 43  1  0
 25 44  1  0
 26 45  1  0
 27 46  1  0
A    1
 O1 
A    2
 C1 
A    3
 N1 
A    4
 C2 
A    5
 C3 
A    6
 C4 
A    7
 C5 
A    8
 C6 
A    9
 C7 
A   10
 C8 
A   11
 C9 
A   12
 C10
A   13
 C11
A   14
 C12
A   15
 C13
A   16
 S1 
A   17
 C14
A   18
 N2 
A   19
 C15
A   20
 C16
A   21
 C17
A   22
 C18
A   23
 C19
A   24
 C20
A   25
 N3 
A   26
 C21
A   27
 C22
A   28
 H1 
A   29
 H2 
A   30
 H3 
A   31
 H4 
A   32
 H5 
A   33
 H6 
A   34
 H7 
A   35
 H8 
A   36
 H9 
A   37
 H10
A   38
 H11
A   39
 H12
A   40
 H13
A   41
 H14
A   42
 H15
A   43
 H16
A   44
 H17
A   45
 H18
A   46
 H19
M  END
>  <ref_pdb>  (136) 
x0051_0B

>  <ref_mols>  (136) 
x0589_0B,x0846_1B

>  <original SMILES>  (136) 
[H]c1c([H])c([H])c(C([H])([H])N([H])C(=O)c2c([H])c([H])c(C([H])([H])Sc3nc4c([H])c([H])c([H])c([H])c4n3[H])c([H])c2[H])c([H])c1[H]

>  <index>  (136) 
311

>  <∆∆G>  (136) 
-9.526142

>  <∆G_bound>  (136) 
-9.117528

>  <∆G_unbound>  (136) 
0.408614

>  <comRMSD>  (136) 
0.622604

>  <N_constrained_atoms>  (136) 
26.0

>  <N_unconstrained_atoms>  (136) 
2.0

>  <runtime>  (136) 
54.841311

>  <LE>  (136) 
0.340219

>  <percent_hybrid>  (136) 
31.0

>  <dist>  (136) 
6.0

>  <ecfp4>  (136) 
0.319444

>  <daylight>  (136) 
0.320225

>  <topodist>  (136) 
3.0

>  <mces>  (136) 
29.0

>  <tdn>  (136) 
2.0

>  <tup>  (136) 
1.0

>  <rdn>  (136) 
0.0

>  <rup>  (136) 
0.0

>  <ldn>  (136) 
0.0

>  <lup>  (136) 
0.0

>  <mut>  (136) 
2.0

>  <maj>  (136) 
2.0

>  <min>  (136) 
0.0

>  <hyb>  (136) 
1.0

>  <sub>  (136) 
2.0

>  <query_index>  (136) 
340.0

>  <max_hit_Tanimoto>  (136) 
0.325301

>  <largest_ring>  (136) 
6

>  <N_interactions_kept>  (136) 
0.0

>  <N_interactions_lost>  (136) 
2.0

>  <interaction_uniqueness_metric>  (136) 
0.197174

>  <ad_hoc_penalty>  (136) 
-27.034618

>  <N_rotatable_bonds>  (136) 
6

>  <N_HA>  (136) 
27

>  <cluster>  (136) 
107

>  <N_interactions>  (136) 
6

>  <Enamine>  (136) 
1

>  <Mcule>  (136) 
0

>  <N_PAINS>  (136) 
0

>  <UFF_Gibbs>  (136) 
56.35225

>  <strain_per_HA>  (136) 
2.01258

>  <saltbridge:HIS:51>  (136) 
0

>  <pistack:HIS:51>  (136) 
0

>  <hydroph_interaction:HIS:51>  (136) 
0

>  <hbond:ALA:132>  (136) 
0

>  <hbond:SER:135>  (136) 
0

>  <hydroph_interaction:TYR:150>  (136) 
1

>  <pistack:TYR:161>  (136) 
1

>  <hydroph_interaction:TYR:161>  (136) 
0

>  <hydroph_interaction:ASP:83>  (136) 
0

>  <hbond:TYR:130>  (136) 
1

>  <hydroph_interaction:ALA:132>  (136) 
0

>  <hbond:HIS:51>  (136) 
0

>  <hbond:ASP:129>  (136) 
1

>  <hbond:TYR:150>  (136) 
0

>  <hbond:GLY:151>  (136) 
0

>  <hbond:TYR:161>  (136) 
0

>  <hydroph_interaction:TYR:130>  (136) 
1

>  <hydroph_interaction:PRO:131>  (136) 
1

>  <hydroph_interaction:ASP:129>  (136) 
0

>  <saltbridge:ASP:75>  (136) 
0

>  <saltbridge:ASP:83>  (136) 
0

>  <hydroph_interaction:ASN:152>  (136) 
0

>  <halogenbond:TYR:150>  (136) 
0

>  <hbond:ASP:83>  (136) 
0

>  <hydroph_interaction:VAL:155>  (136) 
0

>  <pication:TYR:161>  (136) 
0

>  <hbond:PRO:131>  (136) 
0

>  <hbond:LEU:128>  (136) 
0

>  <saltbridge:ASP:129>  (136) 
0

>  <hbond:THR:134>  (136) 
0

>  <pication:HIS:51>  (136) 
0

>  <hbond:SER:81>  (136) 
0

>  <hbond:GLY:159>  (136) 
0

>  <hydroph_interaction:PRO:101>  (136) 
0

>  <hydroph_interaction:THR:134>  (136) 
0

>  <hbond:GLY:82>  (136) 
0

>  <hydroph_interaction:GLU:104>  (136) 
0

>  <hydroph_interaction:VAL:36>  (136) 
0

>  <hydroph_interaction:MET:49>  (136) 
0

>  <halogenbond:GLU:104>  (136) 
0

>  <hydroph_interaction:LYS:107>  (136) 
0

$$$$
PV-002821242423
     RDKit          3D

 43 46  0  0  0  0  0  0  0  0999 V2000
   -3.0575    6.5806  -17.0927 N   0  0  0  0  0  0  0  0  0  0  0  0
   -4.4051    6.1312  -16.9266 C   0  0  0  0  0  0  0  0  0  0  0  0
   -4.8131    5.8483  -15.7677 O   0  0  0  0  0  0  0  0  0  0  0  0
   -5.3198    5.9761  -18.0843 C   0  0  0  0  0  0  0  0  0  0  0  0
   -6.4199    5.1059  -17.9948 C   0  0  0  0  0  0  0  0  0  0  0  0
   -7.2885    4.9487  -19.0760 C   0  0  0  0  0  0  0  0  0  0  0  0
   -7.0776    5.6618  -20.2566 C   0  0  0  0  0  0  0  0  0  0  0  0
   -5.9942    6.5499  -20.3673 C   0  0  0  0  0  0  0  0  0  0  0  0
   -5.7793    7.3201  -21.6190 C   0  0  0  0  0  0  0  0  0  0  0  0
   -5.9481    6.7067  -22.8728 C   0  0  0  0  0  0  0  0  0  0  0  0
   -5.7472    7.4309  -24.0513 C   0  0  0  0  0  0  0  0  0  0  0  0
   -5.3772    8.7877  -23.9975 C   0  0  0  0  0  0  0  0  0  0  0  0
   -5.1700    9.5636  -25.1500 O   0  0  0  0  0  0  0  0  0  0  0  0
   -5.3821    9.1206  -26.4903 C   0  0  0  0  0  0  0  0  0  0  0  0
   -6.8420    8.9213  -26.7555 C   0  0  0  0  0  0  0  0  0  0  0  0
   -7.3394    7.8073  -27.3561 N   0  0  0  0  0  0  0  0  0  0  0  0
   -8.6599    8.0599  -27.3979 C   0  0  0  0  0  0  0  0  0  0  0  0
   -9.6678    7.2467  -27.9110 C   0  0  0  0  0  0  0  0  0  0  0  0
  -10.9908    7.7250  -27.8448 C   0  0  0  0  0  0  0  0  0  0  0  0
  -11.2678    8.9894  -27.2745 C   0  0  0  0  0  0  0  0  0  0  0  0
  -10.2241    9.7856  -26.7657 C   0  0  0  0  0  0  0  0  0  0  0  0
   -8.9295    9.2781  -26.8488 C   0  0  0  0  0  0  0  0  0  0  0  0
   -7.7870    9.8413  -26.4394 N   0  0  0  0  0  0  0  0  0  0  0  0
   -5.2059    9.3971  -22.7503 C   0  0  0  0  0  0  0  0  0  0  0  0
   -5.4047    8.6743  -21.5709 C   0  0  0  0  0  0  0  0  0  0  0  0
   -5.1207    6.7026  -19.2738 C   0  0  0  0  0  0  0  0  0  0  0  0
   -2.4552    6.7389  -16.2546 H   0  0  0  0  0  0  0  0  0  0  0  0
   -2.6200    6.6708  -18.0354 H   0  0  0  0  0  0  0  0  0  0  0  0
   -6.6025    4.5373  -17.0913 H   0  0  0  0  0  0  0  0  0  0  0  0
   -8.1305    4.2731  -18.9973 H   0  0  0  0  0  0  0  0  0  0  0  0
   -7.7749    5.5358  -21.0754 H   0  0  0  0  0  0  0  0  0  0  0  0
   -6.2185    5.6604  -22.9422 H   0  0  0  0  0  0  0  0  0  0  0  0
   -5.8783    6.9229  -24.9960 H   0  0  0  0  0  0  0  0  0  0  0  0
   -5.0032    9.8985  -27.1848 H   0  0  0  0  0  0  0  0  0  0  0  0
   -4.8109    8.1872  -26.6826 H   0  0  0  0  0  0  0  0  0  0  0  0
   -9.4432    6.2810  -28.3449 H   0  0  0  0  0  0  0  0  0  0  0  0
  -11.8005    7.1211  -28.2330 H   0  0  0  0  0  0  0  0  0  0  0  0
  -12.2880    9.3473  -27.2288 H   0  0  0  0  0  0  0  0  0  0  0  0
  -10.4211   10.7550  -26.3266 H   0  0  0  0  0  0  0  0  0  0  0  0
   -7.6552   10.7704  -25.9810 H   0  0  0  0  0  0  0  0  0  0  0  0
   -4.9235   10.4409  -22.6949 H   0  0  0  0  0  0  0  0  0  0  0  0
   -5.2838    9.1804  -20.6214 H   0  0  0  0  0  0  0  0  0  0  0  0
   -4.2924    7.3933  -19.3540 H   0  0  0  0  0  0  0  0  0  0  0  0
  1  2  1  0
  2  3  2  0
  2  4  1  0
  4  5  2  0
  5  6  1  0
  6  7  2  0
  7  8  1  0
  8  9  1  0
  9 10  2  0
 10 11  1  0
 11 12  2  0
 12 13  1  0
 13 14  1  0
 14 15  1  0
 15 16  2  0
 16 17  1  0
 17 18  2  0
 18 19  1  0
 19 20  2  0
 20 21  1  0
 21 22  2  0
 22 23  1  0
 12 24  1  0
 24 25  2  0
  8 26  2  0
 26  4  1  0
 25  9  1  0
 23 15  1  0
 22 17  1  0
  1 27  1  0
  1 28  1  0
  5 29  1  0
  6 30  1  0
  7 31  1  0
 10 32  1  0
 11 33  1  0
 14 34  1  0
 14 35  1  0
 18 36  1  0
 19 37  1  0
 20 38  1  0
 21 39  1  0
 23 40  1  0
 24 41  1  0
 25 42  1  0
 26 43  1  0
A    1
 N1 
A    2
 C1 
A    3
 O1 
A    4
 C2 
A    5
 C3 
A    6
 C4 
A    7
 C5 
A    8
 C6 
A    9
 C7 
A   10
 C8 
A   11
 C9 
A   12
 C10
A   13
 O2 
A   14
 C11
A   15
 C12
A   16
 N2 
A   17
 C13
A   18
 C14
A   19
 C15
A   20
 C16
A   21
 C17
A   22
 C18
A   23
 N3 
A   24
 C19
A   25
 C20
A   26
 C21
A   27
 H1 
A   28
 H2 
A   29
 H3 
A   30
 H4 
A   31
 H5 
A   32
 H6 
A   33
 H7 
A   34
 H8 
A   35
 H9 
A   36
 H10
A   37
 H11
A   38
 H12
A   39
 H13
A   40
 H14
A   41
 H15
A   42
 H16
A   43
 H17
M  END
>  <ref_pdb>  (137) 
x0051_0B

>  <ref_mols>  (137) 
x0846_1B,x0425_0B

>  <original SMILES>  (137) 
[H]c1c([H])c(C(=O)N([H])[H])c([H])c(-c2c([H])c([H])c(OC([H])([H])c3nc4c([H])c([H])c([H])c([H])c4n3[H])c([H])c2[H])c1[H]

>  <index>  (137) 
240

>  <∆∆G>  (137) 
-7.316653

>  <∆G_bound>  (137) 
-6.876471

>  <∆G_unbound>  (137) 
0.440182

>  <comRMSD>  (137) 
0.883843

>  <N_constrained_atoms>  (137) 
27.0

>  <N_unconstrained_atoms>  (137) 
1.0

>  <runtime>  (137) 
38.063365

>  <LE>  (137) 
0.261309

>  <percent_hybrid>  (137) 
34.0

>  <dist>  (137) 
10.0

>  <ecfp4>  (137) 
0.238636

>  <daylight>  (137) 
0.300926

>  <topodist>  (137) 
4.0

>  <mces>  (137) 
29.0

>  <tdn>  (137) 
3.0

>  <tup>  (137) 
0.0

>  <rdn>  (137) 
0.0

>  <rup>  (137) 
0.0

>  <ldn>  (137) 
1.0

>  <lup>  (137) 
0.0

>  <mut>  (137) 
6.0

>  <maj>  (137) 
6.0

>  <min>  (137) 
0.0

>  <hyb>  (137) 
0.0

>  <sub>  (137) 
2.0

>  <query_index>  (137) 
25.0

>  <max_hit_Tanimoto>  (137) 
0.355337

>  <largest_ring>  (137) 
6

>  <N_interactions_kept>  (137) 
1.0

>  <N_interactions_lost>  (137) 
1.5

>  <interaction_uniqueness_metric>  (137) 
0.143377

>  <ad_hoc_penalty>  (137) 
-26.99471

>  <N_rotatable_bonds>  (137) 
5

>  <N_HA>  (137) 
26

>  <cluster>  (137) 
6000

>  <N_interactions>  (137) 
6

>  <Enamine>  (137) 
1

>  <Mcule>  (137) 
0

>  <N_PAINS>  (137) 
0

>  <UFF_Gibbs>  (137) 
86.187469

>  <strain_per_HA>  (137) 
3.078124

>  <saltbridge:HIS:51>  (137) 
0

>  <pistack:HIS:51>  (137) 
0

>  <hydroph_interaction:HIS:51>  (137) 
0

>  <hbond:ALA:132>  (137) 
0

>  <hbond:SER:135>  (137) 
0

>  <hydroph_interaction:TYR:150>  (137) 
0

>  <pistack:TYR:161>  (137) 
0

>  <hydroph_interaction:TYR:161>  (137) 
3

>  <hydroph_interaction:ASP:83>  (137) 
0

>  <hbond:TYR:130>  (137) 
0

>  <hydroph_interaction:ALA:132>  (137) 
1

>  <hbond:HIS:51>  (137) 
0

>  <hbond:ASP:129>  (137) 
0

>  <hbond:TYR:150>  (137) 
0

>  <hbond:GLY:151>  (137) 
0

>  <hbond:TYR:161>  (137) 
0

>  <hydroph_interaction:TYR:130>  (137) 
1

>  <hydroph_interaction:PRO:131>  (137) 
1

>  <hydroph_interaction:ASP:129>  (137) 
0

>  <saltbridge:ASP:75>  (137) 
0

>  <saltbridge:ASP:83>  (137) 
0

>  <hydroph_interaction:ASN:152>  (137) 
0

>  <halogenbond:TYR:150>  (137) 
0

>  <hbond:ASP:83>  (137) 
0

>  <hydroph_interaction:VAL:155>  (137) 
0

>  <pication:TYR:161>  (137) 
0

>  <hbond:PRO:131>  (137) 
0

>  <hbond:LEU:128>  (137) 
0

>  <saltbridge:ASP:129>  (137) 
0

>  <hbond:THR:134>  (137) 
0

>  <pication:HIS:51>  (137) 
0

>  <hbond:SER:81>  (137) 
0

>  <hbond:GLY:159>  (137) 
0

>  <hydroph_interaction:PRO:101>  (137) 
0

>  <hydroph_interaction:THR:134>  (137) 
0

>  <hbond:GLY:82>  (137) 
0

>  <hydroph_interaction:GLU:104>  (137) 
0

>  <hydroph_interaction:VAL:36>  (137) 
0

>  <hydroph_interaction:MET:49>  (137) 
0

>  <halogenbond:GLU:104>  (137) 
0

>  <hydroph_interaction:LYS:107>  (137) 
0

$$$$
MCULE-4315249704
     RDKit          3D

 46 48  0  0  0  0  0  0  0  0999 V2000
   -8.6644    5.9176  -14.0460 C   0  0  0  0  0  0  0  0  0  0  0  0
   -8.7030    5.3984  -12.6573 C   0  0  0  0  0  0  0  0  0  0  0  0
   -9.1541    6.2189  -11.6085 C   0  0  0  0  0  0  0  0  0  0  0  0
   -9.1972    5.7370  -10.2974 C   0  0  0  0  0  0  0  0  0  0  0  0
   -8.7943    4.4240  -10.0078 C   0  0  0  0  0  0  0  0  0  0  0  0
   -8.8500    3.9245   -8.6580 N   0  0  0  0  0  0  0  0  0  0  0  0
   -9.5388    2.6606   -8.3730 C   0  0  0  0  0  0  0  0  0  0  0  0
   -9.6236    2.4056   -6.8587 C   0  0  0  0  0  0  0  0  0  0  0  0
  -10.0792    3.5992   -6.1071 N   0  0  0  0  0  0  0  0  0  0  0  0
  -11.5454    3.7334   -6.1441 C   0  0  0  0  0  0  0  0  0  0  0  0
   -9.4030    4.8739   -6.4770 C   0  0  0  0  0  0  0  0  0  0  0  0
   -8.3120    4.7045   -7.5406 C   0  0  0  0  0  0  0  0  0  0  0  0
   -8.3621    3.5965  -11.0556 C   0  0  0  0  0  0  0  0  0  0  0  0
   -8.3162    4.0779  -12.3671 C   0  0  0  0  0  0  0  0  0  0  0  0
   -9.3524    6.9313  -14.3481 O   0  0  0  0  0  0  0  0  0  0  0  0
   -7.8217    5.3089  -15.0393 N   0  0  0  0  0  0  0  0  0  0  0  0
   -7.9974    5.5141  -16.4526 C   0  0  0  0  0  0  0  0  0  0  0  0
   -6.8798    5.5969  -17.3079 C   0  0  0  0  0  0  0  0  0  0  0  0
   -5.0861    5.5304  -16.6341 Br  0  0  0  0  0  0  0  0  0  0  0  0
   -7.0636    5.7595  -18.6852 C   0  0  0  0  0  0  0  0  0  0  0  0
   -8.3495    5.8361  -19.2230 C   0  0  0  0  0  0  0  0  0  0  0  0
   -9.4701    5.7605  -18.3852 C   0  0  0  0  0  0  0  0  0  0  0  0
  -10.8527    5.7909  -18.9666 C   0  0  0  0  0  0  0  0  0  0  0  0
   -9.2896    5.5793  -17.0060 C   0  0  0  0  0  0  0  0  0  0  0  0
   -9.4689    7.2373  -11.8002 H   0  0  0  0  0  0  0  0  0  0  0  0
   -9.5622    6.3842   -9.5102 H   0  0  0  0  0  0  0  0  0  0  0  0
  -10.5651    2.6968   -8.7981 H   0  0  0  0  0  0  0  0  0  0  0  0
   -8.9943    1.8164   -8.8465 H   0  0  0  0  0  0  0  0  0  0  0  0
  -10.2868    1.5335   -6.6649 H   0  0  0  0  0  0  0  0  0  0  0  0
   -8.6180    2.1134   -6.4850 H   0  0  0  0  0  0  0  0  0  0  0  0
  -11.9033    3.9270   -7.1795 H   0  0  0  0  0  0  0  0  0  0  0  0
  -11.8666    4.5715   -5.4884 H   0  0  0  0  0  0  0  0  0  0  0  0
  -12.0289    2.8115   -5.7550 H   0  0  0  0  0  0  0  0  0  0  0  0
   -8.9424    5.3061   -5.5634 H   0  0  0  0  0  0  0  0  0  0  0  0
  -10.1277    5.6292   -6.8601 H   0  0  0  0  0  0  0  0  0  0  0  0
   -7.4422    4.1675   -7.1041 H   0  0  0  0  0  0  0  0  0  0  0  0
   -7.9486    5.7010   -7.8723 H   0  0  0  0  0  0  0  0  0  0  0  0
   -8.0489    2.5797  -10.8589 H   0  0  0  0  0  0  0  0  0  0  0  0
   -7.9956    3.4060  -13.1522 H   0  0  0  0  0  0  0  0  0  0  0  0
   -6.9942    4.7613  -14.7151 H   0  0  0  0  0  0  0  0  0  0  0  0
   -6.2064    5.8259  -19.3429 H   0  0  0  0  0  0  0  0  0  0  0  0
   -8.4708    5.9523  -20.2930 H   0  0  0  0  0  0  0  0  0  0  0  0
  -10.8690    6.3687  -19.9159 H   0  0  0  0  0  0  0  0  0  0  0  0
  -11.1909    4.7525  -19.1688 H   0  0  0  0  0  0  0  0  0  0  0  0
  -11.5619    6.2725  -18.2593 H   0  0  0  0  0  0  0  0  0  0  0  0
  -10.1571    5.4692  -16.3669 H   0  0  0  0  0  0  0  0  0  0  0  0
  1  2  1  0
  2  3  2  0
  3  4  1  0
  4  5  2  0
  5  6  1  0
  6  7  1  0
  7  8  1  0
  8  9  1  0
  9 10  1  0
  9 11  1  0
 11 12  1  0
  5 13  1  0
 13 14  2  0
  1 15  2  0
  1 16  1  0
 16 17  1  0
 17 18  2  0
 18 19  1  0
 18 20  1  0
 20 21  2  0
 21 22  1  0
 22 23  1  0
 22 24  2  0
  2 14  1  0
 12  6  1  0
 24 17  1  0
  3 25  1  0
  4 26  1  0
  7 27  1  0
  7 28  1  0
  8 29  1  0
  8 30  1  0
 10 31  1  0
 10 32  1  0
 10 33  1  0
 11 34  1  0
 11 35  1  0
 12 36  1  0
 12 37  1  0
 13 38  1  0
 14 39  1  0
 16 40  1  0
 20 41  1  0
 21 42  1  0
 23 43  1  0
 23 44  1  0
 23 45  1  0
 24 46  1  0
A    1
 C1 
A    2
 C2 
A    3
 C3 
A    4
 C4 
A    5
 C5 
A    6
 N1 
A    7
 C6 
A    8
 C7 
A    9
 N2 
A   10
 C8 
A   11
 C9 
A   12
 C10
A   13
 C11
A   14
 C12
A   15
 O1 
A   16
 N3 
A   17
 C13
A   18
 C14
A   19
BR1 
A   20
 C15
A   21
 C16
A   22
 C17
A   23
 C18
A   24
 C19
A   25
 H1 
A   26
 H2 
A   27
 H3 
A   28
 H4 
A   29
 H5 
A   30
 H6 
A   31
 H7 
A   32
 H8 
A   33
 H9 
A   34
 H10
A   35
 H11
A   36
 H12
A   37
 H13
A   38
 H14
A   39
 H15
A   40
 H16
A   41
 H17
A   42
 H18
A   43
 H19
A   44
 H20
A   45
 H21
A   46
 H22
M  END
>  <ref_pdb>  (138) 
x0051_0B

>  <ref_mols>  (138) 
x0553_0B,x0404_0B

>  <original SMILES>  (138) 
[H]c1c([H])c(C([H])([H])[H])c([H])c(N([H])C(=O)c2c([H])c([H])c(N3C([H])([H])C([H])([H])N(C([H])([H])[H])C([H])([H])C3([H])[H])c([H])c2[H])c1Br

>  <index>  (138) 
352

>  <∆∆G>  (138) 
-7.70777

>  <∆G_bound>  (138) 
-7.369694

>  <∆G_unbound>  (138) 
0.338076

>  <comRMSD>  (138) 
0.670397

>  <N_constrained_atoms>  (138) 
24.0

>  <N_unconstrained_atoms>  (138) 
1.0

>  <runtime>  (138) 
71.03751

>  <LE>  (138) 
0.308311

>  <percent_hybrid>  (138) 
38.0

>  <dist>  (138) 
8.0

>  <ecfp4>  (138) 
0.195122

>  <daylight>  (138) 
0.259459

>  <topodist>  (138) 
4.0

>  <mces>  (138) 
25.0

>  <tdn>  (138) 
2.0

>  <tup>  (138) 
1.0

>  <rdn>  (138) 
0.0

>  <rup>  (138) 
0.0

>  <ldn>  (138) 
1.0

>  <lup>  (138) 
0.0

>  <mut>  (138) 
2.0

>  <maj>  (138) 
2.0

>  <min>  (138) 
0.0

>  <hyb>  (138) 
2.0

>  <sub>  (138) 
1.0

>  <query_index>  (138) 
112.0

>  <max_hit_Tanimoto>  (138) 
0.301515

>  <largest_ring>  (138) 
6

>  <N_interactions_kept>  (138) 
1.0

>  <N_interactions_lost>  (138) 
2.5

>  <interaction_uniqueness_metric>  (138) 
0.353245

>  <ad_hoc_penalty>  (138) 
-26.954876

>  <N_rotatable_bonds>  (138) 
5

>  <N_HA>  (138) 
24

>  <cluster>  (138) 
5897

>  <N_interactions>  (138) 
7

>  <Enamine>  (138) 
0

>  <Mcule>  (138) 
1

>  <N_PAINS>  (138) 
0

>  <UFF_Gibbs>  (138) 
70.871108

>  <strain_per_HA>  (138) 
2.834844

>  <saltbridge:HIS:51>  (138) 
0

>  <pistack:HIS:51>  (138) 
1

>  <hydroph_interaction:HIS:51>  (138) 
1

>  <hbond:ALA:132>  (138) 
0

>  <hbond:SER:135>  (138) 
0

>  <hydroph_interaction:TYR:150>  (138) 
1

>  <pistack:TYR:161>  (138) 
1

>  <hydroph_interaction:TYR:161>  (138) 
0

>  <hydroph_interaction:ASP:83>  (138) 
0

>  <hbond:TYR:130>  (138) 
0

>  <hydroph_interaction:ALA:132>  (138) 
1

>  <hbond:HIS:51>  (138) 
0

>  <hbond:ASP:129>  (138) 
0

>  <hbond:TYR:150>  (138) 
0

>  <hbond:GLY:151>  (138) 
0

>  <hbond:TYR:161>  (138) 
0

>  <hydroph_interaction:TYR:130>  (138) 
0

>  <hydroph_interaction:PRO:131>  (138) 
0

>  <hydroph_interaction:ASP:129>  (138) 
0

>  <saltbridge:ASP:75>  (138) 
1

>  <saltbridge:ASP:83>  (138) 
1

>  <hydroph_interaction:ASN:152>  (138) 
0

>  <halogenbond:TYR:150>  (138) 
0

>  <hbond:ASP:83>  (138) 
0

>  <hydroph_interaction:VAL:155>  (138) 
0

>  <pication:TYR:161>  (138) 
0

>  <hbond:PRO:131>  (138) 
0

>  <hbond:LEU:128>  (138) 
0

>  <saltbridge:ASP:129>  (138) 
0

>  <hbond:THR:134>  (138) 
0

>  <pication:HIS:51>  (138) 
0

>  <hbond:SER:81>  (138) 
0

>  <hbond:GLY:159>  (138) 
0

>  <hydroph_interaction:PRO:101>  (138) 
0

>  <hydroph_interaction:THR:134>  (138) 
0

>  <hbond:GLY:82>  (138) 
0

>  <hydroph_interaction:GLU:104>  (138) 
0

>  <hydroph_interaction:VAL:36>  (138) 
0

>  <hydroph_interaction:MET:49>  (138) 
0

>  <halogenbond:GLU:104>  (138) 
0

>  <hydroph_interaction:LYS:107>  (138) 
0

$$$$
Z2002649227
     RDKit          3D

 44 47  0  0  0  0  0  0  0  0999 V2000
   -8.9255    7.8921  -12.2406 O   0  0  0  0  0  0  0  0  0  0  0  0
   -8.8126    6.6856  -11.8901 C   0  0  0  0  0  0  0  0  0  0  0  0
   -8.7062    5.6784  -12.8528 O   0  0  0  0  0  0  0  0  0  0  0  0
   -8.7452    5.9422  -14.2523 C   0  0  0  0  0  0  0  0  0  0  0  0
   -8.5890    4.6308  -15.0429 C   0  0  0  0  0  0  0  0  0  0  0  0
   -7.2389    3.9356  -14.7596 C   0  0  0  0  0  0  0  0  0  0  0  0
   -6.0890    4.5959  -15.5241 C   0  0  0  0  0  0  0  0  0  0  0  0
   -6.3205    4.5016  -17.0335 C   0  0  0  0  0  0  0  0  0  0  0  0
   -7.7163    4.9109  -17.4353 C   0  0  0  0  0  0  0  0  0  0  0  0
   -7.9810    5.2034  -18.7808 C   0  0  0  0  0  0  0  0  0  0  0  0
   -9.2805    5.4952  -19.1940 C   0  0  0  0  0  0  0  0  0  0  0  0
  -10.3140    5.4784  -18.2591 C   0  0  0  0  0  0  0  0  0  0  0  0
  -10.0510    5.1833  -16.9595 N   0  0  0  0  0  0  0  0  0  0  0  0
   -8.7945    4.8921  -16.5196 C   0  0  0  0  0  0  0  0  0  0  0  0
   -8.8022    6.3423  -10.4593 C   0  0  0  0  0  0  0  0  0  0  0  0
   -8.6865    5.0967   -9.8683 C   0  0  0  0  0  0  0  0  0  0  0  0
   -8.5840    3.7524  -10.5317 C   0  0  0  0  0  0  0  0  0  0  0  0
   -8.1872    2.6713   -9.5131 C   0  0  0  0  0  0  0  0  0  0  0  0
   -8.9743    2.8150   -8.2012 C   0  0  0  0  0  0  0  0  0  0  0  0
   -8.6972    4.1780   -7.5486 C   0  0  0  0  0  0  0  0  0  0  0  0
   -8.8013    5.2503   -8.5362 N   0  0  0  0  0  0  0  0  0  0  0  0
   -8.9398    6.5318   -8.2365 N   0  0  0  0  0  0  0  0  0  0  0  0
   -8.9495    7.2206   -9.3968 C   0  0  0  0  0  0  0  0  0  0  0  0
   -9.7244    6.4091  -14.4983 H   0  0  0  0  0  0  0  0  0  0  0  0
   -7.9429    6.6613  -14.5229 H   0  0  0  0  0  0  0  0  0  0  0  0
   -9.3946    3.9414  -14.7052 H   0  0  0  0  0  0  0  0  0  0  0  0
   -7.0115    3.9451  -13.6729 H   0  0  0  0  0  0  0  0  0  0  0  0
   -7.3090    2.8682  -15.0659 H   0  0  0  0  0  0  0  0  0  0  0  0
   -5.1372    4.0814  -15.2699 H   0  0  0  0  0  0  0  0  0  0  0  0
   -5.9834    5.6599  -15.2241 H   0  0  0  0  0  0  0  0  0  0  0  0
   -6.1540    3.4527  -17.3621 H   0  0  0  0  0  0  0  0  0  0  0  0
   -5.5740    5.1442  -17.5492 H   0  0  0  0  0  0  0  0  0  0  0  0
   -7.1811    5.1968  -19.5112 H   0  0  0  0  0  0  0  0  0  0  0  0
   -9.4859    5.7243  -20.2316 H   0  0  0  0  0  0  0  0  0  0  0  0
  -11.3272    5.7013  -18.5657 H   0  0  0  0  0  0  0  0  0  0  0  0
   -7.8206    3.7834  -11.3362 H   0  0  0  0  0  0  0  0  0  0  0  0
   -9.5684    3.4984  -10.9800 H   0  0  0  0  0  0  0  0  0  0  0  0
   -7.0985    2.7475   -9.2976 H   0  0  0  0  0  0  0  0  0  0  0  0
   -8.3775    1.6678   -9.9510 H   0  0  0  0  0  0  0  0  0  0  0  0
  -10.0623    2.7173   -8.4101 H   0  0  0  0  0  0  0  0  0  0  0  0
   -8.6823    2.0037   -7.5003 H   0  0  0  0  0  0  0  0  0  0  0  0
   -7.6729    4.1820   -7.1175 H   0  0  0  0  0  0  0  0  0  0  0  0
   -9.4261    4.3510   -6.7279 H   0  0  0  0  0  0  0  0  0  0  0  0
   -9.0671    8.2941   -9.4635 H   0  0  0  0  0  0  0  0  0  0  0  0
  1  2  2  0
  2  3  1  0
  3  4  1  0
  4  5  1  0
  5  6  1  0
  6  7  1  0
  7  8  1  0
  8  9  1  0
  9 10  2  0
 10 11  1  0
 11 12  2  0
 12 13  1  0
 13 14  2  0
  2 15  1  0
 15 16  2  0
 16 17  1  0
 17 18  1  0
 18 19  1  0
 19 20  1  0
 20 21  1  0
 21 22  1  0
 22 23  2  0
 14  5  1  0
 14  9  1  0
 23 15  1  0
 21 16  1  0
  4 24  1  0
  4 25  1  0
  5 26  1  0
  6 27  1  0
  6 28  1  0
  7 29  1  0
  7 30  1  0
  8 31  1  0
  8 32  1  0
 10 33  1  0
 11 34  1  0
 12 35  1  0
 17 36  1  0
 17 37  1  0
 18 38  1  0
 18 39  1  0
 19 40  1  0
 19 41  1  0
 20 42  1  0
 20 43  1  0
 23 44  1  0
A    1
 O1 
A    2
 C1 
A    3
 O2 
A    4
 C2 
A    5
 C3 
A    6
 C4 
A    7
 C5 
A    8
 C6 
A    9
 C7 
A   10
 C8 
A   11
 C9 
A   12
 C10
A   13
 N1 
A   14
 C11
A   15
 C12
A   16
 C13
A   17
 C14
A   18
 C15
A   19
 C16
A   20
 C17
A   21
 N2 
A   22
 N3 
A   23
 C18
A   24
 H1 
A   25
 H2 
A   26
 H3 
A   27
 H4 
A   28
 H5 
A   29
 H6 
A   30
 H7 
A   31
 H8 
A   32
 H9 
A   33
 H10
A   34
 H11
A   35
 H12
A   36
 H13
A   37
 H14
A   38
 H15
A   39
 H16
A   40
 H17
A   41
 H18
A   42
 H19
A   43
 H20
A   44
 H21
M  END
>  <ref_pdb>  (139) 
x0051_0B

>  <ref_mols>  (139) 
x0969_1B,x0455_0B

>  <original SMILES>  (139) 
[H]c1nc2c(c([H])c1[H])C([H])([H])C([H])([H])C([H])([H])C2([H])C([H])([H])OC(=O)c1c([H])nn2c1C([H])([H])C([H])([H])C([H])([H])C2([H])[H]

>  <index>  (139) 
159

>  <∆∆G>  (139) 
-6.572188

>  <∆G_bound>  (139) 
-5.497273

>  <∆G_unbound>  (139) 
1.074915

>  <comRMSD>  (139) 
0.310222

>  <N_constrained_atoms>  (139) 
20.0

>  <N_unconstrained_atoms>  (139) 
3.0

>  <runtime>  (139) 
63.448658

>  <LE>  (139) 
0.285747

>  <percent_hybrid>  (139) 
50.0

>  <dist>  (139) 
4.0

>  <ecfp4>  (139) 
0.379747

>  <daylight>  (139) 
0.422414

>  <topodist>  (139) 
1.0

>  <mces>  (139) 
25.0

>  <tdn>  (139) 
0.0

>  <tup>  (139) 
1.0

>  <rdn>  (139) 
0.0

>  <rup>  (139) 
0.0

>  <ldn>  (139) 
0.0

>  <lup>  (139) 
0.0

>  <mut>  (139) 
2.0

>  <maj>  (139) 
2.0

>  <min>  (139) 
0.0

>  <hyb>  (139) 
1.0

>  <sub>  (139) 
0.0

>  <query_index>  (139) 
204.0

>  <max_hit_Tanimoto>  (139) 
0.291191

>  <largest_ring>  (139) 
6

>  <N_interactions_kept>  (139) 
1.5

>  <N_interactions_lost>  (139) 
1.0

>  <interaction_uniqueness_metric>  (139) 
0.225939

>  <ad_hoc_penalty>  (139) 
-26.910602

>  <N_rotatable_bonds>  (139) 
3

>  <N_HA>  (139) 
23

>  <cluster>  (139) 
6073

>  <N_interactions>  (139) 
5

>  <Enamine>  (139) 
1

>  <Mcule>  (139) 
0

>  <N_PAINS>  (139) 
0

>  <UFF_Gibbs>  (139) 
140.666274

>  <strain_per_HA>  (139) 
6.115925

>  <saltbridge:HIS:51>  (139) 
1

>  <pistack:HIS:51>  (139) 
1

>  <hydroph_interaction:HIS:51>  (139) 
0

>  <hbond:ALA:132>  (139) 
0

>  <hbond:SER:135>  (139) 
0

>  <hydroph_interaction:TYR:150>  (139) 
1

>  <pistack:TYR:161>  (139) 
0

>  <hydroph_interaction:TYR:161>  (139) 
1

>  <hydroph_interaction:ASP:83>  (139) 
1

>  <hbond:TYR:130>  (139) 
0

>  <hydroph_interaction:ALA:132>  (139) 
0

>  <hbond:HIS:51>  (139) 
0

>  <hbond:ASP:129>  (139) 
0

>  <hbond:TYR:150>  (139) 
0

>  <hbond:GLY:151>  (139) 
0

>  <hbond:TYR:161>  (139) 
0

>  <hydroph_interaction:TYR:130>  (139) 
0

>  <hydroph_interaction:PRO:131>  (139) 
0

>  <hydroph_interaction:ASP:129>  (139) 
0

>  <saltbridge:ASP:75>  (139) 
0

>  <saltbridge:ASP:83>  (139) 
0

>  <hydroph_interaction:ASN:152>  (139) 
0

>  <halogenbond:TYR:150>  (139) 
0

>  <hbond:ASP:83>  (139) 
0

>  <hydroph_interaction:VAL:155>  (139) 
0

>  <pication:TYR:161>  (139) 
0

>  <hbond:PRO:131>  (139) 
0

>  <hbond:LEU:128>  (139) 
0

>  <saltbridge:ASP:129>  (139) 
0

>  <hbond:THR:134>  (139) 
0

>  <pication:HIS:51>  (139) 
0

>  <hbond:SER:81>  (139) 
0

>  <hbond:GLY:159>  (139) 
0

>  <hydroph_interaction:PRO:101>  (139) 
0

>  <hydroph_interaction:THR:134>  (139) 
0

>  <hbond:GLY:82>  (139) 
0

>  <hydroph_interaction:GLU:104>  (139) 
0

>  <hydroph_interaction:VAL:36>  (139) 
0

>  <hydroph_interaction:MET:49>  (139) 
0

>  <halogenbond:GLU:104>  (139) 
0

>  <hydroph_interaction:LYS:107>  (139) 
0

$$$$
KFWKCQOVLITCFV-UHFFFAOYSA-N
     RDKit          3D

 44 46  0  0  0  0  0  0  0  0999 V2000
   -8.6428    5.9789  -14.2215 C   0  0  0  0  0  0  0  0  0  0  0  0
   -7.7347    5.3944  -15.1706 N   0  0  0  0  0  0  0  0  0  0  0  0
   -7.9246    5.4589  -16.5954 C   0  0  0  0  0  0  0  0  0  0  0  0
   -9.2141    5.4230  -17.1584 C   0  0  0  0  0  0  0  0  0  0  0  0
   -9.3870    5.4760  -18.5504 C   0  0  0  0  0  0  0  0  0  0  0  0
  -10.7621    5.4015  -19.1453 C   0  0  0  0  0  0  0  0  0  0  0  0
   -8.2609    5.5217  -19.3845 C   0  0  0  0  0  0  0  0  0  0  0  0
   -6.9780    5.5370  -18.8332 C   0  0  0  0  0  0  0  0  0  0  0  0
   -6.8072    5.5017  -17.4466 C   0  0  0  0  0  0  0  0  0  0  0  0
   -5.5516    5.5200  -16.9324 F   0  0  0  0  0  0  0  0  0  0  0  0
   -9.4238    6.8987  -14.5899 O   0  0  0  0  0  0  0  0  0  0  0  0
   -8.6409    5.5493  -12.8018 C   0  0  0  0  0  0  0  0  0  0  0  0
   -9.2060    6.3739  -11.8126 C   0  0  0  0  0  0  0  0  0  0  0  0
   -9.2128    5.9747  -10.4733 C   0  0  0  0  0  0  0  0  0  0  0  0
   -8.6615    4.7416  -10.0961 C   0  0  0  0  0  0  0  0  0  0  0  0
   -8.6769    4.3347   -8.7147 N   0  0  0  0  0  0  0  0  0  0  0  0
   -9.0018    2.9488   -8.3524 C   0  0  0  0  0  0  0  0  0  0  0  0
   -9.8276    2.9183   -7.0625 C   0  0  0  0  0  0  0  0  0  0  0  0
   -9.1431    3.7247   -5.9534 C   0  0  0  0  0  0  0  0  0  0  0  0
   -8.8861    5.1655   -6.4082 C   0  0  0  0  0  0  0  0  0  0  0  0
   -8.0551    5.1885   -7.6938 C   0  0  0  0  0  0  0  0  0  0  0  0
   -8.1092    3.9093  -11.0824 C   0  0  0  0  0  0  0  0  0  0  0  0
   -8.0998    4.3079  -12.4221 C   0  0  0  0  0  0  0  0  0  0  0  0
   -6.8356    5.0018  -14.8117 H   0  0  0  0  0  0  0  0  0  0  0  0
  -10.0828    5.3327  -16.5186 H   0  0  0  0  0  0  0  0  0  0  0  0
  -11.5142    5.8383  -18.4539 H   0  0  0  0  0  0  0  0  0  0  0  0
  -10.8054    5.9669  -20.1006 H   0  0  0  0  0  0  0  0  0  0  0  0
  -11.0229    4.3402  -19.3399 H   0  0  0  0  0  0  0  0  0  0  0  0
   -8.3760    5.5391  -20.4613 H   0  0  0  0  0  0  0  0  0  0  0  0
   -6.1135    5.5719  -19.4836 H   0  0  0  0  0  0  0  0  0  0  0  0
   -9.6383    7.3321  -12.0728 H   0  0  0  0  0  0  0  0  0  0  0  0
   -9.6622    6.6217   -9.7307 H   0  0  0  0  0  0  0  0  0  0  0  0
   -8.0605    2.3740   -8.2115 H   0  0  0  0  0  0  0  0  0  0  0  0
   -9.5922    2.4619   -9.1594 H   0  0  0  0  0  0  0  0  0  0  0  0
   -9.9558    1.8656   -6.7302 H   0  0  0  0  0  0  0  0  0  0  0  0
  -10.8362    3.3432   -7.2606 H   0  0  0  0  0  0  0  0  0  0  0  0
   -8.1800    3.2408   -5.6779 H   0  0  0  0  0  0  0  0  0  0  0  0
   -9.7929    3.7345   -5.0520 H   0  0  0  0  0  0  0  0  0  0  0  0
   -9.8565    5.6787   -6.5868 H   0  0  0  0  0  0  0  0  0  0  0  0
   -8.3455    5.7158   -5.6083 H   0  0  0  0  0  0  0  0  0  0  0  0
   -7.0292    4.8156   -7.4826 H   0  0  0  0  0  0  0  0  0  0  0  0
   -7.9661    6.2385   -8.0460 H   0  0  0  0  0  0  0  0  0  0  0  0
   -7.6780    2.9533  -10.8138 H   0  0  0  0  0  0  0  0  0  0  0  0
   -7.6844    3.6325  -13.1583 H   0  0  0  0  0  0  0  0  0  0  0  0
  1  2  1  0
  2  3  1  0
  3  4  2  0
  4  5  1  0
  5  6  1  0
  5  7  2  0
  7  8  1  0
  8  9  2  0
  9 10  1  0
  1 11  2  0
  1 12  1  0
 12 13  2  0
 13 14  1  0
 14 15  2  0
 15 16  1  0
 16 17  1  0
 17 18  1  0
 18 19  1  0
 19 20  1  0
 20 21  1  0
 15 22  1  0
 22 23  2  0
  3  9  1  0
 23 12  1  0
 21 16  1  0
  2 24  1  0
  4 25  1  0
  6 26  1  0
  6 27  1  0
  6 28  1  0
  7 29  1  0
  8 30  1  0
 13 31  1  0
 14 32  1  0
 17 33  1  0
 17 34  1  0
 18 35  1  0
 18 36  1  0
 19 37  1  0
 19 38  1  0
 20 39  1  0
 20 40  1  0
 21 41  1  0
 21 42  1  0
 22 43  1  0
 23 44  1  0
A    1
 C1 
A    2
 N1 
A    3
 C2 
A    4
 C3 
A    5
 C4 
A    6
 C5 
A    7
 C6 
A    8
 C7 
A    9
 C8 
A   10
 F1 
A   11
 O1 
A   12
 C9 
A   13
 C10
A   14
 C11
A   15
 C12
A   16
 N2 
A   17
 C13
A   18
 C14
A   19
 C15
A   20
 C16
A   21
 C17
A   22
 C18
A   23
 C19
A   24
 H1 
A   25
 H2 
A   26
 H3 
A   27
 H4 
A   28
 H5 
A   29
 H6 
A   30
 H7 
A   31
 H8 
A   32
 H9 
A   33
 H10
A   34
 H11
A   35
 H12
A   36
 H13
A   37
 H14
A   38
 H15
A   39
 H16
A   40
 H17
A   41
 H18
A   42
 H19
A   43
 H20
A   44
 H21
M  END
>  <ref_pdb>  (140) 
x0051_0B

>  <ref_mols>  (140) 
x0553_0B,x0404_0B

>  <original SMILES>  (140) 
[H]c1c([H])c(C([H])([H])[H])c([H])c(N([H])C(=O)c2c([H])c([H])c(N3C([H])([H])C([H])([H])C([H])([H])C([H])([H])C3([H])[H])c([H])c2[H])c1F

>  <index>  (140) 
114

>  <∆∆G>  (140) 
-8.046694

>  <∆G_bound>  (140) 
-7.6921

>  <∆G_unbound>  (140) 
0.354594

>  <comRMSD>  (140) 
0.650412

>  <N_constrained_atoms>  (140) 
24.0

>  <N_unconstrained_atoms>  (140) 
0.0

>  <runtime>  (140) 
68.561547

>  <LE>  (140) 
0.335279

>  <percent_hybrid>  (140) 
38.0

>  <dist>  (140) 
8.0

>  <ecfp4>  (140) 
0.2

>  <daylight>  (140) 
0.19697

>  <topodist>  (140) 
3.0

>  <mces>  (140) 
25.0

>  <tdn>  (140) 
2.0

>  <tup>  (140) 
0.0

>  <rdn>  (140) 
0.0

>  <rup>  (140) 
0.0

>  <ldn>  (140) 
1.0

>  <lup>  (140) 
0.0

>  <mut>  (140) 
3.0

>  <maj>  (140) 
3.0

>  <min>  (140) 
0.0

>  <hyb>  (140) 
2.0

>  <sub>  (140) 
0.0

>  <query_index>  (140) 
112.0

>  <max_hit_Tanimoto>  (140) 
0.249271

>  <largest_ring>  (140) 
6

>  <N_interactions_kept>  (140) 
2.0

>  <N_interactions_lost>  (140) 
1.5

>  <interaction_uniqueness_metric>  (140) 
0.116545

>  <ad_hoc_penalty>  (140) 
-26.888501

>  <N_rotatable_bonds>  (140) 
4

>  <N_HA>  (140) 
23

>  <cluster>  (140) 
6112

>  <N_interactions>  (140) 
6

>  <Enamine>  (140) 
0

>  <Mcule>  (140) 
1

>  <N_PAINS>  (140) 
0

>  <UFF_Gibbs>  (140) 
183.161915

>  <strain_per_HA>  (140) 
7.631746

>  <saltbridge:HIS:51>  (140) 
0

>  <pistack:HIS:51>  (140) 
1

>  <hydroph_interaction:HIS:51>  (140) 
1

>  <hbond:ALA:132>  (140) 
0

>  <hbond:SER:135>  (140) 
0

>  <hydroph_interaction:TYR:150>  (140) 
1

>  <pistack:TYR:161>  (140) 
0

>  <hydroph_interaction:TYR:161>  (140) 
2

>  <hydroph_interaction:ASP:83>  (140) 
0

>  <hbond:TYR:130>  (140) 
0

>  <hydroph_interaction:ALA:132>  (140) 
1

>  <hbond:HIS:51>  (140) 
0

>  <hbond:ASP:129>  (140) 
0

>  <hbond:TYR:150>  (140) 
0

>  <hbond:GLY:151>  (140) 
0

>  <hbond:TYR:161>  (140) 
0

>  <hydroph_interaction:TYR:130>  (140) 
0

>  <hydroph_interaction:PRO:131>  (140) 
0

>  <hydroph_interaction:ASP:129>  (140) 
0

>  <saltbridge:ASP:75>  (140) 
0

>  <saltbridge:ASP:83>  (140) 
0

>  <hydroph_interaction:ASN:152>  (140) 
0

>  <halogenbond:TYR:150>  (140) 
0

>  <hbond:ASP:83>  (140) 
0

>  <hydroph_interaction:VAL:155>  (140) 
0

>  <pication:TYR:161>  (140) 
0

>  <hbond:PRO:131>  (140) 
0

>  <hbond:LEU:128>  (140) 
0

>  <saltbridge:ASP:129>  (140) 
0

>  <hbond:THR:134>  (140) 
0

>  <pication:HIS:51>  (140) 
0

>  <hbond:SER:81>  (140) 
0

>  <hbond:GLY:159>  (140) 
0

>  <hydroph_interaction:PRO:101>  (140) 
0

>  <hydroph_interaction:THR:134>  (140) 
0

>  <hbond:GLY:82>  (140) 
0

>  <hydroph_interaction:GLU:104>  (140) 
0

>  <hydroph_interaction:VAL:36>  (140) 
0

>  <hydroph_interaction:MET:49>  (140) 
0

>  <halogenbond:GLU:104>  (140) 
0

>  <hydroph_interaction:LYS:107>  (140) 
0

$$$$
CSSB00025702687
     RDKit          3D

 28 30  0  0  0  0  0  0  0  0999 V2000
   -8.7224    3.4365  -19.3964 Br  0  0  0  0  0  0  0  0  0  0  0  0
   -8.6424    4.5844  -17.8602 C   0  0  0  0  0  0  0  0  0  0  0  0
   -9.7849    4.6857  -17.0564 C   0  0  0  0  0  0  0  0  0  0  0  0
   -9.7654    5.4608  -15.8948 C   0  0  0  0  0  0  0  0  0  0  0  0
   -8.6011    6.1350  -15.5241 C   0  0  0  0  0  0  0  0  0  0  0  0
   -7.4551    6.0415  -16.3176 C   0  0  0  0  0  0  0  0  0  0  0  0
   -7.4645    5.2752  -17.4961 C   0  0  0  0  0  0  0  0  0  0  0  0
   -6.2387    5.2114  -18.3213 C   0  0  0  0  0  0  0  0  0  0  0  0
   -6.2563    5.6497  -19.6554 C   0  0  0  0  0  0  0  0  0  0  0  0
   -5.0896    5.6028  -20.4331 C   0  0  0  0  0  0  0  0  0  0  0  0
   -5.1029    6.0311  -21.7698 C   0  0  0  0  0  0  0  0  0  0  0  0
   -3.9340    5.9795  -22.5348 C   0  0  0  0  0  0  0  0  0  0  0  0
   -2.7464    5.5026  -21.9735 C   0  0  0  0  0  0  0  0  0  0  0  0
   -2.7190    5.0744  -20.6431 C   0  0  0  0  0  0  0  0  0  0  0  0
   -3.8858    5.1208  -19.8642 C   0  0  0  0  0  0  0  0  0  0  0  0
   -3.8707    4.6980  -18.5275 C   0  0  0  0  0  0  0  0  0  0  0  0
   -5.0381    4.7476  -17.7613 C   0  0  0  0  0  0  0  0  0  0  0  0
  -10.6885    4.1546  -17.3273 H   0  0  0  0  0  0  0  0  0  0  0  0
  -10.6519    5.5334  -15.2780 H   0  0  0  0  0  0  0  0  0  0  0  0
   -8.5865    6.7323  -14.6215 H   0  0  0  0  0  0  0  0  0  0  0  0
   -6.5620    6.5774  -16.0195 H   0  0  0  0  0  0  0  0  0  0  0  0
   -7.1768    6.0325  -20.0819 H   0  0  0  0  0  0  0  0  0  0  0  0
   -6.0145    6.4035  -22.2218 H   0  0  0  0  0  0  0  0  0  0  0  0
   -3.9487    6.3100  -23.5653 H   0  0  0  0  0  0  0  0  0  0  0  0
   -1.8446    5.4653  -22.5709 H   0  0  0  0  0  0  0  0  0  0  0  0
   -1.7891    4.7088  -20.2242 H   0  0  0  0  0  0  0  0  0  0  0  0
   -2.9574    4.3299  -18.0754 H   0  0  0  0  0  0  0  0  0  0  0  0
   -5.0086    4.4152  -16.7307 H   0  0  0  0  0  0  0  0  0  0  0  0
  1  2  1  0
  2  3  2  0
  3  4  1  0
  4  5  2  0
  5  6  1  0
  6  7  2  0
  7  8  1  0
  8  9  2  0
  9 10  1  0
 10 11  2  0
 11 12  1  0
 12 13  2  0
 13 14  1  0
 14 15  2  0
 15 16  1  0
 16 17  2  0
  7  2  1  0
 17  8  1  0
 15 10  1  0
  3 18  1  0
  4 19  1  0
  5 20  1  0
  6 21  1  0
  9 22  1  0
 11 23  1  0
 12 24  1  0
 13 25  1  0
 14 26  1  0
 16 27  1  0
 17 28  1  0
A    1
BR1 
A    2
 C1 
A    3
 C2 
A    4
 C3 
A    5
 C4 
A    6
 C5 
A    7
 C6 
A    8
 C7 
A    9
 C8 
A   10
 C9 
A   11
 C10
A   12
 C11
A   13
 C12
A   14
 C13
A   15
 C14
A   16
 C15
A   17
 C16
A   18
 H1 
A   19
 H2 
A   20
 H3 
A   21
 H4 
A   22
 H5 
A   23
 H6 
A   24
 H7 
A   25
 H8 
A   26
 H9 
A   27
 H10
A   28
 H11
M  END
>  <ref_pdb>  (141) 
x0051_0B

>  <ref_mols>  (141) 
x0852_0B,x0680_0B

>  <original SMILES>  (141) 
[H]c1c([H])c([H])c(-c2c([H])c([H])c3c([H])c([H])c([H])c([H])c3c2[H])c(Br)c1[H]

>  <index>  (141) 
83

>  <∆∆G>  (141) 
-5.770054

>  <∆G_bound>  (141) 
-5.985693

>  <∆G_unbound>  (141) 
-0.21564

>  <comRMSD>  (141) 
0.775037

>  <N_constrained_atoms>  (141) 
20.0

>  <N_unconstrained_atoms>  (141) 
0.0

>  <runtime>  (141) 
66.421844

>  <LE>  (141) 
0.288503

>  <percent_hybrid>  (141) 
19.0

>  <dist>  (141) 
5.0

>  <ecfp4>  (141) 
0.113208

>  <daylight>  (141) 
0.198347

>  <topodist>  (141) 
3.0

>  <mces>  (141) 
19.0

>  <tdn>  (141) 
2.0

>  <tup>  (141) 
0.0

>  <rdn>  (141) 
1.0

>  <rup>  (141) 
0.0

>  <ldn>  (141) 
0.0

>  <lup>  (141) 
0.0

>  <mut>  (141) 
2.0

>  <maj>  (141) 
2.0

>  <min>  (141) 
0.0

>  <hyb>  (141) 
0.0

>  <sub>  (141) 
3.0

>  <query_index>  (141) 
135.0

>  <max_hit_Tanimoto>  (141) 
0.104222

>  <largest_ring>  (141) 
6

>  <N_interactions_kept>  (141) 
6.0

>  <N_interactions_lost>  (141) 
1.5

>  <interaction_uniqueness_metric>  (141) 
0.209821

>  <ad_hoc_penalty>  (141) 
-26.817354

>  <N_rotatable_bonds>  (141) 
1

>  <N_HA>  (141) 
17

>  <cluster>  (141) 
6141

>  <N_interactions>  (141) 
6

>  <Enamine>  (141) 
1

>  <Mcule>  (141) 
0

>  <N_PAINS>  (141) 
0

>  <UFF_Gibbs>  (141) 
215.869096

>  <strain_per_HA>  (141) 
10.793455

>  <saltbridge:HIS:51>  (141) 
0

>  <pistack:HIS:51>  (141) 
0

>  <hydroph_interaction:HIS:51>  (141) 
0

>  <hbond:ALA:132>  (141) 
0

>  <hbond:SER:135>  (141) 
0

>  <hydroph_interaction:TYR:150>  (141) 
0

>  <pistack:TYR:161>  (141) 
0

>  <hydroph_interaction:TYR:161>  (141) 
4

>  <hydroph_interaction:ASP:83>  (141) 
0

>  <hbond:TYR:130>  (141) 
0

>  <hydroph_interaction:ALA:132>  (141) 
0

>  <hbond:HIS:51>  (141) 
0

>  <hbond:ASP:129>  (141) 
0

>  <hbond:TYR:150>  (141) 
0

>  <hbond:GLY:151>  (141) 
0

>  <hbond:TYR:161>  (141) 
0

>  <hydroph_interaction:TYR:130>  (141) 
0

>  <hydroph_interaction:PRO:131>  (141) 
0

>  <hydroph_interaction:ASP:129>  (141) 
1

>  <saltbridge:ASP:75>  (141) 
0

>  <saltbridge:ASP:83>  (141) 
0

>  <hydroph_interaction:ASN:152>  (141) 
0

>  <halogenbond:TYR:150>  (141) 
1

>  <hbond:ASP:83>  (141) 
0

>  <hydroph_interaction:VAL:155>  (141) 
0

>  <pication:TYR:161>  (141) 
0

>  <hbond:PRO:131>  (141) 
0

>  <hbond:LEU:128>  (141) 
0

>  <saltbridge:ASP:129>  (141) 
0

>  <hbond:THR:134>  (141) 
0

>  <pication:HIS:51>  (141) 
0

>  <hbond:SER:81>  (141) 
0

>  <hbond:GLY:159>  (141) 
0

>  <hydroph_interaction:PRO:101>  (141) 
0

>  <hydroph_interaction:THR:134>  (141) 
0

>  <hbond:GLY:82>  (141) 
0

>  <hydroph_interaction:GLU:104>  (141) 
0

>  <hydroph_interaction:VAL:36>  (141) 
0

>  <hydroph_interaction:MET:49>  (141) 
0

>  <halogenbond:GLU:104>  (141) 
0

>  <hydroph_interaction:LYS:107>  (141) 
0

$$$$
CSSS00000031452
     RDKit          3D

 27 27  0  0  0  0  0  0  0  0999 V2000
   -2.9403    3.8185  -15.2502 C   0  0  0  0  0  0  0  0  0  0  0  0
   -2.8938    4.6920  -16.5033 C   0  0  0  0  0  0  0  0  0  0  0  0
   -4.0148    4.3670  -17.5066 C   0  0  0  0  0  0  0  0  0  0  0  0
   -5.4434    4.5808  -16.9747 C   0  0  0  0  0  0  0  0  0  0  0  0
   -5.7388    6.0498  -16.6271 C   0  0  0  0  0  0  0  0  0  0  0  0
   -7.2004    6.2652  -16.2104 C   0  0  0  0  0  0  0  0  0  0  0  0
   -8.1453    6.0871  -17.3606 C   0  0  0  0  0  0  0  0  0  0  0  0
   -8.3033    6.9618  -18.4280 C   0  0  0  0  0  0  0  0  0  0  0  0
   -9.2377    6.5161  -19.3704 C   0  0  0  0  0  0  0  0  0  0  0  0
   -9.8122    5.2923  -19.0507 C   0  0  0  0  0  0  0  0  0  0  0  0
   -9.1562    4.7636  -17.5949 S   0  0  0  0  0  0  0  0  0  0  0  0
   -2.0220    3.9866  -14.6491 H   0  0  0  0  0  0  0  0  0  0  0  0
   -2.9909    2.7438  -15.5261 H   0  0  0  0  0  0  0  0  0  0  0  0
   -3.8154    4.0832  -14.6210 H   0  0  0  0  0  0  0  0  0  0  0  0
   -2.9224    5.7636  -16.2156 H   0  0  0  0  0  0  0  0  0  0  0  0
   -1.9192    4.5196  -17.0094 H   0  0  0  0  0  0  0  0  0  0  0  0
   -3.9121    3.3070  -17.8265 H   0  0  0  0  0  0  0  0  0  0  0  0
   -3.8709    4.9932  -18.4140 H   0  0  0  0  0  0  0  0  0  0  0  0
   -5.6270    3.9354  -16.0899 H   0  0  0  0  0  0  0  0  0  0  0  0
   -6.1437    4.2480  -17.7705 H   0  0  0  0  0  0  0  0  0  0  0  0
   -5.0994    6.3600  -15.7741 H   0  0  0  0  0  0  0  0  0  0  0  0
   -5.4952    6.7036  -17.4933 H   0  0  0  0  0  0  0  0  0  0  0  0
   -7.4675    5.5653  -15.3892 H   0  0  0  0  0  0  0  0  0  0  0  0
   -7.3140    7.2984  -15.8175 H   0  0  0  0  0  0  0  0  0  0  0  0
   -7.7581    7.8914  -18.5259 H   0  0  0  0  0  0  0  0  0  0  0  0
   -9.4866    7.0707  -20.2652 H   0  0  0  0  0  0  0  0  0  0  0  0
  -10.5523    4.7692  -19.6409 H   0  0  0  0  0  0  0  0  0  0  0  0
  1  2  1  0
  2  3  1  0
  3  4  1  0
  4  5  1  0
  5  6  1  0
  6  7  1  0
  7  8  2  0
  8  9  1  0
  9 10  2  0
 10 11  1  0
 11  7  1  0
  1 12  1  0
  1 13  1  0
  1 14  1  0
  2 15  1  0
  2 16  1  0
  3 17  1  0
  3 18  1  0
  4 19  1  0
  4 20  1  0
  5 21  1  0
  5 22  1  0
  6 23  1  0
  6 24  1  0
  8 25  1  0
  9 26  1  0
 10 27  1  0
A    1
 C1 
A    2
 C2 
A    3
 C3 
A    4
 C4 
A    5
 C5 
A    6
 C6 
A    7
 C7 
A    8
 C8 
A    9
 C9 
A   10
 C10
A   11
 S1 
A   12
 H1 
A   13
 H2 
A   14
 H3 
A   15
 H4 
A   16
 H5 
A   17
 H6 
A   18
 H7 
A   19
 H8 
A   20
 H9 
A   21
 H10
A   22
 H11
A   23
 H12
A   24
 H13
A   25
 H14
A   26
 H15
A   27
 H16
M  END
>  <ref_pdb>  (142) 
x0051_0B

>  <ref_mols>  (142) 
x0472_0B,x0386_0B

>  <original SMILES>  (142) 
[H]c1sc(C([H])([H])C([H])([H])C([H])([H])C([H])([H])C([H])([H])C([H])([H])[H])c([H])c1[H]

>  <index>  (142) 
50

>  <∆∆G>  (142) 
-7.111736

>  <∆G_bound>  (142) 
-7.119555

>  <∆G_unbound>  (142) 
-0.007819

>  <comRMSD>  (142) 
0.531156

>  <N_constrained_atoms>  (142) 
14.0

>  <N_unconstrained_atoms>  (142) 
0.0

>  <runtime>  (142) 
20.189839

>  <LE>  (142) 
0.507981

>  <percent_hybrid>  (142) 
13.0

>  <dist>  (142) 
6.0

>  <ecfp4>  (142) 
0.150943

>  <daylight>  (142) 
0.237037

>  <topodist>  (142) 
4.0

>  <mces>  (142) 
11.0

>  <tdn>  (142) 
3.0

>  <tup>  (142) 
0.0

>  <rdn>  (142) 
1.0

>  <rup>  (142) 
0.0

>  <ldn>  (142) 
0.0

>  <lup>  (142) 
0.0

>  <mut>  (142) 
2.0

>  <maj>  (142) 
2.0

>  <min>  (142) 
0.0

>  <hyb>  (142) 
0.0

>  <sub>  (142) 
2.0

>  <query_index>  (142) 
75.0

>  <max_hit_Tanimoto>  (142) 
0.190563

>  <largest_ring>  (142) 
5

>  <N_interactions_kept>  (142) 
3.0

>  <N_interactions_lost>  (142) 
0.0

>  <interaction_uniqueness_metric>  (142) 
0.067473

>  <ad_hoc_penalty>  (142) 
-26.788734

>  <N_rotatable_bonds>  (142) 
6

>  <N_HA>  (142) 
11

>  <cluster>  (142) 
6171

>  <N_interactions>  (142) 
6

>  <Enamine>  (142) 
1

>  <Mcule>  (142) 
0

>  <N_PAINS>  (142) 
0

>  <UFF_Gibbs>  (142) 
152.410924

>  <strain_per_HA>  (142) 
10.886495

>  <saltbridge:HIS:51>  (142) 
0

>  <pistack:HIS:51>  (142) 
0

>  <hydroph_interaction:HIS:51>  (142) 
0

>  <hbond:ALA:132>  (142) 
0

>  <hbond:SER:135>  (142) 
0

>  <hydroph_interaction:TYR:150>  (142) 
1

>  <pistack:TYR:161>  (142) 
0

>  <hydroph_interaction:TYR:161>  (142) 
4

>  <hydroph_interaction:ASP:83>  (142) 
0

>  <hbond:TYR:130>  (142) 
0

>  <hydroph_interaction:ALA:132>  (142) 
0

>  <hbond:HIS:51>  (142) 
0

>  <hbond:ASP:129>  (142) 
0

>  <hbond:TYR:150>  (142) 
0

>  <hbond:GLY:151>  (142) 
0

>  <hbond:TYR:161>  (142) 
0

>  <hydroph_interaction:TYR:130>  (142) 
0

>  <hydroph_interaction:PRO:131>  (142) 
0

>  <hydroph_interaction:ASP:129>  (142) 
0

>  <saltbridge:ASP:75>  (142) 
0

>  <saltbridge:ASP:83>  (142) 
0

>  <hydroph_interaction:ASN:152>  (142) 
0

>  <halogenbond:TYR:150>  (142) 
0

>  <hbond:ASP:83>  (142) 
0

>  <hydroph_interaction:VAL:155>  (142) 
1

>  <pication:TYR:161>  (142) 
0

>  <hbond:PRO:131>  (142) 
0

>  <hbond:LEU:128>  (142) 
0

>  <saltbridge:ASP:129>  (142) 
0

>  <hbond:THR:134>  (142) 
0

>  <pication:HIS:51>  (142) 
0

>  <hbond:SER:81>  (142) 
0

>  <hbond:GLY:159>  (142) 
0

>  <hydroph_interaction:PRO:101>  (142) 
0

>  <hydroph_interaction:THR:134>  (142) 
0

>  <hbond:GLY:82>  (142) 
0

>  <hydroph_interaction:GLU:104>  (142) 
0

>  <hydroph_interaction:VAL:36>  (142) 
0

>  <hydroph_interaction:MET:49>  (142) 
0

>  <halogenbond:GLU:104>  (142) 
0

>  <hydroph_interaction:LYS:107>  (142) 
0

$$$$
Z2852286466
     RDKit          3D

 39 41  0  0  0  0  0  0  0  0999 V2000
   -8.6720    4.8050  -19.5130 C   0  0  0  0  0  0  0  0  0  0  0  0
   -8.4455    5.2972  -18.1191 C   0  0  0  0  0  0  0  0  0  0  0  0
   -9.2224    4.8083  -17.0607 C   0  0  0  0  0  0  0  0  0  0  0  0
   -9.0032    5.2776  -15.7570 C   0  0  0  0  0  0  0  0  0  0  0  0
   -9.8137    4.7654  -14.6805 N   0  0  0  0  0  0  0  0  0  0  0  0
   -9.6048    5.0690  -13.2645 C   0  0  0  0  0  0  0  0  0  0  0  0
   -8.3851    4.3155  -12.7273 C   0  0  0  0  0  0  0  0  0  0  0  0
   -8.1504    4.6531  -11.2862 C   0  0  0  0  0  0  0  0  0  0  0  0
   -8.7361    4.0881  -10.1713 C   0  0  0  0  0  0  0  0  0  0  0  0
   -9.7641    2.9964  -10.1170 C   0  0  0  0  0  0  0  0  0  0  0  0
   -9.9015    2.4625   -8.6823 C   0  0  0  0  0  0  0  0  0  0  0  0
   -9.9767    3.6100   -7.6613 C   0  0  0  0  0  0  0  0  0  0  0  0
   -8.7022    4.4689   -7.7075 C   0  0  0  0  0  0  0  0  0  0  0  0
   -8.3424    4.7827   -9.0890 N   0  0  0  0  0  0  0  0  0  0  0  0
   -7.5108    5.7482   -9.4477 N   0  0  0  0  0  0  0  0  0  0  0  0
   -7.3875    5.6980  -10.7912 C   0  0  0  0  0  0  0  0  0  0  0  0
   -8.0042    6.2460  -15.5462 C   0  0  0  0  0  0  0  0  0  0  0  0
   -7.2527    6.7096  -16.6281 C   0  0  0  0  0  0  0  0  0  0  0  0
   -7.4866    6.2313  -17.8779 N   0  0  0  0  0  0  0  0  0  0  0  0
   -9.6977    5.0739  -19.8426 H   0  0  0  0  0  0  0  0  0  0  0  0
   -8.5541    3.7013  -19.5460 H   0  0  0  0  0  0  0  0  0  0  0  0
   -7.9403    5.2623  -20.2125 H   0  0  0  0  0  0  0  0  0  0  0  0
   -9.9888    4.0662  -17.2505 H   0  0  0  0  0  0  0  0  0  0  0  0
  -10.6202    4.1438  -14.9184 H   0  0  0  0  0  0  0  0  0  0  0  0
  -10.5030    4.7482  -12.6925 H   0  0  0  0  0  0  0  0  0  0  0  0
   -9.4988    6.1651  -13.1180 H   0  0  0  0  0  0  0  0  0  0  0  0
   -7.4790    4.5791  -13.3119 H   0  0  0  0  0  0  0  0  0  0  0  0
   -8.5472    3.2216  -12.8336 H   0  0  0  0  0  0  0  0  0  0  0  0
  -10.7397    3.4073  -10.4539 H   0  0  0  0  0  0  0  0  0  0  0  0
   -9.4746    2.1655  -10.7947 H   0  0  0  0  0  0  0  0  0  0  0  0
   -9.0302    1.8137   -8.4430 H   0  0  0  0  0  0  0  0  0  0  0  0
  -10.8198    1.8411   -8.6089 H   0  0  0  0  0  0  0  0  0  0  0  0
  -10.8606    4.2463   -7.8861 H   0  0  0  0  0  0  0  0  0  0  0  0
  -10.1032    3.1921   -6.6395 H   0  0  0  0  0  0  0  0  0  0  0  0
   -8.8677    5.4094   -7.1394 H   0  0  0  0  0  0  0  0  0  0  0  0
   -7.8641    3.9137   -7.2339 H   0  0  0  0  0  0  0  0  0  0  0  0
   -6.7929    6.3885  -11.3744 H   0  0  0  0  0  0  0  0  0  0  0  0
   -7.8004    6.6488  -14.5644 H   0  0  0  0  0  0  0  0  0  0  0  0
   -6.4826    7.4535  -16.4737 H   0  0  0  0  0  0  0  0  0  0  0  0
  1  2  1  0
  2  3  2  0
  3  4  1  0
  4  5  1  0
  5  6  1  0
  6  7  1  0
  7  8  1  0
  8  9  2  0
  9 10  1  0
 10 11  1  0
 11 12  1  0
 12 13  1  0
 13 14  1  0
 14 15  1  0
 15 16  2  0
  4 17  2  0
 17 18  1  0
 18 19  2  0
 19  2  1  0
 16  8  1  0
 14  9  1  0
  1 20  1  0
  1 21  1  0
  1 22  1  0
  3 23  1  0
  5 24  1  0
  6 25  1  0
  6 26  1  0
  7 27  1  0
  7 28  1  0
 10 29  1  0
 10 30  1  0
 11 31  1  0
 11 32  1  0
 12 33  1  0
 12 34  1  0
 13 35  1  0
 13 36  1  0
 16 37  1  0
 17 38  1  0
 18 39  1  0
A    1
 C1 
A    2
 C2 
A    3
 C3 
A    4
 C4 
A    5
 N1 
A    6
 C5 
A    7
 C6 
A    8
 C7 
A    9
 C8 
A   10
 C9 
A   11
 C10
A   12
 C11
A   13
 C12
A   14
 N2 
A   15
 N3 
A   16
 C13
A   17
 C14
A   18
 C15
A   19
 N4 
A   20
 H1 
A   21
 H2 
A   22
 H3 
A   23
 H4 
A   24
 H5 
A   25
 H6 
A   26
 H7 
A   27
 H8 
A   28
 H9 
A   29
 H10
A   30
 H11
A   31
 H12
A   32
 H13
A   33
 H14
A   34
 H15
A   35
 H16
A   36
 H17
A   37
 H18
A   38
 H19
A   39
 H20
M  END
>  <ref_pdb>  (143) 
x0051_0B

>  <ref_mols>  (143) 
x0589_0B,x0969_1B

>  <original SMILES>  (143) 
[H]c1nc(C([H])([H])[H])c([H])c(N([H])C([H])([H])C([H])([H])c2c([H])nn3c2C([H])([H])C([H])([H])C([H])([H])C3([H])[H])c1[H]

>  <index>  (143) 
184

>  <∆∆G>  (143) 
-7.096028

>  <∆G_bound>  (143) 
-6.532931

>  <∆G_unbound>  (143) 
0.563097

>  <comRMSD>  (143) 
0.693508

>  <N_constrained_atoms>  (143) 
17.0

>  <N_unconstrained_atoms>  (143) 
3.0

>  <runtime>  (143) 
65.79724

>  <LE>  (143) 
0.354801

>  <percent_hybrid>  (143) 
42.0

>  <dist>  (143) 
4.0

>  <ecfp4>  (143) 
0.319444

>  <daylight>  (143) 
0.276364

>  <topodist>  (143) 
1.0

>  <mces>  (143) 
21.0

>  <tdn>  (143) 
1.0

>  <tup>  (143) 
0.0

>  <rdn>  (143) 
0.0

>  <rup>  (143) 
0.0

>  <ldn>  (143) 
0.0

>  <lup>  (143) 
0.0

>  <mut>  (143) 
3.0

>  <maj>  (143) 
3.0

>  <min>  (143) 
0.0

>  <hyb>  (143) 
0.0

>  <sub>  (143) 
1.0

>  <query_index>  (143) 
379.0

>  <max_hit_Tanimoto>  (143) 
0.346636

>  <largest_ring>  (143) 
6

>  <N_interactions_kept>  (143) 
1.0

>  <N_interactions_lost>  (143) 
1.5

>  <interaction_uniqueness_metric>  (143) 
0.171488

>  <ad_hoc_penalty>  (143) 
-26.768067

>  <N_rotatable_bonds>  (143) 
5

>  <N_HA>  (143) 
19

>  <cluster>  (143) 
6052

>  <N_interactions>  (143) 
7

>  <Enamine>  (143) 
1

>  <Mcule>  (143) 
0

>  <N_PAINS>  (143) 
0

>  <UFF_Gibbs>  (143) 
103.928307

>  <strain_per_HA>  (143) 
5.196415

>  <saltbridge:HIS:51>  (143) 
0

>  <pistack:HIS:51>  (143) 
1

>  <hydroph_interaction:HIS:51>  (143) 
1

>  <hbond:ALA:132>  (143) 
0

>  <hbond:SER:135>  (143) 
2

>  <hydroph_interaction:TYR:150>  (143) 
1

>  <pistack:TYR:161>  (143) 
1

>  <hydroph_interaction:TYR:161>  (143) 
1

>  <hydroph_interaction:ASP:83>  (143) 
0

>  <hbond:TYR:130>  (143) 
0

>  <hydroph_interaction:ALA:132>  (143) 
0

>  <hbond:HIS:51>  (143) 
0

>  <hbond:ASP:129>  (143) 
0

>  <hbond:TYR:150>  (143) 
0

>  <hbond:GLY:151>  (143) 
0

>  <hbond:TYR:161>  (143) 
0

>  <hydroph_interaction:TYR:130>  (143) 
0

>  <hydroph_interaction:PRO:131>  (143) 
0

>  <hydroph_interaction:ASP:129>  (143) 
0

>  <saltbridge:ASP:75>  (143) 
0

>  <saltbridge:ASP:83>  (143) 
0

>  <hydroph_interaction:ASN:152>  (143) 
0

>  <halogenbond:TYR:150>  (143) 
0

>  <hbond:ASP:83>  (143) 
0

>  <hydroph_interaction:VAL:155>  (143) 
0

>  <pication:TYR:161>  (143) 
0

>  <hbond:PRO:131>  (143) 
0

>  <hbond:LEU:128>  (143) 
0

>  <saltbridge:ASP:129>  (143) 
0

>  <hbond:THR:134>  (143) 
0

>  <pication:HIS:51>  (143) 
0

>  <hbond:SER:81>  (143) 
0

>  <hbond:GLY:159>  (143) 
0

>  <hydroph_interaction:PRO:101>  (143) 
0

>  <hydroph_interaction:THR:134>  (143) 
0

>  <hbond:GLY:82>  (143) 
0

>  <hydroph_interaction:GLU:104>  (143) 
0

>  <hydroph_interaction:VAL:36>  (143) 
0

>  <hydroph_interaction:MET:49>  (143) 
0

>  <halogenbond:GLU:104>  (143) 
0

>  <hydroph_interaction:LYS:107>  (143) 
0

$$$$
MCULE-6504940058
     RDKit          3D

 23 24  0  0  0  0  0  0  0  0999 V2000
   -7.4309    5.3279  -17.6546 C   0  0  0  0  0  0  0  0  0  0  0  0
   -8.2561    5.1036  -16.5265 C   0  0  0  0  0  0  0  0  0  0  0  0
   -7.6650    5.0167  -15.1379 C   0  0  0  0  0  0  0  0  0  0  0  0
   -6.1907    4.5983  -15.1601 C   0  0  0  0  0  0  0  0  0  0  0  0
   -5.4118    5.4653  -16.1464 C   0  0  0  0  0  0  0  0  0  0  0  0
   -6.0012    5.3463  -17.4768 N   0  0  0  0  0  0  0  0  0  0  0  0
   -9.6460    5.0272  -16.6821 C   0  0  0  0  0  0  0  0  0  0  0  0
  -10.2203    5.1406  -17.9456 C   0  0  0  0  0  0  0  0  0  0  0  0
   -9.4177    5.3585  -19.0645 C   0  0  0  0  0  0  0  0  0  0  0  0
   -8.0204    5.4673  -18.9380 C   0  0  0  0  0  0  0  0  0  0  0  0
   -7.2102    5.7719  -20.1404 C   0  0  0  0  0  0  0  0  0  0  0  0
   -7.7120    5.6987  -21.2938 O   0  0  0  0  0  0  0  0  0  0  0  0
   -8.2323    4.2811  -14.5268 H   0  0  0  0  0  0  0  0  0  0  0  0
   -7.7575    6.0114  -14.6504 H   0  0  0  0  0  0  0  0  0  0  0  0
   -5.7571    4.7079  -14.1428 H   0  0  0  0  0  0  0  0  0  0  0  0
   -6.1099    3.5306  -15.4612 H   0  0  0  0  0  0  0  0  0  0  0  0
   -5.4474    6.5281  -15.8229 H   0  0  0  0  0  0  0  0  0  0  0  0
   -4.3489    5.1417  -16.1733 H   0  0  0  0  0  0  0  0  0  0  0  0
   -5.3615    5.1218  -18.2698 H   0  0  0  0  0  0  0  0  0  0  0  0
  -10.2863    4.8756  -15.8217 H   0  0  0  0  0  0  0  0  0  0  0  0
  -11.2949    5.0725  -18.0574 H   0  0  0  0  0  0  0  0  0  0  0  0
   -9.8963    5.4626  -20.0304 H   0  0  0  0  0  0  0  0  0  0  0  0
   -6.1789    6.0803  -20.0557 H   0  0  0  0  0  0  0  0  0  0  0  0
  1  2  2  0
  2  3  1  0
  3  4  1  0
  4  5  1  0
  5  6  1  0
  2  7  1  0
  7  8  2  0
  8  9  1  0
  9 10  2  0
 10 11  1  0
 11 12  2  0
  6  1  1  0
  1 10  1  0
  3 13  1  0
  3 14  1  0
  4 15  1  0
  4 16  1  0
  5 17  1  0
  5 18  1  0
  6 19  1  0
  7 20  1  0
  8 21  1  0
  9 22  1  0
 11 23  1  0
A    1
 C1 
A    2
 C2 
A    3
 C3 
A    4
 C4 
A    5
 C5 
A    6
 N1 
A    7
 C6 
A    8
 C7 
A    9
 C8 
A   10
 C9 
A   11
 C10
A   12
 O1 
A   13
 H1 
A   14
 H2 
A   15
 H3 
A   16
 H4 
A   17
 H5 
A   18
 H6 
A   19
 H7 
A   20
 H8 
A   21
 H9 
A   22
 H10
A   23
 H11
M  END
>  <ref_pdb>  (144) 
x0051_0B

>  <ref_mols>  (144) 
x0455_0B,x0382_0B

>  <original SMILES>  (144) 
[H]C(=O)c1c([H])c([H])c([H])c2c1N([H])C([H])([H])C([H])([H])C2([H])[H]

>  <index>  (144) 
154

>  <∆∆G>  (144) 
-5.319697

>  <∆G_bound>  (144) 
-4.758485

>  <∆G_unbound>  (144) 
0.561212

>  <comRMSD>  (144) 
0.58436

>  <N_constrained_atoms>  (144) 
12.0

>  <N_unconstrained_atoms>  (144) 
1.0

>  <runtime>  (144) 
20.131867

>  <LE>  (144) 
0.409207

>  <percent_hybrid>  (144) 
29.0

>  <dist>  (144) 
3.0

>  <ecfp4>  (144) 
0.311111

>  <daylight>  (144) 
0.392157

>  <topodist>  (144) 
0.0

>  <mces>  (144) 
13.0

>  <tdn>  (144) 
0.0

>  <tup>  (144) 
0.0

>  <rdn>  (144) 
0.0

>  <rup>  (144) 
0.0

>  <ldn>  (144) 
0.0

>  <lup>  (144) 
0.0

>  <mut>  (144) 
1.0

>  <maj>  (144) 
1.0

>  <min>  (144) 
0.0

>  <hyb>  (144) 
2.0

>  <sub>  (144) 
0.0

>  <query_index>  (144) 
293.0

>  <max_hit_Tanimoto>  (144) 
0.33277

>  <largest_ring>  (144) 
6

>  <N_interactions_kept>  (144) 
0.5

>  <N_interactions_lost>  (144) 
1.0

>  <interaction_uniqueness_metric>  (144) 
0.097454

>  <ad_hoc_penalty>  (144) 
-26.708691

>  <N_rotatable_bonds>  (144) 
1

>  <N_HA>  (144) 
12

>  <cluster>  (144) 
6078

>  <N_interactions>  (144) 
5

>  <Enamine>  (144) 
0

>  <Mcule>  (144) 
1

>  <N_PAINS>  (144) 
0

>  <UFF_Gibbs>  (144) 
70.619227

>  <strain_per_HA>  (144) 
5.432248

>  <saltbridge:HIS:51>  (144) 
0

>  <pistack:HIS:51>  (144) 
0

>  <hydroph_interaction:HIS:51>  (144) 
0

>  <hbond:ALA:132>  (144) 
0

>  <hbond:SER:135>  (144) 
0

>  <hydroph_interaction:TYR:150>  (144) 
1

>  <pistack:TYR:161>  (144) 
2

>  <hydroph_interaction:TYR:161>  (144) 
0

>  <hydroph_interaction:ASP:83>  (144) 
0

>  <hbond:TYR:130>  (144) 
1

>  <hydroph_interaction:ALA:132>  (144) 
0

>  <hbond:HIS:51>  (144) 
0

>  <hbond:ASP:129>  (144) 
1

>  <hbond:TYR:150>  (144) 
0

>  <hbond:GLY:151>  (144) 
0

>  <hbond:TYR:161>  (144) 
0

>  <hydroph_interaction:TYR:130>  (144) 
0

>  <hydroph_interaction:PRO:131>  (144) 
0

>  <hydroph_interaction:ASP:129>  (144) 
0

>  <saltbridge:ASP:75>  (144) 
0

>  <saltbridge:ASP:83>  (144) 
0

>  <hydroph_interaction:ASN:152>  (144) 
0

>  <halogenbond:TYR:150>  (144) 
0

>  <hbond:ASP:83>  (144) 
0

>  <hydroph_interaction:VAL:155>  (144) 
0

>  <pication:TYR:161>  (144) 
0

>  <hbond:PRO:131>  (144) 
0

>  <hbond:LEU:128>  (144) 
0

>  <saltbridge:ASP:129>  (144) 
0

>  <hbond:THR:134>  (144) 
0

>  <pication:HIS:51>  (144) 
0

>  <hbond:SER:81>  (144) 
0

>  <hbond:GLY:159>  (144) 
0

>  <hydroph_interaction:PRO:101>  (144) 
0

>  <hydroph_interaction:THR:134>  (144) 
0

>  <hbond:GLY:82>  (144) 
0

>  <hydroph_interaction:GLU:104>  (144) 
0

>  <hydroph_interaction:VAL:36>  (144) 
0

>  <hydroph_interaction:MET:49>  (144) 
0

>  <halogenbond:GLU:104>  (144) 
0

>  <hydroph_interaction:LYS:107>  (144) 
0

$$$$
ILRSZWPYGHBPJI-UHFFFAOYSA-N
     RDKit          3D

 39 41  0  0  0  0  0  0  0  0999 V2000
   -8.6914    6.3102  -12.7370 C   0  0  0  0  0  0  0  0  0  0  0  0
   -7.8593    5.4515  -13.5285 N   0  0  0  0  0  0  0  0  0  0  0  0
   -8.0297    5.2587  -14.9434 C   0  0  0  0  0  0  0  0  0  0  0  0
   -9.2927    5.3757  -15.5508 C   0  0  0  0  0  0  0  0  0  0  0  0
   -9.4429    5.1628  -16.9292 C   0  0  0  0  0  0  0  0  0  0  0  0
  -10.7838    5.3420  -17.5780 C   0  0  0  0  0  0  0  0  0  0  0  0
   -8.3201    4.8450  -17.7068 C   0  0  0  0  0  0  0  0  0  0  0  0
   -7.0627    4.6873  -17.1066 C   0  0  0  0  0  0  0  0  0  0  0  0
   -5.8611    4.3660  -17.9456 C   0  0  0  0  0  0  0  0  0  0  0  0
   -6.9230    4.9015  -15.7276 C   0  0  0  0  0  0  0  0  0  0  0  0
   -9.2309    7.3215  -13.2623 O   0  0  0  0  0  0  0  0  0  0  0  0
   -8.8683    6.0703  -11.2941 C   0  0  0  0  0  0  0  0  0  0  0  0
   -8.8428    4.8732  -10.5950 C   0  0  0  0  0  0  0  0  0  0  0  0
   -9.1767    5.1315   -9.3161 N   0  0  0  0  0  0  0  0  0  0  0  0
   -9.2702    4.1379   -8.2485 C   0  0  0  0  0  0  0  0  0  0  0  0
   -9.5298    2.7424   -8.8343 C   0  0  0  0  0  0  0  0  0  0  0  0
   -8.5706    2.4571   -9.9997 C   0  0  0  0  0  0  0  0  0  0  0  0
   -8.7480    3.4735  -11.1394 C   0  0  0  0  0  0  0  0  0  0  0  0
   -9.3774    6.4283   -9.1477 N   0  0  0  0  0  0  0  0  0  0  0  0
   -9.2054    7.0230  -10.3455 C   0  0  0  0  0  0  0  0  0  0  0  0
   -7.0115    5.0469  -13.0715 H   0  0  0  0  0  0  0  0  0  0  0  0
  -10.1633    5.6153  -14.9536 H   0  0  0  0  0  0  0  0  0  0  0  0
  -10.8738    4.6978  -18.4786 H   0  0  0  0  0  0  0  0  0  0  0  0
  -10.9096    6.4033  -17.8780 H   0  0  0  0  0  0  0  0  0  0  0  0
  -11.5990    5.0647  -16.8761 H   0  0  0  0  0  0  0  0  0  0  0  0
   -8.4263    4.7119  -18.7772 H   0  0  0  0  0  0  0  0  0  0  0  0
   -5.1143    3.7916  -17.3572 H   0  0  0  0  0  0  0  0  0  0  0  0
   -5.3954    5.3093  -18.2996 H   0  0  0  0  0  0  0  0  0  0  0  0
   -6.1498    3.7519  -18.8251 H   0  0  0  0  0  0  0  0  0  0  0  0
   -5.9487    4.8029  -15.2636 H   0  0  0  0  0  0  0  0  0  0  0  0
   -8.3172    4.1307   -7.6769 H   0  0  0  0  0  0  0  0  0  0  0  0
  -10.0955    4.4069   -7.5547 H   0  0  0  0  0  0  0  0  0  0  0  0
   -9.3907    1.9770   -8.0409 H   0  0  0  0  0  0  0  0  0  0  0  0
  -10.5798    2.6804   -9.1956 H   0  0  0  0  0  0  0  0  0  0  0  0
   -7.5221    2.4948   -9.6297 H   0  0  0  0  0  0  0  0  0  0  0  0
   -8.7570    1.4333  -10.3896 H   0  0  0  0  0  0  0  0  0  0  0  0
   -9.6815    3.2449  -11.6969 H   0  0  0  0  0  0  0  0  0  0  0  0
   -7.8897    3.3764  -11.8320 H   0  0  0  0  0  0  0  0  0  0  0  0
   -9.3308    8.0836  -10.5193 H   0  0  0  0  0  0  0  0  0  0  0  0
  1  2  1  0
  2  3  1  0
  3  4  2  0
  4  5  1  0
  5  6  1  0
  5  7  2  0
  7  8  1  0
  8  9  1  0
  8 10  2  0
  1 11  2  0
  1 12  1  0
 12 13  2  0
 13 14  1  0
 14 15  1  0
 15 16  1  0
 16 17  1  0
 17 18  1  0
 14 19  1  0
 19 20  2  0
  3 10  1  0
 20 12  1  0
 18 13  1  0
  2 21  1  0
  4 22  1  0
  6 23  1  0
  6 24  1  0
  6 25  1  0
  7 26  1  0
  9 27  1  0
  9 28  1  0
  9 29  1  0
 10 30  1  0
 15 31  1  0
 15 32  1  0
 16 33  1  0
 16 34  1  0
 17 35  1  0
 17 36  1  0
 18 37  1  0
 18 38  1  0
 20 39  1  0
A    1
 C1 
A    2
 N1 
A    3
 C2 
A    4
 C3 
A    5
 C4 
A    6
 C5 
A    7
 C6 
A    8
 C7 
A    9
 C8 
A   10
 C9 
A   11
 O1 
A   12
 C10
A   13
 C11
A   14
 N2 
A   15
 C12
A   16
 C13
A   17
 C14
A   18
 C15
A   19
 N3 
A   20
 C16
A   21
 H1 
A   22
 H2 
A   23
 H3 
A   24
 H4 
A   25
 H5 
A   26
 H6 
A   27
 H7 
A   28
 H8 
A   29
 H9 
A   30
 H10
A   31
 H11
A   32
 H12
A   33
 H13
A   34
 H14
A   35
 H15
A   36
 H16
A   37
 H17
A   38
 H18
A   39
 H19
M  END
>  <ref_pdb>  (145) 
x0051_0B

>  <ref_mols>  (145) 
x0589_0B,x0969_1B

>  <original SMILES>  (145) 
[H]c1nn2c(c1C(=O)N([H])c1c([H])c(C([H])([H])[H])c([H])c(C([H])([H])[H])c1[H])C([H])([H])C([H])([H])C([H])([H])C2([H])[H]

>  <index>  (145) 
172

>  <∆∆G>  (145) 
-7.745946

>  <∆G_bound>  (145) 
-7.421715

>  <∆G_unbound>  (145) 
0.32423

>  <comRMSD>  (145) 
0.774442

>  <N_constrained_atoms>  (145) 
18.0

>  <N_unconstrained_atoms>  (145) 
2.0

>  <runtime>  (145) 
49.298902

>  <LE>  (145) 
0.387297

>  <percent_hybrid>  (145) 
45.0

>  <dist>  (145) 
6.0

>  <ecfp4>  (145) 
0.318841

>  <daylight>  (145) 
0.256849

>  <topodist>  (145) 
2.0

>  <mces>  (145) 
21.0

>  <tdn>  (145) 
0.0

>  <tup>  (145) 
1.0

>  <rdn>  (145) 
0.0

>  <rup>  (145) 
0.0

>  <ldn>  (145) 
1.0

>  <lup>  (145) 
0.0

>  <mut>  (145) 
3.0

>  <maj>  (145) 
3.0

>  <min>  (145) 
0.0

>  <hyb>  (145) 
1.0

>  <sub>  (145) 
0.0

>  <query_index>  (145) 
379.0

>  <max_hit_Tanimoto>  (145) 
0.326065

>  <largest_ring>  (145) 
6

>  <N_interactions_kept>  (145) 
1.0

>  <N_interactions_lost>  (145) 
1.5

>  <interaction_uniqueness_metric>  (145) 
0.14598

>  <ad_hoc_penalty>  (145) 
-26.642373

>  <N_rotatable_bonds>  (145) 
4

>  <N_HA>  (145) 
20

>  <cluster>  (145) 
6063

>  <N_interactions>  (145) 
6

>  <Enamine>  (145) 
0

>  <Mcule>  (145) 
1

>  <N_PAINS>  (145) 
0

>  <UFF_Gibbs>  (145) 
108.822449

>  <strain_per_HA>  (145) 
5.441122

>  <saltbridge:HIS:51>  (145) 
0

>  <pistack:HIS:51>  (145) 
1

>  <hydroph_interaction:HIS:51>  (145) 
1

>  <hbond:ALA:132>  (145) 
0

>  <hbond:SER:135>  (145) 
0

>  <hydroph_interaction:TYR:150>  (145) 
1

>  <pistack:TYR:161>  (145) 
1

>  <hydroph_interaction:TYR:161>  (145) 
1

>  <hydroph_interaction:ASP:83>  (145) 
0

>  <hbond:TYR:130>  (145) 
0

>  <hydroph_interaction:ALA:132>  (145) 
0

>  <hbond:HIS:51>  (145) 
0

>  <hbond:ASP:129>  (145) 
0

>  <hbond:TYR:150>  (145) 
0

>  <hbond:GLY:151>  (145) 
0

>  <hbond:TYR:161>  (145) 
1

>  <hydroph_interaction:TYR:130>  (145) 
0

>  <hydroph_interaction:PRO:131>  (145) 
0

>  <hydroph_interaction:ASP:129>  (145) 
0

>  <saltbridge:ASP:75>  (145) 
0

>  <saltbridge:ASP:83>  (145) 
0

>  <hydroph_interaction:ASN:152>  (145) 
0

>  <halogenbond:TYR:150>  (145) 
0

>  <hbond:ASP:83>  (145) 
0

>  <hydroph_interaction:VAL:155>  (145) 
0

>  <pication:TYR:161>  (145) 
0

>  <hbond:PRO:131>  (145) 
0

>  <hbond:LEU:128>  (145) 
0

>  <saltbridge:ASP:129>  (145) 
0

>  <hbond:THR:134>  (145) 
0

>  <pication:HIS:51>  (145) 
0

>  <hbond:SER:81>  (145) 
0

>  <hbond:GLY:159>  (145) 
0

>  <hydroph_interaction:PRO:101>  (145) 
0

>  <hydroph_interaction:THR:134>  (145) 
0

>  <hbond:GLY:82>  (145) 
0

>  <hydroph_interaction:GLU:104>  (145) 
0

>  <hydroph_interaction:VAL:36>  (145) 
0

>  <hydroph_interaction:MET:49>  (145) 
0

>  <halogenbond:GLU:104>  (145) 
0

>  <hydroph_interaction:LYS:107>  (145) 
0

$$$$
PV-002735784781
     RDKit          3D

 25 25  0  0  0  0  0  0  0  0999 V2000
   -9.6356    3.9633  -17.5076 C   0  0  0  0  0  0  0  0  0  0  0  0
   -9.0152    5.1401  -17.3795 C   0  0  0  0  0  0  0  0  0  0  0  0
   -9.7584    6.3366  -16.8474 C   0  0  0  0  0  0  0  0  0  0  0  0
   -9.6626    6.3732  -15.3920 N   0  0  0  0  0  0  0  0  0  0  0  0
   -7.5806    5.2621  -17.7177 C   0  0  0  0  0  0  0  0  0  0  0  0
   -6.5805    4.5715  -16.9916 C   0  0  0  0  0  0  0  0  0  0  0  0
   -6.8981    3.7902  -15.8761 O   0  0  0  0  0  0  0  0  0  0  0  0
   -5.2309    4.6837  -17.3815 C   0  0  0  0  0  0  0  0  0  0  0  0
   -4.1583    3.9615  -16.6151 C   0  0  0  0  0  0  0  0  0  0  0  0
   -4.8849    5.5088  -18.4627 C   0  0  0  0  0  0  0  0  0  0  0  0
   -5.8705    6.2043  -19.1624 C   0  0  0  0  0  0  0  0  0  0  0  0
   -7.2102    6.0819  -18.7945 C   0  0  0  0  0  0  0  0  0  0  0  0
  -10.6800    3.8531  -17.2435 H   0  0  0  0  0  0  0  0  0  0  0  0
   -9.1061    3.0944  -17.8792 H   0  0  0  0  0  0  0  0  0  0  0  0
  -10.8271    6.3069  -17.1591 H   0  0  0  0  0  0  0  0  0  0  0  0
   -9.3183    7.2683  -17.2647 H   0  0  0  0  0  0  0  0  0  0  0  0
  -10.1229    7.2533  -15.0648 H   0  0  0  0  0  0  0  0  0  0  0  0
  -10.2282    5.5818  -15.0067 H   0  0  0  0  0  0  0  0  0  0  0  0
   -7.8339    3.7216  -15.4976 H   0  0  0  0  0  0  0  0  0  0  0  0
   -3.1755    4.0265  -17.1290 H   0  0  0  0  0  0  0  0  0  0  0  0
   -4.4225    2.8876  -16.5146 H   0  0  0  0  0  0  0  0  0  0  0  0
   -4.0597    4.4088  -15.6038 H   0  0  0  0  0  0  0  0  0  0  0  0
   -3.8502    5.6176  -18.7637 H   0  0  0  0  0  0  0  0  0  0  0  0
   -5.5956    6.8376  -19.9961 H   0  0  0  0  0  0  0  0  0  0  0  0
   -7.9632    6.6184  -19.3591 H   0  0  0  0  0  0  0  0  0  0  0  0
  1  2  2  3
  2  3  1  0
  3  4  1  0
  2  5  1  0
  5  6  2  0
  6  7  1  0
  6  8  1  0
  8  9  1  0
  8 10  2  0
 10 11  1  0
 11 12  2  0
 12  5  1  0
  1 13  1  0
  1 14  1  0
  3 15  1  0
  3 16  1  0
  4 17  1  0
  4 18  1  0
  7 19  1  0
  9 20  1  0
  9 21  1  0
  9 22  1  0
 10 23  1  0
 11 24  1  0
 12 25  1  0
A    1
 C1 
A    2
 C2 
A    3
 C3 
A    4
 N1 
A    5
 C4 
A    6
 C5 
A    7
 O1 
A    8
 C6 
A    9
 C7 
A   10
 C8 
A   11
 C9 
A   12
 C10
A   13
 H1 
A   14
 H2 
A   15
 H3 
A   16
 H4 
A   17
 H5 
A   18
 H6 
A   19
 H7 
A   20
 H8 
A   21
 H9 
A   22
 H10
A   23
 H11
A   24
 H12
A   25
 H13
M  END
>  <ref_pdb>  (146) 
x0051_0B

>  <ref_mols>  (146) 
x0425_0B,x0435_0B

>  <original SMILES>  (146) 
[H]Oc1c(C(=C([H])[H])C([H])([H])N([H])[H])c([H])c([H])c([H])c1C([H])([H])[H]

>  <index>  (146) 
214

>  <∆∆G>  (146) 
-6.657566

>  <∆G_bound>  (146) 
-6.550789

>  <∆G_unbound>  (146) 
0.106777

>  <comRMSD>  (146) 
0.70035

>  <N_constrained_atoms>  (146) 
13.0

>  <N_unconstrained_atoms>  (146) 
1.0

>  <runtime>  (146) 
27.646799

>  <LE>  (146) 
0.47554

>  <percent_hybrid>  (146) 
40.0

>  <dist>  (146) 
3.0

>  <ecfp4>  (146) 
0.270833

>  <daylight>  (146) 
0.157895

>  <topodist>  (146) 
2.0

>  <mces>  (146) 
12.0

>  <tdn>  (146) 
1.0

>  <tup>  (146) 
0.0

>  <rdn>  (146) 
1.0

>  <rup>  (146) 
0.0

>  <ldn>  (146) 
0.0

>  <lup>  (146) 
0.0

>  <mut>  (146) 
1.0

>  <maj>  (146) 
1.0

>  <min>  (146) 
0.0

>  <hyb>  (146) 
0.0

>  <sub>  (146) 
1.0

>  <query_index>  (146) 
107.0

>  <max_hit_Tanimoto>  (146) 
0.103314

>  <largest_ring>  (146) 
6

>  <N_interactions_kept>  (146) 
1.0

>  <N_interactions_lost>  (146) 
2.5

>  <interaction_uniqueness_metric>  (146) 
0.225878

>  <ad_hoc_penalty>  (146) 
-26.630823

>  <N_rotatable_bonds>  (146) 
5

>  <N_HA>  (146) 
12

>  <cluster>  (146) 
6023

>  <N_interactions>  (146) 
9

>  <Enamine>  (146) 
1

>  <Mcule>  (146) 
0

>  <N_PAINS>  (146) 
0

>  <UFF_Gibbs>  (146) 
70.878478

>  <strain_per_HA>  (146) 
5.062748

>  <saltbridge:HIS:51>  (146) 
0

>  <pistack:HIS:51>  (146) 
0

>  <hydroph_interaction:HIS:51>  (146) 
0

>  <hbond:ALA:132>  (146) 
0

>  <hbond:SER:135>  (146) 
1

>  <hydroph_interaction:TYR:150>  (146) 
1

>  <pistack:TYR:161>  (146) 
1

>  <hydroph_interaction:TYR:161>  (146) 
3

>  <hydroph_interaction:ASP:83>  (146) 
0

>  <hbond:TYR:130>  (146) 
0

>  <hydroph_interaction:ALA:132>  (146) 
1

>  <hbond:HIS:51>  (146) 
1

>  <hbond:ASP:129>  (146) 
0

>  <hbond:TYR:150>  (146) 
0

>  <hbond:GLY:151>  (146) 
1

>  <hbond:TYR:161>  (146) 
0

>  <hydroph_interaction:TYR:130>  (146) 
0

>  <hydroph_interaction:PRO:131>  (146) 
0

>  <hydroph_interaction:ASP:129>  (146) 
0

>  <saltbridge:ASP:75>  (146) 
0

>  <saltbridge:ASP:83>  (146) 
0

>  <hydroph_interaction:ASN:152>  (146) 
0

>  <halogenbond:TYR:150>  (146) 
0

>  <hbond:ASP:83>  (146) 
0

>  <hydroph_interaction:VAL:155>  (146) 
0

>  <pication:TYR:161>  (146) 
0

>  <hbond:PRO:131>  (146) 
0

>  <hbond:LEU:128>  (146) 
0

>  <saltbridge:ASP:129>  (146) 
0

>  <hbond:THR:134>  (146) 
0

>  <pication:HIS:51>  (146) 
0

>  <hbond:SER:81>  (146) 
0

>  <hbond:GLY:159>  (146) 
0

>  <hydroph_interaction:PRO:101>  (146) 
0

>  <hydroph_interaction:THR:134>  (146) 
0

>  <hbond:GLY:82>  (146) 
0

>  <hydroph_interaction:GLU:104>  (146) 
0

>  <hydroph_interaction:VAL:36>  (146) 
0

>  <hydroph_interaction:MET:49>  (146) 
0

>  <halogenbond:GLU:104>  (146) 
0

>  <hydroph_interaction:LYS:107>  (146) 
0

$$$$
MCULE-9248465651
     RDKit          3D

 32 34  0  0  0  0  0  0  0  0999 V2000
   -6.5077    5.6841  -19.5047 N   0  0  0  0  0  0  0  0  0  0  0  0
   -7.5459    5.3591  -18.5692 C   0  0  0  0  0  0  0  0  0  0  0  0
   -8.8620    5.1613  -19.0136 C   0  0  0  0  0  0  0  0  0  0  0  0
   -9.8792    4.8420  -18.1010 C   0  0  0  0  0  0  0  0  0  0  0  0
  -11.2780    4.5973  -18.5843 C   0  0  0  0  0  0  0  0  0  0  0  0
   -9.5631    4.6849  -16.7435 C   0  0  0  0  0  0  0  0  0  0  0  0
   -8.2516    4.8734  -16.2998 C   0  0  0  0  0  0  0  0  0  0  0  0
   -7.2412    5.2134  -17.2095 C   0  0  0  0  0  0  0  0  0  0  0  0
   -5.8944    5.3852  -16.7624 N   0  0  0  0  0  0  0  0  0  0  0  0
   -4.8589    5.7939  -17.6611 C   0  0  0  0  0  0  0  0  0  0  0  0
   -3.6805    5.9029  -17.2248 O   0  0  0  0  0  0  0  0  0  0  0  0
   -5.1802    6.1807  -19.0970 C   0  0  0  0  0  0  0  0  0  0  0  0
   -5.1356    7.6992  -19.2729 C   0  0  0  0  0  0  0  0  0  0  0  0
   -4.7724    7.9383  -20.7341 C   0  0  0  0  0  0  0  0  0  0  0  0
   -4.1108    6.6569  -21.2410 C   0  0  0  0  0  0  0  0  0  0  0  0
   -4.1245    5.6628  -20.0833 C   0  0  0  0  0  0  0  0  0  0  0  0
   -6.7606    5.7273  -20.5190 H   0  0  0  0  0  0  0  0  0  0  0  0
   -9.0933    5.2593  -20.0675 H   0  0  0  0  0  0  0  0  0  0  0  0
  -11.3926    3.5272  -18.8560 H   0  0  0  0  0  0  0  0  0  0  0  0
  -11.4996    5.2233  -19.4748 H   0  0  0  0  0  0  0  0  0  0  0  0
  -12.0162    4.8516  -17.7941 H   0  0  0  0  0  0  0  0  0  0  0  0
  -10.3310    4.4142  -16.0292 H   0  0  0  0  0  0  0  0  0  0  0  0
   -8.0216    4.7494  -15.2490 H   0  0  0  0  0  0  0  0  0  0  0  0
   -5.6541    5.2088  -15.7604 H   0  0  0  0  0  0  0  0  0  0  0  0
   -4.3425    8.1465  -18.6318 H   0  0  0  0  0  0  0  0  0  0  0  0
   -6.1073    8.1748  -19.0138 H   0  0  0  0  0  0  0  0  0  0  0  0
   -5.6943    8.1447  -21.3213 H   0  0  0  0  0  0  0  0  0  0  0  0
   -4.0854    8.8072  -20.8310 H   0  0  0  0  0  0  0  0  0  0  0  0
   -3.0687    6.8550  -21.5748 H   0  0  0  0  0  0  0  0  0  0  0  0
   -4.6872    6.2470  -22.0995 H   0  0  0  0  0  0  0  0  0  0  0  0
   -4.3594    4.6344  -20.4360 H   0  0  0  0  0  0  0  0  0  0  0  0
   -3.1112    5.6490  -19.6246 H   0  0  0  0  0  0  0  0  0  0  0  0
  1  2  1  0
  2  3  2  0
  3  4  1  0
  4  5  1  0
  4  6  2  0
  6  7  1  0
  7  8  2  0
  8  9  1  0
  9 10  1  0
 10 11  2  0
 10 12  1  0
 12 13  1  0
 13 14  1  0
 14 15  1  0
 15 16  1  0
 12  1  1  0
  8  2  1  0
 16 12  1  0
  1 17  1  0
  3 18  1  0
  5 19  1  0
  5 20  1  0
  5 21  1  0
  6 22  1  0
  7 23  1  0
  9 24  1  0
 13 25  1  0
 13 26  1  0
 14 27  1  0
 14 28  1  0
 15 29  1  0
 15 30  1  0
 16 31  1  0
 16 32  1  0
A    1
 N1 
A    2
 C1 
A    3
 C2 
A    4
 C3 
A    5
 C4 
A    6
 C5 
A    7
 C6 
A    8
 C7 
A    9
 N2 
A   10
 C8 
A   11
 O1 
A   12
 C9 
A   13
 C10
A   14
 C11
A   15
 C12
A   16
 C13
A   17
 H1 
A   18
 H2 
A   19
 H3 
A   20
 H4 
A   21
 H5 
A   22
 H6 
A   23
 H7 
A   24
 H8 
A   25
 H9 
A   26
 H10
A   27
 H11
A   28
 H12
A   29
 H13
A   30
 H14
A   31
 H15
A   32
 H16
M  END
>  <ref_pdb>  (147) 
x0051_0B

>  <ref_mols>  (147) 
x0229_0B,x0945_0B

>  <original SMILES>  (147) 
[H]c1c([H])c(C([H])([H])[H])c([H])c2c1N([H])C(=O)C1(N2[H])C([H])([H])C([H])([H])C([H])([H])C1([H])[H]

>  <index>  (147) 
199

>  <∆∆G>  (147) 
-7.673

>  <∆G_bound>  (147) 
-7.560315

>  <∆G_unbound>  (147) 
0.112685

>  <comRMSD>  (147) 
0.7746

>  <N_constrained_atoms>  (147) 
18.0

>  <N_unconstrained_atoms>  (147) 
0.0

>  <runtime>  (147) 
31.095043

>  <LE>  (147) 
0.426278

>  <percent_hybrid>  (147) 
43.0

>  <dist>  (147) 
2.0

>  <ecfp4>  (147) 
0.586957

>  <daylight>  (147) 
0.431953

>  <topodist>  (147) 
0.0

>  <mces>  (147) 
18.0

>  <tdn>  (147) 
0.0

>  <tup>  (147) 
0.0

>  <rdn>  (147) 
0.0

>  <rup>  (147) 
0.0

>  <ldn>  (147) 
0.0

>  <lup>  (147) 
0.0

>  <mut>  (147) 
2.0

>  <maj>  (147) 
2.0

>  <min>  (147) 
0.0

>  <hyb>  (147) 
0.0

>  <sub>  (147) 
0.0

>  <query_index>  (147) 
101.0

>  <max_hit_Tanimoto>  (147) 
0.407514

>  <largest_ring>  (147) 
6

>  <N_interactions_kept>  (147) 
0.5

>  <N_interactions_lost>  (147) 
1.5

>  <interaction_uniqueness_metric>  (147) 
0.062354

>  <ad_hoc_penalty>  (147) 
-26.561281

>  <N_rotatable_bonds>  (147) 
1

>  <N_HA>  (147) 
16

>  <cluster>  (147) 
6038

>  <N_interactions>  (147) 
4

>  <Enamine>  (147) 
0

>  <Mcule>  (147) 
1

>  <N_PAINS>  (147) 
0

>  <UFF_Gibbs>  (147) 
66.821729

>  <strain_per_HA>  (147) 
3.712318

>  <saltbridge:HIS:51>  (147) 
0

>  <pistack:HIS:51>  (147) 
0

>  <hydroph_interaction:HIS:51>  (147) 
0

>  <hbond:ALA:132>  (147) 
0

>  <hbond:SER:135>  (147) 
0

>  <hydroph_interaction:TYR:150>  (147) 
1

>  <pistack:TYR:161>  (147) 
1

>  <hydroph_interaction:TYR:161>  (147) 
1

>  <hydroph_interaction:ASP:83>  (147) 
0

>  <hbond:TYR:130>  (147) 
1

>  <hydroph_interaction:ALA:132>  (147) 
0

>  <hbond:HIS:51>  (147) 
0

>  <hbond:ASP:129>  (147) 
0

>  <hbond:TYR:150>  (147) 
0

>  <hbond:GLY:151>  (147) 
0

>  <hbond:TYR:161>  (147) 
0

>  <hydroph_interaction:TYR:130>  (147) 
0

>  <hydroph_interaction:PRO:131>  (147) 
0

>  <hydroph_interaction:ASP:129>  (147) 
0

>  <saltbridge:ASP:75>  (147) 
0

>  <saltbridge:ASP:83>  (147) 
0

>  <hydroph_interaction:ASN:152>  (147) 
0

>  <halogenbond:TYR:150>  (147) 
0

>  <hbond:ASP:83>  (147) 
0

>  <hydroph_interaction:VAL:155>  (147) 
0

>  <pication:TYR:161>  (147) 
0

>  <hbond:PRO:131>  (147) 
0

>  <hbond:LEU:128>  (147) 
0

>  <saltbridge:ASP:129>  (147) 
0

>  <hbond:THR:134>  (147) 
0

>  <pication:HIS:51>  (147) 
0

>  <hbond:SER:81>  (147) 
0

>  <hbond:GLY:159>  (147) 
0

>  <hydroph_interaction:PRO:101>  (147) 
0

>  <hydroph_interaction:THR:134>  (147) 
0

>  <hbond:GLY:82>  (147) 
0

>  <hydroph_interaction:GLU:104>  (147) 
0

>  <hydroph_interaction:VAL:36>  (147) 
0

>  <hydroph_interaction:MET:49>  (147) 
0

>  <halogenbond:GLU:104>  (147) 
0

>  <hydroph_interaction:LYS:107>  (147) 
0

$$$$
MCULE-6067026324
     RDKit          3D

 24 25  0  0  0  0  0  0  0  0999 V2000
  -10.1560    4.5132  -18.1907 C   0  0  0  0  0  0  0  0  0  0  0  0
   -9.7059    4.6680  -16.8817 C   0  0  0  0  0  0  0  0  0  0  0  0
   -8.3745    5.0220  -16.6280 C   0  0  0  0  0  0  0  0  0  0  0  0
   -7.4899    5.2582  -17.7071 C   0  0  0  0  0  0  0  0  0  0  0  0
   -6.1046    5.5291  -17.4219 N   0  0  0  0  0  0  0  0  0  0  0  0
   -5.6750    5.9070  -16.0788 C   0  0  0  0  0  0  0  0  0  0  0  0
   -6.4038    5.0498  -15.0463 C   0  0  0  0  0  0  0  0  0  0  0  0
   -7.9205    5.2116  -15.1987 C   0  0  0  0  0  0  0  0  0  0  0  0
   -7.9619    5.1365  -19.0405 C   0  0  0  0  0  0  0  0  0  0  0  0
   -9.2930    4.7431  -19.2614 C   0  0  0  0  0  0  0  0  0  0  0  0
   -7.1211    5.4533  -20.2180 C   0  0  0  0  0  0  0  0  0  0  0  0
   -6.2166    6.3281  -20.1476 O   0  0  0  0  0  0  0  0  0  0  0  0
   -7.3637    4.8205  -21.4344 O   0  0  0  0  0  0  0  0  0  0  0  0
  -11.1836    4.2288  -18.3774 H   0  0  0  0  0  0  0  0  0  0  0  0
  -10.3950    4.5037  -16.0623 H   0  0  0  0  0  0  0  0  0  0  0  0
   -5.3655    5.2981  -18.1219 H   0  0  0  0  0  0  0  0  0  0  0  0
   -5.9065    6.9806  -15.9078 H   0  0  0  0  0  0  0  0  0  0  0  0
   -4.5774    5.7639  -15.9786 H   0  0  0  0  0  0  0  0  0  0  0  0
   -6.1261    3.9822  -15.1889 H   0  0  0  0  0  0  0  0  0  0  0  0
   -6.0975    5.3563  -14.0230 H   0  0  0  0  0  0  0  0  0  0  0  0
   -8.2172    6.2293  -14.8645 H   0  0  0  0  0  0  0  0  0  0  0  0
   -8.4231    4.4731  -14.5366 H   0  0  0  0  0  0  0  0  0  0  0  0
   -9.6783    4.6419  -20.2687 H   0  0  0  0  0  0  0  0  0  0  0  0
   -6.8105    5.0396  -22.2543 H   0  0  0  0  0  0  0  0  0  0  0  0
  1  2  2  0
  2  3  1  0
  3  4  2  0
  4  5  1  0
  5  6  1  0
  6  7  1  0
  7  8  1  0
  4  9  1  0
  9 10  2  0
  9 11  1  0
 11 12  2  0
 11 13  1  0
  1 10  1  0
  8  3  1  0
  1 14  1  0
  2 15  1  0
  5 16  1  0
  6 17  1  0
  6 18  1  0
  7 19  1  0
  7 20  1  0
  8 21  1  0
  8 22  1  0
 10 23  1  0
 13 24  1  0
A    1
 C1 
A    2
 C2 
A    3
 C3 
A    4
 C4 
A    5
 N1 
A    6
 C5 
A    7
 C6 
A    8
 C7 
A    9
 C8 
A   10
 C9 
A   11
 C10
A   12
 O1 
A   13
 O2 
A   14
 H1 
A   15
 H2 
A   16
 H3 
A   17
 H4 
A   18
 H5 
A   19
 H6 
A   20
 H7 
A   21
 H8 
A   22
 H9 
A   23
 H10
A   24
 H11
M  END
>  <ref_pdb>  (148) 
x0051_0B

>  <ref_mols>  (148) 
x0455_0B,x0382_0B

>  <original SMILES>  (148) 
[H]OC(=O)c1c([H])c([H])c([H])c2c1N([H])C([H])([H])C([H])([H])C2([H])[H]

>  <index>  (148) 
160

>  <∆∆G>  (148) 
-5.407203

>  <∆G_bound>  (148) 
-4.743716

>  <∆G_unbound>  (148) 
0.663487

>  <comRMSD>  (148) 
0.540013

>  <N_constrained_atoms>  (148) 
12.0

>  <N_unconstrained_atoms>  (148) 
2.0

>  <runtime>  (148) 
19.661737

>  <LE>  (148) 
0.386229

>  <percent_hybrid>  (148) 
29.0

>  <dist>  (148) 
3.0

>  <ecfp4>  (148) 
0.319149

>  <daylight>  (148) 
0.452229

>  <topodist>  (148) 
1.0

>  <mces>  (148) 
13.0

>  <tdn>  (148) 
0.0

>  <tup>  (148) 
1.0

>  <rdn>  (148) 
0.0

>  <rup>  (148) 
0.0

>  <ldn>  (148) 
0.0

>  <lup>  (148) 
0.0

>  <mut>  (148) 
1.0

>  <maj>  (148) 
1.0

>  <min>  (148) 
0.0

>  <hyb>  (148) 
1.0

>  <sub>  (148) 
0.0

>  <query_index>  (148) 
293.0

>  <max_hit_Tanimoto>  (148) 
0.293525

>  <largest_ring>  (148) 
6

>  <N_interactions_kept>  (148) 
0.0

>  <N_interactions_lost>  (148) 
1.5

>  <interaction_uniqueness_metric>  (148) 
0.095223

>  <ad_hoc_penalty>  (148) 
-26.539391

>  <N_rotatable_bonds>  (148) 
1

>  <N_HA>  (148) 
13

>  <cluster>  (148) 
6072

>  <N_interactions>  (148) 
6

>  <Enamine>  (148) 
0

>  <Mcule>  (148) 
1

>  <N_PAINS>  (148) 
0

>  <UFF_Gibbs>  (148) 
73.922921

>  <strain_per_HA>  (148) 
5.280209

>  <saltbridge:HIS:51>  (148) 
0

>  <pistack:HIS:51>  (148) 
0

>  <hydroph_interaction:HIS:51>  (148) 
0

>  <hbond:ALA:132>  (148) 
0

>  <hbond:SER:135>  (148) 
0

>  <hydroph_interaction:TYR:150>  (148) 
1

>  <pistack:TYR:161>  (148) 
0

>  <hydroph_interaction:TYR:161>  (148) 
3

>  <hydroph_interaction:ASP:83>  (148) 
0

>  <hbond:TYR:130>  (148) 
1

>  <hydroph_interaction:ALA:132>  (148) 
0

>  <hbond:HIS:51>  (148) 
0

>  <hbond:ASP:129>  (148) 
1

>  <hbond:TYR:150>  (148) 
0

>  <hbond:GLY:151>  (148) 
0

>  <hbond:TYR:161>  (148) 
0

>  <hydroph_interaction:TYR:130>  (148) 
0

>  <hydroph_interaction:PRO:131>  (148) 
0

>  <hydroph_interaction:ASP:129>  (148) 
0

>  <saltbridge:ASP:75>  (148) 
0

>  <saltbridge:ASP:83>  (148) 
0

>  <hydroph_interaction:ASN:152>  (148) 
0

>  <halogenbond:TYR:150>  (148) 
0

>  <hbond:ASP:83>  (148) 
0

>  <hydroph_interaction:VAL:155>  (148) 
0

>  <pication:TYR:161>  (148) 
0

>  <hbond:PRO:131>  (148) 
0

>  <hbond:LEU:128>  (148) 
0

>  <saltbridge:ASP:129>  (148) 
0

>  <hbond:THR:134>  (148) 
0

>  <pication:HIS:51>  (148) 
0

>  <hbond:SER:81>  (148) 
0

>  <hbond:GLY:159>  (148) 
0

>  <hydroph_interaction:PRO:101>  (148) 
0

>  <hydroph_interaction:THR:134>  (148) 
0

>  <hbond:GLY:82>  (148) 
0

>  <hydroph_interaction:GLU:104>  (148) 
0

>  <hydroph_interaction:VAL:36>  (148) 
0

>  <hydroph_interaction:MET:49>  (148) 
0

>  <halogenbond:GLU:104>  (148) 
0

>  <hydroph_interaction:LYS:107>  (148) 
0

$$$$
MCULE-6226986063
     RDKit          3D

 37 39  0  0  0  0  0  0  0  0999 V2000
  -10.2103    6.7052  -12.3075 O   0  0  0  0  0  0  0  0  0  0  0  0
   -9.5249    7.5315  -12.9685 C   0  0  0  0  0  0  0  0  0  0  0  0
   -8.3515    7.1060  -13.6758 N   0  0  0  0  0  0  0  0  0  0  0  0
   -7.9727    5.7019  -13.8190 C   0  0  0  0  0  0  0  0  0  0  0  0
   -7.7576    5.3840  -15.2664 C   0  0  0  0  0  0  0  0  0  0  0  0
   -8.7089    5.4044  -16.2160 N   0  0  0  0  0  0  0  0  0  0  0  0
   -8.0461    5.1034  -17.3399 C   0  0  0  0  0  0  0  0  0  0  0  0
   -8.7021    5.0347  -18.5664 C   0  0  0  0  0  0  0  0  0  0  0  0
  -10.0835    5.2956  -18.5763 C   0  0  0  0  0  0  0  0  0  0  0  0
  -10.7591    5.6109  -17.3789 C   0  0  0  0  0  0  0  0  0  0  0  0
  -10.0419    5.6631  -16.1734 C   0  0  0  0  0  0  0  0  0  0  0  0
   -6.7351    4.9027  -17.1118 N   0  0  0  0  0  0  0  0  0  0  0  0
   -6.5543    5.0827  -15.8057 N   0  0  0  0  0  0  0  0  0  0  0  0
   -9.9756    8.9569  -13.0608 C   0  0  0  0  0  0  0  0  0  0  0  0
  -10.7588    9.1812  -14.3572 C   0  0  0  0  0  0  0  0  0  0  0  0
  -11.1851   10.6198  -14.4749 C   0  0  0  0  0  0  0  0  0  0  0  0
  -12.3860   11.0538  -13.8886 C   0  0  0  0  0  0  0  0  0  0  0  0
  -12.7631   12.3980  -13.9684 C   0  0  0  0  0  0  0  0  0  0  0  0
  -11.9417   13.3180  -14.6261 C   0  0  0  0  0  0  0  0  0  0  0  0
  -10.7393   12.8961  -15.2011 C   0  0  0  0  0  0  0  0  0  0  0  0
  -10.3581   11.5530  -15.1226 C   0  0  0  0  0  0  0  0  0  0  0  0
   -7.7380    7.8312  -14.1127 H   0  0  0  0  0  0  0  0  0  0  0  0
   -8.7566    5.0260  -13.4169 H   0  0  0  0  0  0  0  0  0  0  0  0
   -7.0353    5.5199  -13.2522 H   0  0  0  0  0  0  0  0  0  0  0  0
   -8.1699    4.7942  -19.4776 H   0  0  0  0  0  0  0  0  0  0  0  0
  -10.6313    5.2539  -19.5087 H   0  0  0  0  0  0  0  0  0  0  0  0
  -11.8225    5.8113  -17.3889 H   0  0  0  0  0  0  0  0  0  0  0  0
  -10.5396    5.9001  -15.2423 H   0  0  0  0  0  0  0  0  0  0  0  0
   -9.0867    9.6246  -13.0350 H   0  0  0  0  0  0  0  0  0  0  0  0
  -10.6162    9.2029  -12.1853 H   0  0  0  0  0  0  0  0  0  0  0  0
  -10.1280    8.9024  -15.2305 H   0  0  0  0  0  0  0  0  0  0  0  0
  -11.6547    8.5213  -14.3733 H   0  0  0  0  0  0  0  0  0  0  0  0
  -13.0270   10.3523  -13.3694 H   0  0  0  0  0  0  0  0  0  0  0  0
  -13.6906   12.7270  -13.5177 H   0  0  0  0  0  0  0  0  0  0  0  0
  -12.2340   14.3583  -14.6857 H   0  0  0  0  0  0  0  0  0  0  0  0
  -10.1017   13.6105  -15.7053 H   0  0  0  0  0  0  0  0  0  0  0  0
   -9.4195   11.2409  -15.5642 H   0  0  0  0  0  0  0  0  0  0  0  0
  1  2  2  0
  2  3  1  0
  3  4  1  0
  4  5  1  0
  5  6  1  0
  6  7  1  0
  7  8  1  0
  8  9  2  0
  9 10  1  0
 10 11  2  0
  7 12  2  0
 12 13  1  0
  2 14  1  0
 14 15  1  0
 15 16  1  0
 16 17  2  0
 17 18  1  0
 18 19  2  0
 19 20  1  0
 20 21  2  0
  5 13  2  0
 11  6  1  0
 21 16  1  0
  3 22  1  0
  4 23  1  0
  4 24  1  0
  8 25  1  0
  9 26  1  0
 10 27  1  0
 11 28  1  0
 14 29  1  0
 14 30  1  0
 15 31  1  0
 15 32  1  0
 17 33  1  0
 18 34  1  0
 19 35  1  0
 20 36  1  0
 21 37  1  0
A    1
 O1 
A    2
 C1 
A    3
 N1 
A    4
 C2 
A    5
 C3 
A    6
 N2 
A    7
 C4 
A    8
 C5 
A    9
 C6 
A   10
 C7 
A   11
 C8 
A   12
 N3 
A   13
 N4 
A   14
 C9 
A   15
 C10
A   16
 C11
A   17
 C12
A   18
 C13
A   19
 C14
A   20
 C15
A   21
 C16
A   22
 H1 
A   23
 H2 
A   24
 H3 
A   25
 H4 
A   26
 H5 
A   27
 H6 
A   28
 H7 
A   29
 H8 
A   30
 H9 
A   31
 H10
A   32
 H11
A   33
 H12
A   34
 H13
A   35
 H14
A   36
 H15
A   37
 H16
M  END
>  <ref_pdb>  (149) 
x0051_0B

>  <ref_mols>  (149) 
x0951_0B,x0969_1B

>  <original SMILES>  (149) 
[H]c1c([H])c([H])c(C([H])([H])C([H])([H])C(=O)N([H])C([H])([H])c2nnc3c([H])c([H])c([H])c([H])n23)c([H])c1[H]

>  <index>  (149) 
412

>  <∆∆G>  (149) 
-5.976038

>  <∆G_bound>  (149) 
-4.831893

>  <∆G_unbound>  (149) 
1.144145

>  <comRMSD>  (149) 
0.451754

>  <N_constrained_atoms>  (149) 
13.0

>  <N_unconstrained_atoms>  (149) 
9.0

>  <runtime>  (149) 
62.022823

>  <LE>  (149) 
0.271638

>  <percent_hybrid>  (149) 
8.0

>  <dist>  (149) 
10.0

>  <ecfp4>  (149) 
0.318841

>  <daylight>  (149) 
0.434426

>  <topodist>  (149) 
3.0

>  <mces>  (149) 
22.0

>  <tdn>  (149) 
1.0

>  <tup>  (149) 
1.0

>  <rdn>  (149) 
1.0

>  <rup>  (149) 
0.0

>  <ldn>  (149) 
0.0

>  <lup>  (149) 
0.0

>  <mut>  (149) 
3.0

>  <maj>  (149) 
3.0

>  <min>  (149) 
0.0

>  <hyb>  (149) 
4.0

>  <sub>  (149) 
2.0

>  <query_index>  (149) 
201.0

>  <max_hit_Tanimoto>  (149) 
0.732673

>  <largest_ring>  (149) 
6

>  <N_interactions_kept>  (149) 
1.5

>  <N_interactions_lost>  (149) 
1.5

>  <interaction_uniqueness_metric>  (149) 
0.603885

>  <ad_hoc_penalty>  (149) 
-26.532183

>  <N_rotatable_bonds>  (149) 
5

>  <N_HA>  (149) 
21

>  <cluster>  (149) 
5843

>  <N_interactions>  (149) 
6

>  <Enamine>  (149) 
0

>  <Mcule>  (149) 
1

>  <N_PAINS>  (149) 
0

>  <UFF_Gibbs>  (149) 
50.738551

>  <strain_per_HA>  (149) 
2.306298

>  <saltbridge:HIS:51>  (149) 
0

>  <pistack:HIS:51>  (149) 
0

>  <hydroph_interaction:HIS:51>  (149) 
0

>  <hbond:ALA:132>  (149) 
0

>  <hbond:SER:135>  (149) 
1

>  <hydroph_interaction:TYR:150>  (149) 
1

>  <pistack:TYR:161>  (149) 
2

>  <hydroph_interaction:TYR:161>  (149) 
0

>  <hydroph_interaction:ASP:83>  (149) 
0

>  <hbond:TYR:130>  (149) 
0

>  <hydroph_interaction:ALA:132>  (149) 
1

>  <hbond:HIS:51>  (149) 
0

>  <hbond:ASP:129>  (149) 
0

>  <hbond:TYR:150>  (149) 
0

>  <hbond:GLY:151>  (149) 
0

>  <hbond:TYR:161>  (149) 
0

>  <hydroph_interaction:TYR:130>  (149) 
0

>  <hydroph_interaction:PRO:131>  (149) 
0

>  <hydroph_interaction:ASP:129>  (149) 
0

>  <saltbridge:ASP:75>  (149) 
0

>  <saltbridge:ASP:83>  (149) 
0

>  <hydroph_interaction:ASN:152>  (149) 
0

>  <halogenbond:TYR:150>  (149) 
0

>  <hbond:ASP:83>  (149) 
0

>  <hydroph_interaction:VAL:155>  (149) 
0

>  <pication:TYR:161>  (149) 
0

>  <hbond:PRO:131>  (149) 
0

>  <hbond:LEU:128>  (149) 
0

>  <saltbridge:ASP:129>  (149) 
0

>  <hbond:THR:134>  (149) 
0

>  <pication:HIS:51>  (149) 
0

>  <hbond:SER:81>  (149) 
0

>  <hbond:GLY:159>  (149) 
0

>  <hydroph_interaction:PRO:101>  (149) 
0

>  <hydroph_interaction:THR:134>  (149) 
0

>  <hbond:GLY:82>  (149) 
0

>  <hydroph_interaction:GLU:104>  (149) 
0

>  <hydroph_interaction:VAL:36>  (149) 
1

>  <hydroph_interaction:MET:49>  (149) 
0

>  <halogenbond:GLU:104>  (149) 
0

>  <hydroph_interaction:LYS:107>  (149) 
0

$$$$
PV-007090062952
     RDKit          3D

 49 52  0  0  0  0  0  0  0  0999 V2000
   -7.2306    4.7630  -20.5268 O   0  0  0  0  0  0  0  0  0  0  0  0
   -6.4518    5.5000  -19.8624 C   0  0  0  0  0  0  0  0  0  0  0  0
   -6.4777    5.4721  -18.4233 N   0  0  0  0  0  0  0  0  0  0  0  0
   -7.4057    4.6925  -17.6492 C   0  0  0  0  0  0  0  0  0  0  0  0
   -6.9782    4.1153  -16.4438 C   0  0  0  0  0  0  0  0  0  0  0  0
   -7.8673    3.3693  -15.6519 C   0  0  0  0  0  0  0  0  0  0  0  0
   -7.4075    2.7487  -14.3600 C   0  0  0  0  0  0  0  0  0  0  0  0
   -8.1056    3.3519  -13.2267 N   0  0  0  0  0  0  0  0  0  0  0  0
   -7.8081    4.6750  -12.7557 C   0  0  0  0  0  0  0  0  0  0  0  0
   -7.0646    5.4318  -13.4375 O   0  0  0  0  0  0  0  0  0  0  0  0
   -8.3880    5.1930  -11.5025 C   0  0  0  0  0  0  0  0  0  0  0  0
   -8.7715    4.4815  -10.3757 C   0  0  0  0  0  0  0  0  0  0  0  0
   -8.7146    3.0026  -10.1142 C   0  0  0  0  0  0  0  0  0  0  0  0
   -8.7602    2.7228   -8.6036 C   0  0  0  0  0  0  0  0  0  0  0  0
   -9.8591    3.5496   -7.9161 C   0  0  0  0  0  0  0  0  0  0  0  0
   -9.5943    5.0543   -8.0835 C   0  0  0  0  0  0  0  0  0  0  0  0
   -9.2219    5.3600   -9.4647 N   0  0  0  0  0  0  0  0  0  0  0  0
   -9.0696    6.5773  -10.0177 C   0  0  0  0  0  0  0  0  0  0  0  0
   -8.5602    6.5138  -11.2676 N   0  0  0  0  0  0  0  0  0  0  0  0
   -9.1977    3.2146  -16.0696 C   0  0  0  0  0  0  0  0  0  0  0  0
   -9.6365    3.8095  -17.2544 C   0  0  0  0  0  0  0  0  0  0  0  0
   -8.7498    4.5517  -18.0384 C   0  0  0  0  0  0  0  0  0  0  0  0
   -5.5249    6.3966  -20.5868 C   0  0  0  0  0  0  0  0  0  0  0  0
   -5.9759    7.0802  -21.7263 C   0  0  0  0  0  0  0  0  0  0  0  0
   -5.1093    7.9369  -22.4081 C   0  0  0  0  0  0  0  0  0  0  0  0
   -3.8307    8.0964  -21.9781 N   0  0  0  0  0  0  0  0  0  0  0  0
   -3.3583    7.4365  -20.8882 C   0  0  0  0  0  0  0  0  0  0  0  0
   -4.1908    6.5696  -20.1739 C   0  0  0  0  0  0  0  0  0  0  0  0
   -3.6780    5.8722  -19.1292 F   0  0  0  0  0  0  0  0  0  0  0  0
   -5.7583    6.0166  -17.8972 H   0  0  0  0  0  0  0  0  0  0  0  0
   -5.9495    4.2438  -16.1286 H   0  0  0  0  0  0  0  0  0  0  0  0
   -6.3095    2.8538  -14.2207 H   0  0  0  0  0  0  0  0  0  0  0  0
   -7.6303    1.6601  -14.3903 H   0  0  0  0  0  0  0  0  0  0  0  0
   -8.8902    2.8145  -12.7980 H   0  0  0  0  0  0  0  0  0  0  0  0
   -9.5906    2.5186  -10.5956 H   0  0  0  0  0  0  0  0  0  0  0  0
   -7.7814    2.5745  -10.5376 H   0  0  0  0  0  0  0  0  0  0  0  0
   -7.7748    2.9691   -8.1499 H   0  0  0  0  0  0  0  0  0  0  0  0
   -8.9520    1.6413   -8.4357 H   0  0  0  0  0  0  0  0  0  0  0  0
   -9.8935    3.2991   -6.8341 H   0  0  0  0  0  0  0  0  0  0  0  0
  -10.8459    3.2939   -8.3612 H   0  0  0  0  0  0  0  0  0  0  0  0
   -8.7633    5.3582   -7.4096 H   0  0  0  0  0  0  0  0  0  0  0  0
  -10.5046    5.6266   -7.8021 H   0  0  0  0  0  0  0  0  0  0  0  0
   -9.2998    7.5058   -9.5110 H   0  0  0  0  0  0  0  0  0  0  0  0
   -9.8973    2.6453  -15.4692 H   0  0  0  0  0  0  0  0  0  0  0  0
  -10.6692    3.7041  -17.5600 H   0  0  0  0  0  0  0  0  0  0  0  0
   -9.1241    5.0384  -18.9283 H   0  0  0  0  0  0  0  0  0  0  0  0
   -6.9943    6.9644  -22.0760 H   0  0  0  0  0  0  0  0  0  0  0  0
   -5.4538    8.4754  -23.2810 H   0  0  0  0  0  0  0  0  0  0  0  0
   -2.3301    7.5758  -20.5820 H   0  0  0  0  0  0  0  0  0  0  0  0
  1  2  2  0
  2  3  1  0
  3  4  1  0
  4  5  2  0
  5  6  1  0
  6  7  1  0
  7  8  1  0
  8  9  1  0
  9 10  2  0
  9 11  1  0
 11 12  2  0
 12 13  1  0
 13 14  1  0
 14 15  1  0
 15 16  1  0
 16 17  1  0
 17 18  1  0
 18 19  2  0
  6 20  2  0
 20 21  1  0
 21 22  2  0
  2 23  1  0
 23 24  2  0
 24 25  1  0
 25 26  2  0
 26 27  1  0
 27 28  2  0
 28 29  1  0
 22  4  1  0
 19 11  1  0
 17 12  1  0
 28 23  1  0
  3 30  1  0
  5 31  1  0
  7 32  1  0
  7 33  1  0
  8 34  1  0
 13 35  1  0
 13 36  1  0
 14 37  1  0
 14 38  1  0
 15 39  1  0
 15 40  1  0
 16 41  1  0
 16 42  1  0
 18 43  1  0
 20 44  1  0
 21 45  1  0
 22 46  1  0
 24 47  1  0
 25 48  1  0
 27 49  1  0
A    1
 O1 
A    2
 C1 
A    3
 N1 
A    4
 C2 
A    5
 C3 
A    6
 C4 
A    7
 C5 
A    8
 N2 
A    9
 C6 
A   10
 O2 
A   11
 C7 
A   12
 C8 
A   13
 C9 
A   14
 C10
A   15
 C11
A   16
 C12
A   17
 N3 
A   18
 C13
A   19
 N4 
A   20
 C14
A   21
 C15
A   22
 C16
A   23
 C17
A   24
 C18
A   25
 C19
A   26
 N5 
A   27
 C20
A   28
 C21
A   29
 F1 
A   30
 H1 
A   31
 H2 
A   32
 H3 
A   33
 H4 
A   34
 H5 
A   35
 H6 
A   36
 H7 
A   37
 H8 
A   38
 H9 
A   39
 H10
A   40
 H11
A   41
 H12
A   42
 H13
A   43
 H14
A   44
 H15
A   45
 H16
A   46
 H17
A   47
 H18
A   48
 H19
A   49
 H20
M  END
>  <ref_pdb>  (150) 
x0051_0B

>  <ref_mols>  (150) 
x0852_0B,x0969_1B

>  <original SMILES>  (150) 
[H]c1nc([H])c(F)c(C(=O)N([H])c2c([H])c([H])c([H])c(C([H])([H])N([H])C(=O)c3nc([H])n4c3C([H])([H])C([H])([H])C([H])([H])C4([H])[H])c2[H])c1[H]

>  <index>  (150) 
219

>  <∆∆G>  (150) 
-7.38181

>  <∆G_bound>  (150) 
-6.120837

>  <∆G_unbound>  (150) 
1.260973

>  <comRMSD>  (150) 
0.337737

>  <N_constrained_atoms>  (150) 
28.0

>  <N_unconstrained_atoms>  (150) 
3.0

>  <runtime>  (150) 
100.468624

>  <LE>  (150) 
0.238123

>  <percent_hybrid>  (150) 
36.0

>  <dist>  (150) 
9.0

>  <ecfp4>  (150) 
0.346535

>  <daylight>  (150) 
0.349462

>  <topodist>  (150) 
3.0

>  <mces>  (150) 
31.0

>  <tdn>  (150) 
2.0

>  <tup>  (150) 
1.0

>  <rdn>  (150) 
0.0

>  <rup>  (150) 
0.0

>  <ldn>  (150) 
0.0

>  <lup>  (150) 
0.0

>  <mut>  (150) 
5.0

>  <maj>  (150) 
5.0

>  <min>  (150) 
0.0

>  <hyb>  (150) 
1.0

>  <sub>  (150) 
2.0

>  <query_index>  (150) 
46.0

>  <max_hit_Tanimoto>  (150) 
0.422847

>  <largest_ring>  (150) 
6

>  <N_interactions_kept>  (150) 
4.0

>  <N_interactions_lost>  (150) 
2.0

>  <interaction_uniqueness_metric>  (150) 
0.238237

>  <ad_hoc_penalty>  (150) 
-26.483885

>  <N_rotatable_bonds>  (150) 
5

>  <N_HA>  (150) 
29

>  <cluster>  (150) 
6019

>  <N_interactions>  (150) 
7

>  <Enamine>  (150) 
1

>  <Mcule>  (150) 
0

>  <N_PAINS>  (150) 
0

>  <UFF_Gibbs>  (150) 
153.423372

>  <strain_per_HA>  (150) 
4.949141

>  <saltbridge:HIS:51>  (150) 
0

>  <pistack:HIS:51>  (150) 
0

>  <hydroph_interaction:HIS:51>  (150) 
0

>  <hbond:ALA:132>  (150) 
0

>  <hbond:SER:135>  (150) 
0

>  <hydroph_interaction:TYR:150>  (150) 
0

>  <pistack:TYR:161>  (150) 
0

>  <hydroph_interaction:TYR:161>  (150) 
2

>  <hydroph_interaction:ASP:83>  (150) 
1

>  <hbond:TYR:130>  (150) 
1

>  <hydroph_interaction:ALA:132>  (150) 
0

>  <hbond:HIS:51>  (150) 
0

>  <hbond:ASP:129>  (150) 
0

>  <hbond:TYR:150>  (150) 
0

>  <hbond:GLY:151>  (150) 
1

>  <hbond:TYR:161>  (150) 
1

>  <hydroph_interaction:TYR:130>  (150) 
0

>  <hydroph_interaction:PRO:131>  (150) 
0

>  <hydroph_interaction:ASP:129>  (150) 
1

>  <saltbridge:ASP:75>  (150) 
0

>  <saltbridge:ASP:83>  (150) 
0

>  <hydroph_interaction:ASN:152>  (150) 
0

>  <halogenbond:TYR:150>  (150) 
0

>  <hbond:ASP:83>  (150) 
0

>  <hydroph_interaction:VAL:155>  (150) 
0

>  <pication:TYR:161>  (150) 
0

>  <hbond:PRO:131>  (150) 
0

>  <hbond:LEU:128>  (150) 
0

>  <saltbridge:ASP:129>  (150) 
0

>  <hbond:THR:134>  (150) 
0

>  <pication:HIS:51>  (150) 
0

>  <hbond:SER:81>  (150) 
0

>  <hbond:GLY:159>  (150) 
0

>  <hydroph_interaction:PRO:101>  (150) 
0

>  <hydroph_interaction:THR:134>  (150) 
0

>  <hbond:GLY:82>  (150) 
0

>  <hydroph_interaction:GLU:104>  (150) 
0

>  <hydroph_interaction:VAL:36>  (150) 
0

>  <hydroph_interaction:MET:49>  (150) 
0

>  <halogenbond:GLU:104>  (150) 
0

>  <hydroph_interaction:LYS:107>  (150) 
0

$$$$
CSSS00000099547
     RDKit          3D

 20 21  0  0  0  0  0  0  0  0999 V2000
   -6.2277    4.6247  -20.3840 N   0  0  0  0  0  0  0  0  0  0  0  0
   -6.5382    5.8723  -19.6903 C   0  0  0  0  0  0  0  0  0  0  0  0
   -7.6385    5.6713  -18.6788 C   0  0  0  0  0  0  0  0  0  0  0  0
   -7.3854    5.1782  -17.3912 C   0  0  0  0  0  0  0  0  0  0  0  0
   -6.2124    4.8354  -16.8306 N   0  0  0  0  0  0  0  0  0  0  0  0
   -6.4441    4.4136  -15.5920 N   0  0  0  0  0  0  0  0  0  0  0  0
   -7.7759    4.4851  -15.3550 C   0  0  0  0  0  0  0  0  0  0  0  0
   -8.3892    4.9679  -16.4893 C   0  0  0  0  0  0  0  0  0  0  0  0
   -9.7239    5.2203  -16.7884 C   0  0  0  0  0  0  0  0  0  0  0  0
  -10.0206    5.7046  -18.0752 C   0  0  0  0  0  0  0  0  0  0  0  0
   -8.9882    5.9237  -19.0161 C   0  0  0  0  0  0  0  0  0  0  0  0
   -7.0971    4.2725  -20.8476 H   0  0  0  0  0  0  0  0  0  0  0  0
   -5.9327    3.9099  -19.6795 H   0  0  0  0  0  0  0  0  0  0  0  0
   -6.8407    6.6378  -20.4375 H   0  0  0  0  0  0  0  0  0  0  0  0
   -5.6229    6.2566  -19.1921 H   0  0  0  0  0  0  0  0  0  0  0  0
   -5.2659    4.8775  -17.2683 H   0  0  0  0  0  0  0  0  0  0  0  0
   -8.2539    4.2015  -14.4268 H   0  0  0  0  0  0  0  0  0  0  0  0
  -10.5063    5.0448  -16.0615 H   0  0  0  0  0  0  0  0  0  0  0  0
  -11.0481    5.9067  -18.3484 H   0  0  0  0  0  0  0  0  0  0  0  0
   -9.2433    6.2877  -20.0034 H   0  0  0  0  0  0  0  0  0  0  0  0
  1  2  1  0
  2  3  1  0
  3  4  2  0
  4  5  1  0
  5  6  1  0
  6  7  2  0
  7  8  1  0
  8  9  2  0
  9 10  1  0
 10 11  2  0
 11  3  1  0
  8  4  1  0
  1 12  1  0
  1 13  1  0
  2 14  1  0
  2 15  1  0
  5 16  1  0
  7 17  1  0
  9 18  1  0
 10 19  1  0
 11 20  1  0
A    1
 N1 
A    2
 C1 
A    3
 C2 
A    4
 C3 
A    5
 N2 
A    6
 N3 
A    7
 C4 
A    8
 C5 
A    9
 C6 
A   10
 C7 
A   11
 C8 
A   12
 H1 
A   13
 H2 
A   14
 H3 
A   15
 H4 
A   16
 H5 
A   17
 H6 
A   18
 H7 
A   19
 H8 
A   20
 H9 
M  END
>  <ref_pdb>  (151) 
x0051_0B

>  <ref_mols>  (151) 
x0951_0B,x0693_0B

>  <original SMILES>  (151) 
[H]c1c([H])c(C([H])([H])N([H])[H])c2c(c([H])nn2[H])c1[H]

>  <index>  (151) 
257

>  <∆∆G>  (151) 
-6.97895

>  <∆G_bound>  (151) 
-6.911687

>  <∆G_unbound>  (151) 
0.067263

>  <comRMSD>  (151) 
0.539473

>  <N_constrained_atoms>  (151) 
12.0

>  <N_unconstrained_atoms>  (151) 
0.0

>  <runtime>  (151) 
27.251801

>  <LE>  (151) 
0.581579

>  <percent_hybrid>  (151) 
50.0

>  <dist>  (151) 
7.0

>  <ecfp4>  (151) 
0.065574

>  <daylight>  (151) 
0.236025

>  <topodist>  (151) 
4.0

>  <mces>  (151) 
12.0

>  <tdn>  (151) 
4.0

>  <tup>  (151) 
0.0

>  <rdn>  (151) 
0.0

>  <rup>  (151) 
0.0

>  <ldn>  (151) 
0.0

>  <lup>  (151) 
0.0

>  <mut>  (151) 
2.0

>  <maj>  (151) 
2.0

>  <min>  (151) 
0.0

>  <hyb>  (151) 
1.0

>  <sub>  (151) 
1.0

>  <query_index>  (151) 
138.0

>  <max_hit_Tanimoto>  (151) 
0.155653

>  <largest_ring>  (151) 
6

>  <N_interactions_kept>  (151) 
3.0

>  <N_interactions_lost>  (151) 
1.5

>  <interaction_uniqueness_metric>  (151) 
0.068471

>  <ad_hoc_penalty>  (151) 
-26.440251

>  <N_rotatable_bonds>  (151) 
2

>  <N_HA>  (151) 
11

>  <cluster>  (151) 
5983

>  <N_interactions>  (151) 
5

>  <Enamine>  (151) 
1

>  <Mcule>  (151) 
0

>  <N_PAINS>  (151) 
0

>  <UFF_Gibbs>  (151) 
29.060161

>  <strain_per_HA>  (151) 
2.42168

>  <saltbridge:HIS:51>  (151) 
0

>  <pistack:HIS:51>  (151) 
0

>  <hydroph_interaction:HIS:51>  (151) 
0

>  <hbond:ALA:132>  (151) 
0

>  <hbond:SER:135>  (151) 
0

>  <hydroph_interaction:TYR:150>  (151) 
1

>  <pistack:TYR:161>  (151) 
2

>  <hydroph_interaction:TYR:161>  (151) 
0

>  <hydroph_interaction:ASP:83>  (151) 
0

>  <hbond:TYR:130>  (151) 
2

>  <hydroph_interaction:ALA:132>  (151) 
0

>  <hbond:HIS:51>  (151) 
0

>  <hbond:ASP:129>  (151) 
0

>  <hbond:TYR:150>  (151) 
0

>  <hbond:GLY:151>  (151) 
0

>  <hbond:TYR:161>  (151) 
0

>  <hydroph_interaction:TYR:130>  (151) 
0

>  <hydroph_interaction:PRO:131>  (151) 
0

>  <hydroph_interaction:ASP:129>  (151) 
0

>  <saltbridge:ASP:75>  (151) 
0

>  <saltbridge:ASP:83>  (151) 
0

>  <hydroph_interaction:ASN:152>  (151) 
0

>  <halogenbond:TYR:150>  (151) 
0

>  <hbond:ASP:83>  (151) 
0

>  <hydroph_interaction:VAL:155>  (151) 
0

>  <pication:TYR:161>  (151) 
0

>  <hbond:PRO:131>  (151) 
0

>  <hbond:LEU:128>  (151) 
0

>  <saltbridge:ASP:129>  (151) 
0

>  <hbond:THR:134>  (151) 
0

>  <pication:HIS:51>  (151) 
0

>  <hbond:SER:81>  (151) 
0

>  <hbond:GLY:159>  (151) 
0

>  <hydroph_interaction:PRO:101>  (151) 
0

>  <hydroph_interaction:THR:134>  (151) 
0

>  <hbond:GLY:82>  (151) 
0

>  <hydroph_interaction:GLU:104>  (151) 
0

>  <hydroph_interaction:VAL:36>  (151) 
0

>  <hydroph_interaction:MET:49>  (151) 
0

>  <halogenbond:GLU:104>  (151) 
0

>  <hydroph_interaction:LYS:107>  (151) 
0

$$$$
MCULE-2460649188
     RDKit          3D

 29 31  0  0  0  0  0  0  0  0999 V2000
   -8.7350    4.2093  -19.7960 O   0  0  0  0  0  0  0  0  0  0  0  0
   -8.7484    4.7682  -18.5179 C   0  0  0  0  0  0  0  0  0  0  0  0
   -7.5546    5.2455  -17.9345 C   0  0  0  0  0  0  0  0  0  0  0  0
   -6.2680    5.2015  -18.6709 C   0  0  0  0  0  0  0  0  0  0  0  0
   -6.1760    5.7102  -19.9781 C   0  0  0  0  0  0  0  0  0  0  0  0
   -4.9566    5.6751  -20.6712 C   0  0  0  0  0  0  0  0  0  0  0  0
   -3.8097    5.1283  -20.0468 C   0  0  0  0  0  0  0  0  0  0  0  0
   -2.5902    5.0938  -20.7411 C   0  0  0  0  0  0  0  0  0  0  0  0
   -2.5094    5.5981  -22.0423 C   0  0  0  0  0  0  0  0  0  0  0  0
   -3.6409    6.1394  -22.6584 C   0  0  0  0  0  0  0  0  0  0  0  0
   -4.8612    6.1795  -21.9778 C   0  0  0  0  0  0  0  0  0  0  0  0
   -3.9031    4.6294  -18.7404 C   0  0  0  0  0  0  0  0  0  0  0  0
   -5.1215    4.6687  -18.0578 C   0  0  0  0  0  0  0  0  0  0  0  0
   -7.5908    5.7668  -16.6284 C   0  0  0  0  0  0  0  0  0  0  0  0
   -8.7947    5.8269  -15.9220 C   0  0  0  0  0  0  0  0  0  0  0  0
   -9.9742    5.3656  -16.5083 C   0  0  0  0  0  0  0  0  0  0  0  0
   -9.9524    4.8377  -17.8009 C   0  0  0  0  0  0  0  0  0  0  0  0
   -9.5793    3.8561  -20.2308 H   0  0  0  0  0  0  0  0  0  0  0  0
   -7.0498    6.1469  -20.4484 H   0  0  0  0  0  0  0  0  0  0  0  0
   -1.7025    4.6789  -20.2786 H   0  0  0  0  0  0  0  0  0  0  0  0
   -1.5672    5.5698  -22.5743 H   0  0  0  0  0  0  0  0  0  0  0  0
   -3.5719    6.5288  -23.6659 H   0  0  0  0  0  0  0  0  0  0  0  0
   -5.7280    6.6027  -22.4715 H   0  0  0  0  0  0  0  0  0  0  0  0
   -3.0350    4.2082  -18.2473 H   0  0  0  0  0  0  0  0  0  0  0  0
   -5.1732    4.2703  -17.0519 H   0  0  0  0  0  0  0  0  0  0  0  0
   -6.6884    6.1419  -16.1612 H   0  0  0  0  0  0  0  0  0  0  0  0
   -8.8135    6.2352  -14.9198 H   0  0  0  0  0  0  0  0  0  0  0  0
  -10.9058    5.4142  -15.9595 H   0  0  0  0  0  0  0  0  0  0  0  0
  -10.8715    4.4748  -18.2431 H   0  0  0  0  0  0  0  0  0  0  0  0
  1  2  1  0
  2  3  2  0
  3  4  1  0
  4  5  2  0
  5  6  1  0
  6  7  2  0
  7  8  1  0
  8  9  2  0
  9 10  1  0
 10 11  2  0
  7 12  1  0
 12 13  2  0
  3 14  1  0
 14 15  2  0
 15 16  1  0
 16 17  2  0
  2 17  1  0
  4 13  1  0
 11  6  1  0
  1 18  1  0
  5 19  1  0
  8 20  1  0
  9 21  1  0
 10 22  1  0
 11 23  1  0
 12 24  1  0
 13 25  1  0
 14 26  1  0
 15 27  1  0
 16 28  1  0
 17 29  1  0
A    1
 O1 
A    2
 C1 
A    3
 C2 
A    4
 C3 
A    5
 C4 
A    6
 C5 
A    7
 C6 
A    8
 C7 
A    9
 C8 
A   10
 C9 
A   11
 C10
A   12
 C11
A   13
 C12
A   14
 C13
A   15
 C14
A   16
 C15
A   17
 C16
A   18
 H1 
A   19
 H2 
A   20
 H3 
A   21
 H4 
A   22
 H5 
A   23
 H6 
A   24
 H7 
A   25
 H8 
A   26
 H9 
A   27
 H10
A   28
 H11
A   29
 H12
M  END
>  <ref_pdb>  (152) 
x0051_0B

>  <ref_mols>  (152) 
x0852_0B,x0680_0B

>  <original SMILES>  (152) 
[H]Oc1c([H])c([H])c([H])c([H])c1-c1c([H])c([H])c2c([H])c([H])c([H])c([H])c2c1[H]

>  <index>  (152) 
166

>  <∆∆G>  (152) 
-7.213922

>  <∆G_bound>  (152) 
-7.16398

>  <∆G_unbound>  (152) 
0.049942

>  <comRMSD>  (152) 
0.583056

>  <N_constrained_atoms>  (152) 
20.0

>  <N_unconstrained_atoms>  (152) 
0.0

>  <runtime>  (152) 
32.21427

>  <LE>  (152) 
0.360696

>  <percent_hybrid>  (152) 
19.0

>  <dist>  (152) 
4.0

>  <ecfp4>  (152) 
0.229167

>  <daylight>  (152) 
0.342593

>  <topodist>  (152) 
3.0

>  <mces>  (152) 
19.0

>  <tdn>  (152) 
2.0

>  <tup>  (152) 
0.0

>  <rdn>  (152) 
1.0

>  <rup>  (152) 
0.0

>  <ldn>  (152) 
0.0

>  <lup>  (152) 
0.0

>  <mut>  (152) 
1.0

>  <maj>  (152) 
1.0

>  <min>  (152) 
0.0

>  <hyb>  (152) 
0.0

>  <sub>  (152) 
3.0

>  <query_index>  (152) 
135.0

>  <max_hit_Tanimoto>  (152) 
0.11245

>  <largest_ring>  (152) 
6

>  <N_interactions_kept>  (152) 
5.0

>  <N_interactions_lost>  (152) 
2.5

>  <interaction_uniqueness_metric>  (152) 
0.08997

>  <ad_hoc_penalty>  (152) 
-26.378661

>  <N_rotatable_bonds>  (152) 
2

>  <N_HA>  (152) 
17

>  <cluster>  (152) 
6068

>  <N_interactions>  (152) 
7

>  <Enamine>  (152) 
0

>  <Mcule>  (152) 
1

>  <N_PAINS>  (152) 
0

>  <UFF_Gibbs>  (152) 
103.499119

>  <strain_per_HA>  (152) 
5.174956

>  <saltbridge:HIS:51>  (152) 
0

>  <pistack:HIS:51>  (152) 
0

>  <hydroph_interaction:HIS:51>  (152) 
0

>  <hbond:ALA:132>  (152) 
0

>  <hbond:SER:135>  (152) 
0

>  <hydroph_interaction:TYR:150>  (152) 
0

>  <pistack:TYR:161>  (152) 
0

>  <hydroph_interaction:TYR:161>  (152) 
4

>  <hydroph_interaction:ASP:83>  (152) 
0

>  <hbond:TYR:130>  (152) 
2

>  <hydroph_interaction:ALA:132>  (152) 
0

>  <hbond:HIS:51>  (152) 
0

>  <hbond:ASP:129>  (152) 
0

>  <hbond:TYR:150>  (152) 
0

>  <hbond:GLY:151>  (152) 
0

>  <hbond:TYR:161>  (152) 
0

>  <hydroph_interaction:TYR:130>  (152) 
0

>  <hydroph_interaction:PRO:131>  (152) 
0

>  <hydroph_interaction:ASP:129>  (152) 
1

>  <saltbridge:ASP:75>  (152) 
0

>  <saltbridge:ASP:83>  (152) 
0

>  <hydroph_interaction:ASN:152>  (152) 
0

>  <halogenbond:TYR:150>  (152) 
0

>  <hbond:ASP:83>  (152) 
0

>  <hydroph_interaction:VAL:155>  (152) 
0

>  <pication:TYR:161>  (152) 
0

>  <hbond:PRO:131>  (152) 
0

>  <hbond:LEU:128>  (152) 
0

>  <saltbridge:ASP:129>  (152) 
0

>  <hbond:THR:134>  (152) 
0

>  <pication:HIS:51>  (152) 
0

>  <hbond:SER:81>  (152) 
0

>  <hbond:GLY:159>  (152) 
0

>  <hydroph_interaction:PRO:101>  (152) 
0

>  <hydroph_interaction:THR:134>  (152) 
0

>  <hbond:GLY:82>  (152) 
0

>  <hydroph_interaction:GLU:104>  (152) 
0

>  <hydroph_interaction:VAL:36>  (152) 
0

>  <hydroph_interaction:MET:49>  (152) 
0

>  <halogenbond:GLU:104>  (152) 
0

>  <hydroph_interaction:LYS:107>  (152) 
0

$$$$
VNTBPADOZCBHDG-UHFFFAOYSA-N
     RDKit          3D

 47 50  0  0  0  0  0  0  0  0999 V2000
   -9.3755    4.0604  -13.1053 N   0  0  0  0  0  0  0  0  0  0  0  0
   -8.9329    3.1884  -14.2038 C   0  0  0  0  0  0  0  0  0  0  0  0
   -8.2560    3.9651  -15.3085 C   0  0  0  0  0  0  0  0  0  0  0  0
   -9.0212    4.6983  -16.2267 C   0  0  0  0  0  0  0  0  0  0  0  0
   -8.3973    5.4395  -17.2341 C   0  0  0  0  0  0  0  0  0  0  0  0
   -6.9948    5.4643  -17.3385 C   0  0  0  0  0  0  0  0  0  0  0  0
   -6.3305    6.2519  -18.4087 C   0  0  0  0  0  0  0  0  0  0  0  0
   -5.2068    5.7374  -19.0834 C   0  0  0  0  0  0  0  0  0  0  0  0
   -4.5835    6.4806  -20.0905 C   0  0  0  0  0  0  0  0  0  0  0  0
   -5.0723    7.7427  -20.4351 C   0  0  0  0  0  0  0  0  0  0  0  0
   -6.1858    8.2646  -19.7730 C   0  0  0  0  0  0  0  0  0  0  0  0
   -6.8135    7.5256  -18.7655 C   0  0  0  0  0  0  0  0  0  0  0  0
   -6.2315    4.7322  -16.4111 C   0  0  0  0  0  0  0  0  0  0  0  0
   -6.8568    3.9913  -15.4045 C   0  0  0  0  0  0  0  0  0  0  0  0
   -8.2420    4.6135  -12.3544 C   0  0  0  0  0  0  0  0  0  0  0  0
   -8.7420    5.2730  -11.1076 C   0  0  0  0  0  0  0  0  0  0  0  0
   -9.1705    4.6693   -9.9438 C   0  0  0  0  0  0  0  0  0  0  0  0
   -9.6642    5.6201   -9.1309 N   0  0  0  0  0  0  0  0  0  0  0  0
  -10.1731    5.3938   -7.7795 C   0  0  0  0  0  0  0  0  0  0  0  0
  -10.5757    3.9216   -7.5918 C   0  0  0  0  0  0  0  0  0  0  0  0
   -9.4871    2.9815   -8.1367 C   0  0  0  0  0  0  0  0  0  0  0  0
   -9.2559    3.2027   -9.6400 C   0  0  0  0  0  0  0  0  0  0  0  0
   -9.5482    6.8090   -9.7015 N   0  0  0  0  0  0  0  0  0  0  0  0
   -8.9980    6.6213  -10.9202 C   0  0  0  0  0  0  0  0  0  0  0  0
   -9.9412    4.8500  -13.4979 H   0  0  0  0  0  0  0  0  0  0  0  0
   -9.8219    2.6689  -14.6221 H   0  0  0  0  0  0  0  0  0  0  0  0
   -8.2660    2.3868  -13.8150 H   0  0  0  0  0  0  0  0  0  0  0  0
  -10.1024    4.6939  -16.1634 H   0  0  0  0  0  0  0  0  0  0  0  0
   -9.0133    5.9804  -17.9415 H   0  0  0  0  0  0  0  0  0  0  0  0
   -4.8211    4.7542  -18.8448 H   0  0  0  0  0  0  0  0  0  0  0  0
   -3.7226    6.0756  -20.6067 H   0  0  0  0  0  0  0  0  0  0  0  0
   -4.5882    8.3164  -21.2148 H   0  0  0  0  0  0  0  0  0  0  0  0
   -6.5614    9.2444  -20.0383 H   0  0  0  0  0  0  0  0  0  0  0  0
   -7.6645    7.9574  -18.2539 H   0  0  0  0  0  0  0  0  0  0  0  0
   -5.1497    4.7483  -16.4515 H   0  0  0  0  0  0  0  0  0  0  0  0
   -6.2488    3.4448  -14.6942 H   0  0  0  0  0  0  0  0  0  0  0  0
   -7.6947    5.3613  -12.9700 H   0  0  0  0  0  0  0  0  0  0  0  0
   -7.5314    3.8076  -12.0677 H   0  0  0  0  0  0  0  0  0  0  0  0
   -9.3800    5.6573   -7.0469 H   0  0  0  0  0  0  0  0  0  0  0  0
  -11.0538    6.0459   -7.5953 H   0  0  0  0  0  0  0  0  0  0  0  0
  -10.7372    3.7181   -6.5114 H   0  0  0  0  0  0  0  0  0  0  0  0
  -11.5314    3.7278   -8.1264 H   0  0  0  0  0  0  0  0  0  0  0  0
   -8.5376    3.1601   -7.5854 H   0  0  0  0  0  0  0  0  0  0  0  0
   -9.7887    1.9262   -7.9635 H   0  0  0  0  0  0  0  0  0  0  0  0
   -8.3184    2.6942   -9.9500 H   0  0  0  0  0  0  0  0  0  0  0  0
  -10.1024    2.7685  -10.2139 H   0  0  0  0  0  0  0  0  0  0  0  0
   -8.8104    7.4139  -11.6323 H   0  0  0  0  0  0  0  0  0  0  0  0
  1  2  1  0
  2  3  1  0
  3  4  2  0
  4  5  1  0
  5  6  2  0
  6  7  1  0
  7  8  2  0
  8  9  1  0
  9 10  2  0
 10 11  1  0
 11 12  2  0
  6 13  1  0
 13 14  2  0
  1 15  1  0
 15 16  1  0
 16 17  2  0
 17 18  1  0
 18 19  1  0
 19 20  1  0
 20 21  1  0
 21 22  1  0
 18 23  1  0
 23 24  2  0
 14  3  1  0
 12  7  1  0
 24 16  1  0
 22 17  1  0
  1 25  1  0
  2 26  1  0
  2 27  1  0
  4 28  1  0
  5 29  1  0
  8 30  1  0
  9 31  1  0
 10 32  1  0
 11 33  1  0
 12 34  1  0
 13 35  1  0
 14 36  1  0
 15 37  1  0
 15 38  1  0
 19 39  1  0
 19 40  1  0
 20 41  1  0
 20 42  1  0
 21 43  1  0
 21 44  1  0
 22 45  1  0
 22 46  1  0
 24 47  1  0
A    1
 N1 
A    2
 C1 
A    3
 C2 
A    4
 C3 
A    5
 C4 
A    6
 C5 
A    7
 C6 
A    8
 C7 
A    9
 C8 
A   10
 C9 
A   11
 C10
A   12
 C11
A   13
 C12
A   14
 C13
A   15
 C14
A   16
 C15
A   17
 C16
A   18
 N2 
A   19
 C17
A   20
 C18
A   21
 C19
A   22
 C20
A   23
 N3 
A   24
 C21
A   25
 H1 
A   26
 H2 
A   27
 H3 
A   28
 H4 
A   29
 H5 
A   30
 H6 
A   31
 H7 
A   32
 H8 
A   33
 H9 
A   34
 H10
A   35
 H11
A   36
 H12
A   37
 H13
A   38
 H14
A   39
 H15
A   40
 H16
A   41
 H17
A   42
 H18
A   43
 H19
A   44
 H20
A   45
 H21
A   46
 H22
A   47
 H23
M  END
>  <ref_pdb>  (153) 
x0051_0B

>  <ref_mols>  (153) 
x0803_0B,x0969_1B

>  <original SMILES>  (153) 
[H]c1nn2c(c1C([H])([H])N([H])C([H])([H])c1c([H])c([H])c(-c3c([H])c([H])c([H])c([H])c3[H])c([H])c1[H])C([H])([H])C([H])([H])C([H])([H])C2([H])[H]

>  <index>  (153) 
146

>  <∆∆G>  (153) 
-5.478956

>  <∆G_bound>  (153) 
-5.270466

>  <∆G_unbound>  (153) 
0.20849

>  <comRMSD>  (153) 
0.750143

>  <N_constrained_atoms>  (153) 
22.0

>  <N_unconstrained_atoms>  (153) 
2.0

>  <runtime>  (153) 
99.704519

>  <LE>  (153) 
0.22829

>  <percent_hybrid>  (153) 
46.0

>  <dist>  (153) 
12.0

>  <ecfp4>  (153) 
0.263889

>  <daylight>  (153) 
0.407407

>  <topodist>  (153) 
2.0

>  <mces>  (153) 
26.0

>  <tdn>  (153) 
1.0

>  <tup>  (153) 
0.0

>  <rdn>  (153) 
0.0

>  <rup>  (153) 
0.0

>  <ldn>  (153) 
0.0

>  <lup>  (153) 
1.0

>  <mut>  (153) 
5.0

>  <maj>  (153) 
5.0

>  <min>  (153) 
0.0

>  <hyb>  (153) 
5.0

>  <sub>  (153) 
1.0

>  <query_index>  (153) 
366.0

>  <max_hit_Tanimoto>  (153) 
0.374558

>  <largest_ring>  (153) 
6

>  <N_interactions_kept>  (153) 
5.0

>  <N_interactions_lost>  (153) 
1.0

>  <interaction_uniqueness_metric>  (153) 
0.152154

>  <ad_hoc_penalty>  (153) 
-26.336434

>  <N_rotatable_bonds>  (153) 
5

>  <N_HA>  (153) 
24

>  <cluster>  (153) 
6085

>  <N_interactions>  (153) 
7

>  <Enamine>  (153) 
0

>  <Mcule>  (153) 
1

>  <N_PAINS>  (153) 
0

>  <UFF_Gibbs>  (153) 
166.033776

>  <strain_per_HA>  (153) 
6.918074

>  <saltbridge:HIS:51>  (153) 
0

>  <pistack:HIS:51>  (153) 
2

>  <hydroph_interaction:HIS:51>  (153) 
0

>  <hbond:ALA:132>  (153) 
0

>  <hbond:SER:135>  (153) 
0

>  <hydroph_interaction:TYR:150>  (153) 
0

>  <pistack:TYR:161>  (153) 
0

>  <hydroph_interaction:TYR:161>  (153) 
3

>  <hydroph_interaction:ASP:83>  (153) 
0

>  <hbond:TYR:130>  (153) 
0

>  <hydroph_interaction:ALA:132>  (153) 
1

>  <hbond:HIS:51>  (153) 
1

>  <hbond:ASP:129>  (153) 
0

>  <hbond:TYR:150>  (153) 
0

>  <hbond:GLY:151>  (153) 
0

>  <hbond:TYR:161>  (153) 
0

>  <hydroph_interaction:TYR:130>  (153) 
0

>  <hydroph_interaction:PRO:131>  (153) 
0

>  <hydroph_interaction:ASP:129>  (153) 
0

>  <saltbridge:ASP:75>  (153) 
0

>  <saltbridge:ASP:83>  (153) 
0

>  <hydroph_interaction:ASN:152>  (153) 
0

>  <halogenbond:TYR:150>  (153) 
0

>  <hbond:ASP:83>  (153) 
0

>  <hydroph_interaction:VAL:155>  (153) 
0

>  <pication:TYR:161>  (153) 
0

>  <hbond:PRO:131>  (153) 
0

>  <hbond:LEU:128>  (153) 
0

>  <saltbridge:ASP:129>  (153) 
0

>  <hbond:THR:134>  (153) 
0

>  <pication:HIS:51>  (153) 
0

>  <hbond:SER:81>  (153) 
0

>  <hbond:GLY:159>  (153) 
0

>  <hydroph_interaction:PRO:101>  (153) 
0

>  <hydroph_interaction:THR:134>  (153) 
0

>  <hbond:GLY:82>  (153) 
0

>  <hydroph_interaction:GLU:104>  (153) 
0

>  <hydroph_interaction:VAL:36>  (153) 
0

>  <hydroph_interaction:MET:49>  (153) 
0

>  <halogenbond:GLU:104>  (153) 
0

>  <hydroph_interaction:LYS:107>  (153) 
0

$$$$
PV-005941073259
     RDKit          3D

 50 53  0  0  0  0  0  0  0  0999 V2000
   -3.5468    5.4073  -18.7078 C   0  0  0  0  0  0  0  0  0  0  0  0
   -3.7508    6.4420  -19.7827 C   0  0  0  0  0  0  0  0  0  0  0  0
   -2.6428    7.1721  -20.2430 C   0  0  0  0  0  0  0  0  0  0  0  0
   -2.7840    8.0834  -21.2399 N   0  0  0  0  0  0  0  0  0  0  0  0
   -3.9873    8.3277  -21.8198 C   0  0  0  0  0  0  0  0  0  0  0  0
   -5.1248    7.6466  -21.3858 C   0  0  0  0  0  0  0  0  0  0  0  0
   -5.0218    6.7124  -20.3447 C   0  0  0  0  0  0  0  0  0  0  0  0
   -6.2505    6.0490  -19.8678 C   0  0  0  0  0  0  0  0  0  0  0  0
   -6.9653    5.4165  -20.6912 O   0  0  0  0  0  0  0  0  0  0  0  0
   -6.6227    6.1293  -18.4800 N   0  0  0  0  0  0  0  0  0  0  0  0
   -7.7514    5.4465  -17.9126 C   0  0  0  0  0  0  0  0  0  0  0  0
   -7.6287    4.8567  -16.6465 C   0  0  0  0  0  0  0  0  0  0  0  0
   -8.7183    4.2095  -16.0461 C   0  0  0  0  0  0  0  0  0  0  0  0
   -8.5449    3.5948  -14.7570 N   0  0  0  0  0  0  0  0  0  0  0  0
   -9.5686    3.5143  -13.7516 C   0  0  0  0  0  0  0  0  0  0  0  0
  -10.6587    4.1322  -13.8902 O   0  0  0  0  0  0  0  0  0  0  0  0
   -9.3073    2.7666  -12.4785 C   0  0  0  0  0  0  0  0  0  0  0  0
   -8.7857    3.6827  -11.4115 C   0  0  0  0  0  0  0  0  0  0  0  0
   -8.9992    3.5882  -10.0567 C   0  0  0  0  0  0  0  0  0  0  0  0
   -9.8264    2.6994   -9.3712 O   0  0  0  0  0  0  0  0  0  0  0  0
   -9.7497    2.6276   -7.9437 C   0  0  0  0  0  0  0  0  0  0  0  0
   -9.4692    4.0175   -7.3333 C   0  0  0  0  0  0  0  0  0  0  0  0
   -8.2190    4.6593   -7.9730 C   0  0  0  0  0  0  0  0  0  0  0  0
   -8.2687    4.5117   -9.4253 N   0  0  0  0  0  0  0  0  0  0  0  0
   -7.5399    5.1845  -10.3021 N   0  0  0  0  0  0  0  0  0  0  0  0
   -7.8357    4.6926  -11.5281 C   0  0  0  0  0  0  0  0  0  0  0  0
   -9.9381    4.1341  -16.7419 C   0  0  0  0  0  0  0  0  0  0  0  0
  -10.0747    4.7437  -17.9908 C   0  0  0  0  0  0  0  0  0  0  0  0
   -8.9918    5.4071  -18.5711 C   0  0  0  0  0  0  0  0  0  0  0  0
   -4.2568    4.5625  -18.8262 H   0  0  0  0  0  0  0  0  0  0  0  0
   -3.6859    5.8680  -17.7090 H   0  0  0  0  0  0  0  0  0  0  0  0
   -2.5207    4.9843  -18.7614 H   0  0  0  0  0  0  0  0  0  0  0  0
   -1.6608    7.0043  -19.8184 H   0  0  0  0  0  0  0  0  0  0  0  0
   -4.0628    9.0583  -22.6129 H   0  0  0  0  0  0  0  0  0  0  0  0
   -6.0831    7.8606  -21.8431 H   0  0  0  0  0  0  0  0  0  0  0  0
   -5.9751    6.6207  -17.8240 H   0  0  0  0  0  0  0  0  0  0  0  0
   -6.6796    4.9025  -16.1257 H   0  0  0  0  0  0  0  0  0  0  0  0
   -7.5832    3.2816  -14.4921 H   0  0  0  0  0  0  0  0  0  0  0  0
  -10.2520    2.2909  -12.1344 H   0  0  0  0  0  0  0  0  0  0  0  0
   -8.5660    1.9592  -12.6579 H   0  0  0  0  0  0  0  0  0  0  0  0
  -10.7031    2.2198   -7.5438 H   0  0  0  0  0  0  0  0  0  0  0  0
   -8.9278    1.9334   -7.6615 H   0  0  0  0  0  0  0  0  0  0  0  0
   -9.3235    3.9237   -6.2353 H   0  0  0  0  0  0  0  0  0  0  0  0
  -10.3491    4.6744   -7.5140 H   0  0  0  0  0  0  0  0  0  0  0  0
   -8.1712    5.7363   -7.7057 H   0  0  0  0  0  0  0  0  0  0  0  0
   -7.3049    4.1559   -7.5891 H   0  0  0  0  0  0  0  0  0  0  0  0
   -7.3714    5.0323  -12.4455 H   0  0  0  0  0  0  0  0  0  0  0  0
  -10.7807    3.5979  -16.3291 H   0  0  0  0  0  0  0  0  0  0  0  0
  -11.0231    4.7014  -18.5111 H   0  0  0  0  0  0  0  0  0  0  0  0
   -9.1304    5.9029  -19.5219 H   0  0  0  0  0  0  0  0  0  0  0  0
  1  2  1  0
  2  3  2  0
  3  4  1  0
  4  5  2  0
  5  6  1  0
  6  7  2  0
  7  8  1  0
  8  9  2  0
  8 10  1  0
 10 11  1  0
 11 12  2  0
 12 13  1  0
 13 14  1  0
 14 15  1  0
 15 16  2  0
 15 17  1  0
 17 18  1  0
 18 19  2  0
 19 20  1  0
 20 21  1  0
 21 22  1  0
 22 23  1  0
 23 24  1  0
 24 25  1  0
 25 26  2  0
 13 27  2  0
 27 28  1  0
 28 29  2  0
  7  2  1  0
 29 11  1  0
 26 18  1  0
 24 19  1  0
  1 30  1  0
  1 31  1  0
  1 32  1  0
  3 33  1  0
  5 34  1  0
  6 35  1  0
 10 36  1  0
 12 37  1  0
 14 38  1  0
 17 39  1  0
 17 40  1  0
 21 41  1  0
 21 42  1  0
 22 43  1  0
 22 44  1  0
 23 45  1  0
 23 46  1  0
 26 47  1  0
 27 48  1  0
 28 49  1  0
 29 50  1  0
A    1
 C1 
A    2
 C2 
A    3
 C3 
A    4
 N1 
A    5
 C4 
A    6
 C5 
A    7
 C6 
A    8
 C7 
A    9
 O1 
A   10
 N2 
A   11
 C8 
A   12
 C9 
A   13
 C10
A   14
 N3 
A   15
 C11
A   16
 O2 
A   17
 C12
A   18
 C13
A   19
 C14
A   20
 O3 
A   21
 C15
A   22
 C16
A   23
 C17
A   24
 N4 
A   25
 N5 
A   26
 C18
A   27
 C19
A   28
 C20
A   29
 C21
A   30
 H1 
A   31
 H2 
A   32
 H3 
A   33
 H4 
A   34
 H5 
A   35
 H6 
A   36
 H7 
A   37
 H8 
A   38
 H9 
A   39
 H10
A   40
 H11
A   41
 H12
A   42
 H13
A   43
 H14
A   44
 H15
A   45
 H16
A   46
 H17
A   47
 H18
A   48
 H19
A   49
 H20
A   50
 H21
M  END
>  <ref_pdb>  (154) 
x0051_0B

>  <ref_mols>  (154) 
x0852_0B,x0969_1B

>  <original SMILES>  (154) 
[H]c1nc([H])c(C([H])([H])[H])c(C(=O)N([H])c2c([H])c([H])c([H])c(N([H])C(=O)C([H])([H])c3c([H])nn4c3OC([H])([H])C([H])([H])C4([H])[H])c2[H])c1[H]

>  <index>  (154) 
198

>  <∆∆G>  (154) 
-8.998019

>  <∆G_bound>  (154) 
-7.912083

>  <∆G_unbound>  (154) 
1.085935

>  <comRMSD>  (154) 
0.399849

>  <N_constrained_atoms>  (154) 
28.0

>  <N_unconstrained_atoms>  (154) 
3.0

>  <runtime>  (154) 
49.790809

>  <LE>  (154) 
0.290259

>  <percent_hybrid>  (154) 
36.0

>  <dist>  (154) 
8.0

>  <ecfp4>  (154) 
0.375

>  <daylight>  (154) 
0.416422

>  <topodist>  (154) 
3.0

>  <mces>  (154) 
31.0

>  <tdn>  (154) 
2.0

>  <tup>  (154) 
1.0

>  <rdn>  (154) 
0.0

>  <rup>  (154) 
0.0

>  <ldn>  (154) 
0.0

>  <lup>  (154) 
0.0

>  <mut>  (154) 
4.0

>  <maj>  (154) 
4.0

>  <min>  (154) 
0.0

>  <hyb>  (154) 
1.0

>  <sub>  (154) 
2.0

>  <query_index>  (154) 
46.0

>  <max_hit_Tanimoto>  (154) 
0.350085

>  <largest_ring>  (154) 
6

>  <N_interactions_kept>  (154) 
4.0

>  <N_interactions_lost>  (154) 
2.0

>  <interaction_uniqueness_metric>  (154) 
0.127758

>  <ad_hoc_penalty>  (154) 
-26.332674

>  <N_rotatable_bonds>  (154) 
6

>  <N_HA>  (154) 
29

>  <cluster>  (154) 
6039

>  <N_interactions>  (154) 
7

>  <Enamine>  (154) 
1

>  <Mcule>  (154) 
0

>  <N_PAINS>  (154) 
0

>  <UFF_Gibbs>  (154) 
144.665428

>  <strain_per_HA>  (154) 
4.666627

>  <saltbridge:HIS:51>  (154) 
0

>  <pistack:HIS:51>  (154) 
1

>  <hydroph_interaction:HIS:51>  (154) 
0

>  <hbond:ALA:132>  (154) 
0

>  <hbond:SER:135>  (154) 
0

>  <hydroph_interaction:TYR:150>  (154) 
0

>  <pistack:TYR:161>  (154) 
0

>  <hydroph_interaction:TYR:161>  (154) 
3

>  <hydroph_interaction:ASP:83>  (154) 
0

>  <hbond:TYR:130>  (154) 
1

>  <hydroph_interaction:ALA:132>  (154) 
1

>  <hbond:HIS:51>  (154) 
0

>  <hbond:ASP:129>  (154) 
0

>  <hbond:TYR:150>  (154) 
0

>  <hbond:GLY:151>  (154) 
0

>  <hbond:TYR:161>  (154) 
0

>  <hydroph_interaction:TYR:130>  (154) 
0

>  <hydroph_interaction:PRO:131>  (154) 
0

>  <hydroph_interaction:ASP:129>  (154) 
1

>  <saltbridge:ASP:75>  (154) 
0

>  <saltbridge:ASP:83>  (154) 
0

>  <hydroph_interaction:ASN:152>  (154) 
0

>  <halogenbond:TYR:150>  (154) 
0

>  <hbond:ASP:83>  (154) 
0

>  <hydroph_interaction:VAL:155>  (154) 
0

>  <pication:TYR:161>  (154) 
0

>  <hbond:PRO:131>  (154) 
0

>  <hbond:LEU:128>  (154) 
0

>  <saltbridge:ASP:129>  (154) 
0

>  <hbond:THR:134>  (154) 
0

>  <pication:HIS:51>  (154) 
0

>  <hbond:SER:81>  (154) 
0

>  <hbond:GLY:159>  (154) 
0

>  <hydroph_interaction:PRO:101>  (154) 
0

>  <hydroph_interaction:THR:134>  (154) 
0

>  <hbond:GLY:82>  (154) 
0

>  <hydroph_interaction:GLU:104>  (154) 
0

>  <hydroph_interaction:VAL:36>  (154) 
0

>  <hydroph_interaction:MET:49>  (154) 
0

>  <halogenbond:GLU:104>  (154) 
0

>  <hydroph_interaction:LYS:107>  (154) 
0

$$$$
CRBIRTYEJLOSLG-UHFFFAOYSA-N
     RDKit          3D

 36 39  0  0  0  0  0  0  0  0999 V2000
   -8.2098    6.4937  -12.1600 C   0  0  0  0  0  0  0  0  0  0  0  0
   -8.6279    5.7204  -13.2944 N   0  0  0  0  0  0  0  0  0  0  0  0
   -8.0222    5.8369  -14.5893 C   0  0  0  0  0  0  0  0  0  0  0  0
   -8.4119    5.1668  -15.7296 C   0  0  0  0  0  0  0  0  0  0  0  0
   -7.5313    5.5762  -16.6920 C   0  0  0  0  0  0  0  0  0  0  0  0
   -7.6044    5.1035  -18.0039 C   0  0  0  0  0  0  0  0  0  0  0  0
   -8.6254    4.1810  -18.3075 C   0  0  0  0  0  0  0  0  0  0  0  0
   -9.5331    3.7592  -17.3084 C   0  0  0  0  0  0  0  0  0  0  0  0
   -9.4314    4.2547  -15.9950 C   0  0  0  0  0  0  0  0  0  0  0  0
   -6.3738    5.6726  -19.3515 Br  0  0  0  0  0  0  0  0  0  0  0  0
   -6.6538    6.4458  -16.1588 N   0  0  0  0  0  0  0  0  0  0  0  0
   -6.9450    6.6083  -14.8724 N   0  0  0  0  0  0  0  0  0  0  0  0
   -7.5450    7.5517  -12.3284 O   0  0  0  0  0  0  0  0  0  0  0  0
   -8.5836    6.0988  -10.7879 C   0  0  0  0  0  0  0  0  0  0  0  0
   -8.9001    4.8466  -10.2836 C   0  0  0  0  0  0  0  0  0  0  0  0
   -9.1504    4.9725   -8.9662 N   0  0  0  0  0  0  0  0  0  0  0  0
   -9.4166    3.8702   -8.0428 C   0  0  0  0  0  0  0  0  0  0  0  0
   -9.8372    2.6048   -8.8065 C   0  0  0  0  0  0  0  0  0  0  0  0
   -8.9142    2.3645  -10.0109 C   0  0  0  0  0  0  0  0  0  0  0  0
   -8.9867    3.5318  -11.0065 C   0  0  0  0  0  0  0  0  0  0  0  0
   -8.9691    6.2275   -8.5887 N   0  0  0  0  0  0  0  0  0  0  0  0
   -8.6262    6.9362   -9.6838 C   0  0  0  0  0  0  0  0  0  0  0  0
   -9.4369    5.0716  -13.1889 H   0  0  0  0  0  0  0  0  0  0  0  0
   -8.7178    3.7895  -19.3123 H   0  0  0  0  0  0  0  0  0  0  0  0
  -10.3119    3.0494  -17.5552 H   0  0  0  0  0  0  0  0  0  0  0  0
  -10.1214    3.9357  -15.2251 H   0  0  0  0  0  0  0  0  0  0  0  0
   -5.8652    6.9235  -16.6484 H   0  0  0  0  0  0  0  0  0  0  0  0
  -10.2213    4.1613   -7.3340 H   0  0  0  0  0  0  0  0  0  0  0  0
   -8.4944    3.6586   -7.4598 H   0  0  0  0  0  0  0  0  0  0  0  0
   -9.7942    1.7296   -8.1232 H   0  0  0  0  0  0  0  0  0  0  0  0
  -10.8858    2.7157   -9.1602 H   0  0  0  0  0  0  0  0  0  0  0  0
   -7.8670    2.2424   -9.6559 H   0  0  0  0  0  0  0  0  0  0  0  0
   -9.2124    1.4252  -10.5245 H   0  0  0  0  0  0  0  0  0  0  0  0
   -8.1554    3.4415  -11.7378 H   0  0  0  0  0  0  0  0  0  0  0  0
   -9.9553    3.4832  -11.5480 H   0  0  0  0  0  0  0  0  0  0  0  0
   -8.4148    7.9973   -9.6766 H   0  0  0  0  0  0  0  0  0  0  0  0
  1  2  1  0
  2  3  1  0
  3  4  1  0
  4  5  1  0
  5  6  2  0
  6  7  1  0
  7  8  2  0
  8  9  1  0
  6 10  1  0
  5 11  1  0
 11 12  1  0
  1 13  2  0
  1 14  1  0
 14 15  2  0
 15 16  1  0
 16 17  1  0
 17 18  1  0
 18 19  1  0
 19 20  1  0
 16 21  1  0
 21 22  2  0
  3 12  2  0
  9  4  2  0
 22 14  1  0
 20 15  1  0
  2 23  1  0
  7 24  1  0
  8 25  1  0
  9 26  1  0
 11 27  1  0
 17 28  1  0
 17 29  1  0
 18 30  1  0
 18 31  1  0
 19 32  1  0
 19 33  1  0
 20 34  1  0
 20 35  1  0
 22 36  1  0
A    1
 C1 
A    2
 N1 
A    3
 C2 
A    4
 C3 
A    5
 C4 
A    6
 C5 
A    7
 C6 
A    8
 C7 
A    9
 C8 
A   10
BR1 
A   11
 N2 
A   12
 N3 
A   13
 O1 
A   14
 C9 
A   15
 C10
A   16
 N4 
A   17
 C11
A   18
 C12
A   19
 C13
A   20
 C14
A   21
 N5 
A   22
 C15
A   23
 H1 
A   24
 H2 
A   25
 H3 
A   26
 H4 
A   27
 H5 
A   28
 H6 
A   29
 H7 
A   30
 H8 
A   31
 H9 
A   32
 H10
A   33
 H11
A   34
 H12
A   35
 H13
A   36
 H14
M  END
>  <ref_pdb>  (155) 
x0051_0B

>  <ref_mols>  (155) 
x0951_0B,x0969_1B

>  <original SMILES>  (155) 
[H]c1nn2c(c1C(=O)N([H])c1nn([H])c3c(Br)c([H])c([H])c([H])c13)C([H])([H])C([H])([H])C([H])([H])C2([H])[H]

>  <index>  (155) 
245

>  <∆∆G>  (155) 
-6.680193

>  <∆G_bound>  (155) 
-6.072172

>  <∆G_unbound>  (155) 
0.608021

>  <comRMSD>  (155) 
0.479823

>  <N_constrained_atoms>  (155) 
20.0

>  <N_unconstrained_atoms>  (155) 
2.0

>  <runtime>  (155) 
57.226909

>  <LE>  (155) 
0.303645

>  <percent_hybrid>  (155) 
48.0

>  <dist>  (155) 
7.0

>  <ecfp4>  (155) 
0.164706

>  <daylight>  (155) 
0.252125

>  <topodist>  (155) 
1.0

>  <mces>  (155) 
24.0

>  <tdn>  (155) 
0.0

>  <tup>  (155) 
1.0

>  <rdn>  (155) 
0.0

>  <rup>  (155) 
0.0

>  <ldn>  (155) 
0.0

>  <lup>  (155) 
0.0

>  <mut>  (155) 
5.0

>  <maj>  (155) 
5.0

>  <min>  (155) 
0.0

>  <hyb>  (155) 
1.0

>  <sub>  (155) 
1.0

>  <query_index>  (155) 
201.0

>  <max_hit_Tanimoto>  (155) 
0.298274

>  <largest_ring>  (155) 
6

>  <N_interactions_kept>  (155) 
1.5

>  <N_interactions_lost>  (155) 
1.5

>  <interaction_uniqueness_metric>  (155) 
0.121687

>  <ad_hoc_penalty>  (155) 
-26.289551

>  <N_rotatable_bonds>  (155) 
2

>  <N_HA>  (155) 
22

>  <cluster>  (155) 
5995

>  <N_interactions>  (155) 
5

>  <Enamine>  (155) 
0

>  <Mcule>  (155) 
1

>  <N_PAINS>  (155) 
0

>  <UFF_Gibbs>  (155) 
76.626973

>  <strain_per_HA>  (155) 
3.483044

>  <saltbridge:HIS:51>  (155) 
0

>  <pistack:HIS:51>  (155) 
1

>  <hydroph_interaction:HIS:51>  (155) 
1

>  <hbond:ALA:132>  (155) 
0

>  <hbond:SER:135>  (155) 
0

>  <hydroph_interaction:TYR:150>  (155) 
0

>  <pistack:TYR:161>  (155) 
2

>  <hydroph_interaction:TYR:161>  (155) 
0

>  <hydroph_interaction:ASP:83>  (155) 
0

>  <hbond:TYR:130>  (155) 
0

>  <hydroph_interaction:ALA:132>  (155) 
0

>  <hbond:HIS:51>  (155) 
0

>  <hbond:ASP:129>  (155) 
0

>  <hbond:TYR:150>  (155) 
0

>  <hbond:GLY:151>  (155) 
1

>  <hbond:TYR:161>  (155) 
0

>  <hydroph_interaction:TYR:130>  (155) 
0

>  <hydroph_interaction:PRO:131>  (155) 
0

>  <hydroph_interaction:ASP:129>  (155) 
0

>  <saltbridge:ASP:75>  (155) 
0

>  <saltbridge:ASP:83>  (155) 
0

>  <hydroph_interaction:ASN:152>  (155) 
0

>  <halogenbond:TYR:150>  (155) 
0

>  <hbond:ASP:83>  (155) 
0

>  <hydroph_interaction:VAL:155>  (155) 
0

>  <pication:TYR:161>  (155) 
0

>  <hbond:PRO:131>  (155) 
0

>  <hbond:LEU:128>  (155) 
0

>  <saltbridge:ASP:129>  (155) 
0

>  <hbond:THR:134>  (155) 
0

>  <pication:HIS:51>  (155) 
0

>  <hbond:SER:81>  (155) 
0

>  <hbond:GLY:159>  (155) 
0

>  <hydroph_interaction:PRO:101>  (155) 
0

>  <hydroph_interaction:THR:134>  (155) 
0

>  <hbond:GLY:82>  (155) 
0

>  <hydroph_interaction:GLU:104>  (155) 
0

>  <hydroph_interaction:VAL:36>  (155) 
0

>  <hydroph_interaction:MET:49>  (155) 
0

>  <halogenbond:GLU:104>  (155) 
0

>  <hydroph_interaction:LYS:107>  (155) 
0

$$$$
ABIHWDQUPBOJDY-UHFFFAOYSA-N
     RDKit          3D

 37 40  0  0  0  0  0  0  0  0999 V2000
   -9.8385    4.3185  -13.7310 O   0  0  0  0  0  0  0  0  0  0  0  0
   -8.5466    3.8022  -13.8765 C   0  0  0  0  0  0  0  0  0  0  0  0
   -8.1009    2.9596  -13.0504 O   0  0  0  0  0  0  0  0  0  0  0  0
   -7.6978    4.2345  -14.9997 C   0  0  0  0  0  0  0  0  0  0  0  0
   -7.9791    5.1649  -15.9886 C   0  0  0  0  0  0  0  0  0  0  0  0
   -6.8725    5.2205  -16.8013 C   0  0  0  0  0  0  0  0  0  0  0  0
   -6.8138    6.0669  -17.9077 C   0  0  0  0  0  0  0  0  0  0  0  0
   -7.9308    6.8765  -18.1773 C   0  0  0  0  0  0  0  0  0  0  0  0
   -9.0689    6.8240  -17.3443 C   0  0  0  0  0  0  0  0  0  0  0  0
   -9.1021    5.9612  -16.2339 C   0  0  0  0  0  0  0  0  0  0  0  0
   -5.9159    4.3784  -16.3760 N   0  0  0  0  0  0  0  0  0  0  0  0
   -6.4126    3.7728  -15.2747 C   0  0  0  0  0  0  0  0  0  0  0  0
  -10.6898    4.0074  -12.6310 C   0  0  0  0  0  0  0  0  0  0  0  0
  -10.2094    4.6971  -11.3931 C   0  0  0  0  0  0  0  0  0  0  0  0
   -9.5311    4.1561  -10.3289 C   0  0  0  0  0  0  0  0  0  0  0  0
   -9.2242    5.1252   -9.4611 N   0  0  0  0  0  0  0  0  0  0  0  0
   -8.4579    4.9093   -8.2373 C   0  0  0  0  0  0  0  0  0  0  0  0
   -8.5395    3.4265   -7.8191 C   0  0  0  0  0  0  0  0  0  0  0  0
   -8.3086    2.4955   -9.0284 C   0  0  0  0  0  0  0  0  0  0  0  0
   -9.1879    2.8246  -10.1082 O   0  0  0  0  0  0  0  0  0  0  0  0
   -9.6377    6.2930   -9.9268 N   0  0  0  0  0  0  0  0  0  0  0  0
  -10.2488    6.0560  -11.1114 C   0  0  0  0  0  0  0  0  0  0  0  0
   -5.9360    6.1014  -18.5399 H   0  0  0  0  0  0  0  0  0  0  0  0
   -7.9173    7.5448  -19.0284 H   0  0  0  0  0  0  0  0  0  0  0  0
   -9.9225    7.4531  -17.5611 H   0  0  0  0  0  0  0  0  0  0  0  0
   -9.9764    5.9293  -15.6004 H   0  0  0  0  0  0  0  0  0  0  0  0
   -4.9769    4.2216  -16.8051 H   0  0  0  0  0  0  0  0  0  0  0  0
   -5.8701    3.0335  -14.6996 H   0  0  0  0  0  0  0  0  0  0  0  0
  -10.7364    2.9074  -12.4774 H   0  0  0  0  0  0  0  0  0  0  0  0
  -11.7150    4.3638  -12.8628 H   0  0  0  0  0  0  0  0  0  0  0  0
   -7.3974    5.1861   -8.4204 H   0  0  0  0  0  0  0  0  0  0  0  0
   -8.8587    5.5507   -7.4234 H   0  0  0  0  0  0  0  0  0  0  0  0
   -9.5475    3.2229   -7.3965 H   0  0  0  0  0  0  0  0  0  0  0  0
   -7.7835    3.2165   -7.0324 H   0  0  0  0  0  0  0  0  0  0  0  0
   -8.4736    1.4391   -8.7300 H   0  0  0  0  0  0  0  0  0  0  0  0
   -7.2578    2.6006   -9.3746 H   0  0  0  0  0  0  0  0  0  0  0  0
  -10.6795    6.8254  -11.7382 H   0  0  0  0  0  0  0  0  0  0  0  0
  1  2  1  0
  2  3  2  0
  2  4  1  0
  4  5  1  0
  5  6  1  0
  6  7  2  0
  7  8  1  0
  8  9  2  0
  9 10  1  0
  6 11  1  0
 11 12  1  0
  1 13  1  0
 13 14  1  0
 14 15  2  0
 15 16  1  0
 16 17  1  0
 17 18  1  0
 18 19  1  0
 19 20  1  0
 16 21  1  0
 21 22  2  0
  4 12  2  0
 10  5  2  0
 22 14  1  0
 20 15  1  0
  7 23  1  0
  8 24  1  0
  9 25  1  0
 10 26  1  0
 11 27  1  0
 12 28  1  0
 13 29  1  0
 13 30  1  0
 17 31  1  0
 17 32  1  0
 18 33  1  0
 18 34  1  0
 19 35  1  0
 19 36  1  0
 22 37  1  0
A    1
 O1 
A    2
 C1 
A    3
 O2 
A    4
 C2 
A    5
 C3 
A    6
 C4 
A    7
 C5 
A    8
 C6 
A    9
 C7 
A   10
 C8 
A   11
 N1 
A   12
 C9 
A   13
 C10
A   14
 C11
A   15
 C12
A   16
 N2 
A   17
 C13
A   18
 C14
A   19
 C15
A   20
 O3 
A   21
 N3 
A   22
 C16
A   23
 H1 
A   24
 H2 
A   25
 H3 
A   26
 H4 
A   27
 H5 
A   28
 H6 
A   29
 H7 
A   30
 H8 
A   31
 H9 
A   32
 H10
A   33
 H11
A   34
 H12
A   35
 H13
A   36
 H14
A   37
 H15
M  END
>  <ref_pdb>  (156) 
x0051_0B

>  <ref_mols>  (156) 
x0969_1B,x0455_0B

>  <original SMILES>  (156) 
[H]c1nn2c(c1C([H])([H])OC(=O)c1c([H])n([H])c3c([H])c([H])c([H])c([H])c13)OC([H])([H])C([H])([H])C2([H])[H]

>  <index>  (156) 
309

>  <∆∆G>  (156) 
-5.597266

>  <∆G_bound>  (156) 
-5.285432

>  <∆G_unbound>  (156) 
0.311835

>  <comRMSD>  (156) 
0.802322

>  <N_constrained_atoms>  (156) 
20.0

>  <N_unconstrained_atoms>  (156) 
3.0

>  <runtime>  (156) 
53.053156

>  <LE>  (156) 
0.243359

>  <percent_hybrid>  (156) 
50.0

>  <dist>  (156) 
8.0

>  <ecfp4>  (156) 
0.271605

>  <daylight>  (156) 
0.281337

>  <topodist>  (156) 
2.0

>  <mces>  (156) 
24.0

>  <tdn>  (156) 
0.0

>  <tup>  (156) 
1.0

>  <rdn>  (156) 
0.0

>  <rup>  (156) 
0.0

>  <ldn>  (156) 
1.0

>  <lup>  (156) 
0.0

>  <mut>  (156) 
3.0

>  <maj>  (156) 
3.0

>  <min>  (156) 
0.0

>  <hyb>  (156) 
3.0

>  <sub>  (156) 
0.0

>  <query_index>  (156) 
204.0

>  <max_hit_Tanimoto>  (156) 
0.238382

>  <largest_ring>  (156) 
6

>  <N_interactions_kept>  (156) 
1.5

>  <N_interactions_lost>  (156) 
1.0

>  <interaction_uniqueness_metric>  (156) 
0.159753

>  <ad_hoc_penalty>  (156) 
-26.162256

>  <N_rotatable_bonds>  (156) 
3

>  <N_HA>  (156) 
22

>  <cluster>  (156) 
5936

>  <N_interactions>  (156) 
5

>  <Enamine>  (156) 
0

>  <Mcule>  (156) 
1

>  <N_PAINS>  (156) 
0

>  <UFF_Gibbs>  (156) 
58.948807

>  <strain_per_HA>  (156) 
2.562992

>  <saltbridge:HIS:51>  (156) 
1

>  <pistack:HIS:51>  (156) 
0

>  <hydroph_interaction:HIS:51>  (156) 
1

>  <hbond:ALA:132>  (156) 
0

>  <hbond:SER:135>  (156) 
0

>  <hydroph_interaction:TYR:150>  (156) 
1

>  <pistack:TYR:161>  (156) 
2

>  <hydroph_interaction:TYR:161>  (156) 
0

>  <hydroph_interaction:ASP:83>  (156) 
0

>  <hbond:TYR:130>  (156) 
0

>  <hydroph_interaction:ALA:132>  (156) 
0

>  <hbond:HIS:51>  (156) 
0

>  <hbond:ASP:129>  (156) 
0

>  <hbond:TYR:150>  (156) 
0

>  <hbond:GLY:151>  (156) 
0

>  <hbond:TYR:161>  (156) 
0

>  <hydroph_interaction:TYR:130>  (156) 
0

>  <hydroph_interaction:PRO:131>  (156) 
0

>  <hydroph_interaction:ASP:129>  (156) 
0

>  <saltbridge:ASP:75>  (156) 
0

>  <saltbridge:ASP:83>  (156) 
0

>  <hydroph_interaction:ASN:152>  (156) 
0

>  <halogenbond:TYR:150>  (156) 
0

>  <hbond:ASP:83>  (156) 
0

>  <hydroph_interaction:VAL:155>  (156) 
0

>  <pication:TYR:161>  (156) 
0

>  <hbond:PRO:131>  (156) 
0

>  <hbond:LEU:128>  (156) 
0

>  <saltbridge:ASP:129>  (156) 
0

>  <hbond:THR:134>  (156) 
0

>  <pication:HIS:51>  (156) 
0

>  <hbond:SER:81>  (156) 
0

>  <hbond:GLY:159>  (156) 
0

>  <hydroph_interaction:PRO:101>  (156) 
0

>  <hydroph_interaction:THR:134>  (156) 
0

>  <hbond:GLY:82>  (156) 
0

>  <hydroph_interaction:GLU:104>  (156) 
0

>  <hydroph_interaction:VAL:36>  (156) 
0

>  <hydroph_interaction:MET:49>  (156) 
0

>  <halogenbond:GLU:104>  (156) 
0

>  <hydroph_interaction:LYS:107>  (156) 
0

$$$$
CSSB00005462421
     RDKit          3D

 31 32  0  0  0  0  0  0  0  0999 V2000
   -5.5518    5.1247  -21.7610 O   0  0  0  0  0  0  0  0  0  0  0  0
   -4.3033    5.2992  -21.1702 C   0  0  0  0  0  0  0  0  0  0  0  0
   -3.3814    4.4700  -21.3939 O   0  0  0  0  0  0  0  0  0  0  0  0
   -4.0558    6.4711  -20.2636 C   0  0  0  0  0  0  0  0  0  0  0  0
   -4.3046    7.7994  -20.9809 C   0  0  0  0  0  0  0  0  0  0  0  0
   -5.6767    8.2751  -20.5122 C   0  0  0  0  0  0  0  0  0  0  0  0
   -5.9382    7.5579  -19.1943 C   0  0  0  0  0  0  0  0  0  0  0  0
   -4.9999    6.4464  -19.1552 N   0  0  0  0  0  0  0  0  0  0  0  0
   -4.8397    5.5889  -18.0097 C   0  0  0  0  0  0  0  0  0  0  0  0
   -3.7330    5.0240  -17.8000 O   0  0  0  0  0  0  0  0  0  0  0  0
   -5.9054    5.3989  -17.0700 N   0  0  0  0  0  0  0  0  0  0  0  0
   -7.2589    5.0982  -17.4489 C   0  0  0  0  0  0  0  0  0  0  0  0
   -7.5603    4.5236  -18.6985 C   0  0  0  0  0  0  0  0  0  0  0  0
   -8.8842    4.2303  -19.0387 C   0  0  0  0  0  0  0  0  0  0  0  0
   -9.9151    4.4941  -18.1333 C   0  0  0  0  0  0  0  0  0  0  0  0
   -9.6229    5.0461  -16.8835 C   0  0  0  0  0  0  0  0  0  0  0  0
   -8.3000    5.3417  -16.5397 C   0  0  0  0  0  0  0  0  0  0  0  0
   -5.7331    4.3356  -22.3696 H   0  0  0  0  0  0  0  0  0  0  0  0
   -3.0102    6.4492  -19.8815 H   0  0  0  0  0  0  0  0  0  0  0  0
   -3.5373    8.5383  -20.6601 H   0  0  0  0  0  0  0  0  0  0  0  0
   -4.2633    7.7112  -22.0895 H   0  0  0  0  0  0  0  0  0  0  0  0
   -5.7015    9.3792  -20.3854 H   0  0  0  0  0  0  0  0  0  0  0  0
   -6.4454    7.9762  -21.2586 H   0  0  0  0  0  0  0  0  0  0  0  0
   -6.9868    7.1986  -19.1599 H   0  0  0  0  0  0  0  0  0  0  0  0
   -5.7452    8.2394  -18.3375 H   0  0  0  0  0  0  0  0  0  0  0  0
   -5.6584    5.3800  -16.0547 H   0  0  0  0  0  0  0  0  0  0  0  0
   -6.7747    4.2933  -19.4051 H   0  0  0  0  0  0  0  0  0  0  0  0
   -9.1103    3.7933  -20.0028 H   0  0  0  0  0  0  0  0  0  0  0  0
  -10.9394    4.2653  -18.3978 H   0  0  0  0  0  0  0  0  0  0  0  0
  -10.4214    5.2445  -16.1803 H   0  0  0  0  0  0  0  0  0  0  0  0
   -8.0860    5.7700  -15.5685 H   0  0  0  0  0  0  0  0  0  0  0  0
  1  2  1  0
  2  3  2  0
  2  4  1  0
  4  5  1  0
  5  6  1  0
  6  7  1  0
  7  8  1  0
  8  9  1  0
  9 10  2  0
  9 11  1  0
 11 12  1  0
 12 13  2  0
 13 14  1  0
 14 15  2  0
 15 16  1  0
 16 17  2  0
  8  4  1  0
 17 12  1  0
  1 18  1  0
  4 19  1  0
  5 20  1  0
  5 21  1  0
  6 22  1  0
  6 23  1  0
  7 24  1  0
  7 25  1  0
 11 26  1  0
 13 27  1  0
 14 28  1  0
 15 29  1  0
 16 30  1  0
 17 31  1  0
A    1
 O1 
A    2
 C1 
A    3
 O2 
A    4
 C2 
A    5
 C3 
A    6
 C4 
A    7
 C5 
A    8
 N1 
A    9
 C6 
A   10
 O3 
A   11
 N2 
A   12
 C7 
A   13
 C8 
A   14
 C9 
A   15
 C10
A   16
 C11
A   17
 C12
A   18
 H1 
A   19
 H2 
A   20
 H3 
A   21
 H4 
A   22
 H5 
A   23
 H6 
A   24
 H7 
A   25
 H8 
A   26
 H9 
A   27
 H10
A   28
 H11
A   29
 H12
A   30
 H13
A   31
 H14
M  END
>  <ref_pdb>  (157) 
x0051_0B

>  <ref_mols>  (157) 
x0229_0B,x0904_0B

>  <original SMILES>  (157) 
[H]OC(=O)C1([H])N(C(=O)N([H])c2c([H])c([H])c([H])c([H])c2[H])C([H])([H])C([H])([H])C1([H])[H]

>  <index>  (157) 
95

>  <∆∆G>  (157) 
-7.704705

>  <∆G_bound>  (157) 
-5.922349

>  <∆G_unbound>  (157) 
1.782356

>  <comRMSD>  (157) 
0.749103

>  <N_constrained_atoms>  (157) 
20.0

>  <N_unconstrained_atoms>  (157) 
0.0

>  <runtime>  (157) 
32.097149

>  <LE>  (157) 
0.385235

>  <percent_hybrid>  (157) 
46.0

>  <dist>  (157) 
7.0

>  <ecfp4>  (157) 
0.215385

>  <daylight>  (157) 
0.28

>  <topodist>  (157) 
3.0

>  <mces>  (157) 
18.0

>  <tdn>  (157) 
2.0

>  <tup>  (157) 
0.0

>  <rdn>  (157) 
1.0

>  <rup>  (157) 
0.0

>  <ldn>  (157) 
0.0

>  <lup>  (157) 
0.0

>  <mut>  (157) 
4.0

>  <maj>  (157) 
4.0

>  <min>  (157) 
0.0

>  <hyb>  (157) 
0.0

>  <sub>  (157) 
2.0

>  <query_index>  (157) 
66.0

>  <max_hit_Tanimoto>  (157) 
0.279159

>  <largest_ring>  (157) 
6

>  <N_interactions_kept>  (157) 
2.0

>  <N_interactions_lost>  (157) 
1.5

>  <interaction_uniqueness_metric>  (157) 
0.216948

>  <ad_hoc_penalty>  (157) 
-26.082583

>  <N_rotatable_bonds>  (157) 
2

>  <N_HA>  (157) 
17

>  <cluster>  (157) 
6129

>  <N_interactions>  (157) 
5

>  <Enamine>  (157) 
1

>  <Mcule>  (157) 
0

>  <N_PAINS>  (157) 
0

>  <UFF_Gibbs>  (157) 
192.993128

>  <strain_per_HA>  (157) 
9.649656

>  <saltbridge:HIS:51>  (157) 
0

>  <pistack:HIS:51>  (157) 
0

>  <hydroph_interaction:HIS:51>  (157) 
0

>  <hbond:ALA:132>  (157) 
0

>  <hbond:SER:135>  (157) 
0

>  <hydroph_interaction:TYR:150>  (157) 
1

>  <pistack:TYR:161>  (157) 
0

>  <hydroph_interaction:TYR:161>  (157) 
2

>  <hydroph_interaction:ASP:83>  (157) 
0

>  <hbond:TYR:130>  (157) 
0

>  <hydroph_interaction:ALA:132>  (157) 
0

>  <hbond:HIS:51>  (157) 
0

>  <hbond:ASP:129>  (157) 
1

>  <hbond:TYR:150>  (157) 
0

>  <hbond:GLY:151>  (157) 
0

>  <hbond:TYR:161>  (157) 
0

>  <hydroph_interaction:TYR:130>  (157) 
0

>  <hydroph_interaction:PRO:131>  (157) 
0

>  <hydroph_interaction:ASP:129>  (157) 
0

>  <saltbridge:ASP:75>  (157) 
0

>  <saltbridge:ASP:83>  (157) 
0

>  <hydroph_interaction:ASN:152>  (157) 
0

>  <halogenbond:TYR:150>  (157) 
0

>  <hbond:ASP:83>  (157) 
0

>  <hydroph_interaction:VAL:155>  (157) 
0

>  <pication:TYR:161>  (157) 
0

>  <hbond:PRO:131>  (157) 
0

>  <hbond:LEU:128>  (157) 
0

>  <saltbridge:ASP:129>  (157) 
0

>  <hbond:THR:134>  (157) 
0

>  <pication:HIS:51>  (157) 
0

>  <hbond:SER:81>  (157) 
0

>  <hbond:GLY:159>  (157) 
1

>  <hydroph_interaction:PRO:101>  (157) 
0

>  <hydroph_interaction:THR:134>  (157) 
0

>  <hbond:GLY:82>  (157) 
0

>  <hydroph_interaction:GLU:104>  (157) 
0

>  <hydroph_interaction:VAL:36>  (157) 
0

>  <hydroph_interaction:MET:49>  (157) 
0

>  <halogenbond:GLU:104>  (157) 
0

>  <hydroph_interaction:LYS:107>  (157) 
0

$$$$
CSSB00028115066
     RDKit          3D

 42 45  0  0  0  0  0  0  0  0999 V2000
   -6.6823   11.2583  -25.9357 O   0  0  0  0  0  0  0  0  0  0  0  0
   -7.3303   10.3508  -26.5215 C   0  0  0  0  0  0  0  0  0  0  0  0
   -8.4852   10.5631  -27.1284 O   0  0  0  0  0  0  0  0  0  0  0  0
   -8.8535    9.3966  -27.6022 C   0  0  0  0  0  0  0  0  0  0  0  0
  -10.0023    9.0742  -28.3186 C   0  0  0  0  0  0  0  0  0  0  0  0
  -10.1711    7.7327  -28.7104 C   0  0  0  0  0  0  0  0  0  0  0  0
   -9.1979    6.7612  -28.3801 C   0  0  0  0  0  0  0  0  0  0  0  0
   -8.0460    7.1209  -27.6549 C   0  0  0  0  0  0  0  0  0  0  0  0
   -7.9099    8.4591  -27.2815 C   0  0  0  0  0  0  0  0  0  0  0  0
   -6.9205    9.0586  -26.5925 N   0  0  0  0  0  0  0  0  0  0  0  0
   -5.7417    8.4527  -25.9711 C   0  0  0  0  0  0  0  0  0  0  0  0
   -6.0945    7.9048  -24.6144 C   0  0  0  0  0  0  0  0  0  0  0  0
   -6.2250    8.7702  -23.5176 C   0  0  0  0  0  0  0  0  0  0  0  0
   -6.5864    8.2723  -22.2623 C   0  0  0  0  0  0  0  0  0  0  0  0
   -6.8279    6.8964  -22.0875 C   0  0  0  0  0  0  0  0  0  0  0  0
   -7.1941    6.3473  -20.8499 O   0  0  0  0  0  0  0  0  0  0  0  0
   -7.3620    7.1001  -19.6520 C   0  0  0  0  0  0  0  0  0  0  0  0
   -7.7555    6.1735  -18.5394 C   0  0  0  0  0  0  0  0  0  0  0  0
   -6.7705    5.5397  -17.7638 C   0  0  0  0  0  0  0  0  0  0  0  0
   -7.1380    4.6471  -16.7518 C   0  0  0  0  0  0  0  0  0  0  0  0
   -8.4880    4.3724  -16.5161 C   0  0  0  0  0  0  0  0  0  0  0  0
   -9.4727    4.9861  -17.2953 C   0  0  0  0  0  0  0  0  0  0  0  0
   -9.1095    5.8793  -18.3083 C   0  0  0  0  0  0  0  0  0  0  0  0
   -6.7011    6.0367  -23.1843 C   0  0  0  0  0  0  0  0  0  0  0  0
   -6.3398    6.5341  -24.4395 C   0  0  0  0  0  0  0  0  0  0  0  0
  -10.7398    9.8272  -28.5635 H   0  0  0  0  0  0  0  0  0  0  0  0
  -11.0520    7.4431  -29.2684 H   0  0  0  0  0  0  0  0  0  0  0  0
   -9.3386    5.7334  -28.6886 H   0  0  0  0  0  0  0  0  0  0  0  0
   -7.2966    6.3823  -27.4077 H   0  0  0  0  0  0  0  0  0  0  0  0
   -4.9362    9.2123  -25.8694 H   0  0  0  0  0  0  0  0  0  0  0  0
   -5.3391    7.6521  -26.6286 H   0  0  0  0  0  0  0  0  0  0  0  0
   -6.0468    9.8317  -23.6340 H   0  0  0  0  0  0  0  0  0  0  0  0
   -6.6769    8.9650  -21.4369 H   0  0  0  0  0  0  0  0  0  0  0  0
   -8.1498    7.8710  -19.7994 H   0  0  0  0  0  0  0  0  0  0  0  0
   -6.4112    7.6172  -19.3962 H   0  0  0  0  0  0  0  0  0  0  0  0
   -5.7206    5.7361  -17.9428 H   0  0  0  0  0  0  0  0  0  0  0  0
   -6.3759    4.1654  -16.1529 H   0  0  0  0  0  0  0  0  0  0  0  0
   -8.7707    3.6802  -15.7335 H   0  0  0  0  0  0  0  0  0  0  0  0
  -10.5175    4.7667  -17.1171 H   0  0  0  0  0  0  0  0  0  0  0  0
   -9.8818    6.3404  -18.9115 H   0  0  0  0  0  0  0  0  0  0  0  0
   -6.8852    4.9767  -23.0630 H   0  0  0  0  0  0  0  0  0  0  0  0
   -6.2485    5.8480  -25.2714 H   0  0  0  0  0  0  0  0  0  0  0  0
  1  2  2  0
  2  3  1  0
  3  4  1  0
  4  5  2  0
  5  6  1  0
  6  7  2  0
  7  8  1  0
  8  9  2  0
  9 10  1  0
 10 11  1  0
 11 12  1  0
 12 13  2  0
 13 14  1  0
 14 15  2  0
 15 16  1  0
 16 17  1  0
 17 18  1  0
 18 19  2  0
 19 20  1  0
 20 21  2  0
 21 22  1  0
 22 23  2  0
 15 24  1  0
 24 25  2  0
 10  2  1  0
  9  4  1  0
 25 12  1  0
 23 18  1  0
  5 26  1  0
  6 27  1  0
  7 28  1  0
  8 29  1  0
 11 30  1  0
 11 31  1  0
 13 32  1  0
 14 33  1  0
 17 34  1  0
 17 35  1  0
 19 36  1  0
 20 37  1  0
 21 38  1  0
 22 39  1  0
 23 40  1  0
 24 41  1  0
 25 42  1  0
A    1
 O1 
A    2
 C1 
A    3
 O2 
A    4
 C2 
A    5
 C3 
A    6
 C4 
A    7
 C5 
A    8
 C6 
A    9
 C7 
A   10
 N1 
A   11
 C8 
A   12
 C9 
A   13
 C10
A   14
 C11
A   15
 C12
A   16
 O3 
A   17
 C13
A   18
 C14
A   19
 C15
A   20
 C16
A   21
 C17
A   22
 C18
A   23
 C19
A   24
 C20
A   25
 C21
A   26
 H1 
A   27
 H2 
A   28
 H3 
A   29
 H4 
A   30
 H5 
A   31
 H6 
A   32
 H7 
A   33
 H8 
A   34
 H9 
A   35
 H10
A   36
 H11
A   37
 H12
A   38
 H13
A   39
 H14
A   40
 H15
A   41
 H16
A   42
 H17
M  END
>  <ref_pdb>  (158) 
x0051_0B

>  <ref_mols>  (158) 
x0846_1B,x0589_0B

>  <original SMILES>  (158) 
[H]c1c([H])c([H])c(C([H])([H])Oc2c([H])c([H])c(C([H])([H])n3c(=O)oc4c([H])c([H])c([H])c([H])c43)c([H])c2[H])c([H])c1[H]

>  <index>  (158) 
297

>  <∆∆G>  (158) 
-6.094874

>  <∆G_bound>  (158) 
-5.823642

>  <∆G_unbound>  (158) 
0.271232

>  <comRMSD>  (158) 
0.749375

>  <N_constrained_atoms>  (158) 
23.0

>  <N_unconstrained_atoms>  (158) 
5.0

>  <runtime>  (158) 
58.457088

>  <LE>  (158) 
0.217674

>  <percent_hybrid>  (158) 
35.0

>  <dist>  (158) 
7.0

>  <ecfp4>  (158) 
0.179487

>  <daylight>  (158) 
0.271493

>  <topodist>  (158) 
5.0

>  <mces>  (158) 
27.0

>  <tdn>  (158) 
2.0

>  <tup>  (158) 
0.0

>  <rdn>  (158) 
1.0

>  <rup>  (158) 
1.0

>  <ldn>  (158) 
1.0

>  <lup>  (158) 
0.0

>  <mut>  (158) 
2.0

>  <maj>  (158) 
2.0

>  <min>  (158) 
0.0

>  <hyb>  (158) 
0.0

>  <sub>  (158) 
3.0

>  <query_index>  (158) 
309.0

>  <max_hit_Tanimoto>  (158) 
0.224299

>  <largest_ring>  (158) 
6

>  <N_interactions_kept>  (158) 
1.0

>  <N_interactions_lost>  (158) 
1.0

>  <interaction_uniqueness_metric>  (158) 
0.177128

>  <ad_hoc_penalty>  (158) 
-26.033077

>  <N_rotatable_bonds>  (158) 
5

>  <N_HA>  (158) 
25

>  <cluster>  (158) 
5946

>  <N_interactions>  (158) 
6

>  <Enamine>  (158) 
1

>  <Mcule>  (158) 
0

>  <N_PAINS>  (158) 
0

>  <UFF_Gibbs>  (158) 
87.315294

>  <strain_per_HA>  (158) 
3.118403

>  <saltbridge:HIS:51>  (158) 
0

>  <pistack:HIS:51>  (158) 
0

>  <hydroph_interaction:HIS:51>  (158) 
0

>  <hbond:ALA:132>  (158) 
0

>  <hbond:SER:135>  (158) 
0

>  <hydroph_interaction:TYR:150>  (158) 
0

>  <pistack:TYR:161>  (158) 
0

>  <hydroph_interaction:TYR:161>  (158) 
2

>  <hydroph_interaction:ASP:83>  (158) 
0

>  <hbond:TYR:130>  (158) 
0

>  <hydroph_interaction:ALA:132>  (158) 
1

>  <hbond:HIS:51>  (158) 
0

>  <hbond:ASP:129>  (158) 
0

>  <hbond:TYR:150>  (158) 
0

>  <hbond:GLY:151>  (158) 
0

>  <hbond:TYR:161>  (158) 
0

>  <hydroph_interaction:TYR:130>  (158) 
1

>  <hydroph_interaction:PRO:131>  (158) 
1

>  <hydroph_interaction:ASP:129>  (158) 
1

>  <saltbridge:ASP:75>  (158) 
0

>  <saltbridge:ASP:83>  (158) 
0

>  <hydroph_interaction:ASN:152>  (158) 
0

>  <halogenbond:TYR:150>  (158) 
0

>  <hbond:ASP:83>  (158) 
0

>  <hydroph_interaction:VAL:155>  (158) 
0

>  <pication:TYR:161>  (158) 
0

>  <hbond:PRO:131>  (158) 
0

>  <hbond:LEU:128>  (158) 
0

>  <saltbridge:ASP:129>  (158) 
0

>  <hbond:THR:134>  (158) 
0

>  <pication:HIS:51>  (158) 
0

>  <hbond:SER:81>  (158) 
0

>  <hbond:GLY:159>  (158) 
0

>  <hydroph_interaction:PRO:101>  (158) 
0

>  <hydroph_interaction:THR:134>  (158) 
0

>  <hbond:GLY:82>  (158) 
0

>  <hydroph_interaction:GLU:104>  (158) 
0

>  <hydroph_interaction:VAL:36>  (158) 
0

>  <hydroph_interaction:MET:49>  (158) 
0

>  <halogenbond:GLU:104>  (158) 
0

>  <hydroph_interaction:LYS:107>  (158) 
0

$$$$
PV-006984779329
     RDKit          3D

 26 26  0  0  0  0  0  0  0  0999 V2000
   -2.6462    4.7599  -17.2664 C   0  0  0  0  0  0  0  0  0  0  0  0
   -3.4546    5.3355  -16.1066 C   0  0  0  0  0  0  0  0  0  0  0  0
   -4.9153    5.0194  -16.2480 C   0  0  0  0  0  0  0  0  0  0  0  0
   -5.6693    5.6035  -17.1872 C   0  0  0  0  0  0  0  0  0  0  0  0
   -7.1155    5.3116  -17.3513 C   0  0  0  0  0  0  0  0  0  0  0  0
   -7.9199    5.1445  -16.2081 C   0  0  0  0  0  0  0  0  0  0  0  0
   -9.2928    4.9438  -16.3268 C   0  0  0  0  0  0  0  0  0  0  0  0
   -9.8916    4.9354  -17.5828 C   0  0  0  0  0  0  0  0  0  0  0  0
   -9.1250    5.1123  -18.7375 C   0  0  0  0  0  0  0  0  0  0  0  0
   -9.7962    5.1454  -19.9627 O   0  0  0  0  0  0  0  0  0  0  0  0
   -7.7175    5.2613  -18.6393 C   0  0  0  0  0  0  0  0  0  0  0  0
   -6.8851    5.3658  -19.8976 C   0  0  0  0  0  0  0  0  0  0  0  0
   -1.5680    4.9727  -17.1084 H   0  0  0  0  0  0  0  0  0  0  0  0
   -2.7868    3.6593  -17.3245 H   0  0  0  0  0  0  0  0  0  0  0  0
   -2.9591    5.2204  -18.2275 H   0  0  0  0  0  0  0  0  0  0  0  0
   -3.0804    4.8938  -15.1581 H   0  0  0  0  0  0  0  0  0  0  0  0
   -3.3085    6.4363  -16.0533 H   0  0  0  0  0  0  0  0  0  0  0  0
   -5.3499    4.3018  -15.5630 H   0  0  0  0  0  0  0  0  0  0  0  0
   -5.2028    6.3024  -17.8712 H   0  0  0  0  0  0  0  0  0  0  0  0
   -7.4918    5.1992  -15.2151 H   0  0  0  0  0  0  0  0  0  0  0  0
   -9.8994    4.8199  -15.4389 H   0  0  0  0  0  0  0  0  0  0  0  0
  -10.9638    4.8064  -17.6606 H   0  0  0  0  0  0  0  0  0  0  0  0
   -9.3455    5.3635  -20.8414 H   0  0  0  0  0  0  0  0  0  0  0  0
   -7.2403    4.6431  -20.6609 H   0  0  0  0  0  0  0  0  0  0  0  0
   -6.9469    6.3975  -20.3024 H   0  0  0  0  0  0  0  0  0  0  0  0
   -5.8219    5.1044  -19.7250 H   0  0  0  0  0  0  0  0  0  0  0  0
  1  2  1  0
  2  3  1  0
  3  4  2  3
  4  5  1  0
  5  6  2  0
  6  7  1  0
  7  8  2  0
  8  9  1  0
  9 10  1  0
  9 11  2  0
 11 12  1  0
 11  5  1  0
  1 13  1  0
  1 14  1  0
  1 15  1  0
  2 16  1  0
  2 17  1  0
  3 18  1  0
  4 19  1  0
  6 20  1  0
  7 21  1  0
  8 22  1  0
 10 23  1  0
 12 24  1  0
 12 25  1  0
 12 26  1  0
A    1
 C1 
A    2
 C2 
A    3
 C3 
A    4
 C4 
A    5
 C5 
A    6
 C6 
A    7
 C7 
A    8
 C8 
A    9
 C9 
A   10
 O1 
A   11
 C10
A   12
 C11
A   13
 H1 
A   14
 H2 
A   15
 H3 
A   16
 H4 
A   17
 H5 
A   18
 H6 
A   19
 H7 
A   20
 H8 
A   21
 H9 
A   22
 H10
A   23
 H11
A   24
 H12
A   25
 H13
A   26
 H14
M  END
>  <ref_pdb>  (159) 
x0051_0B

>  <ref_mols>  (159) 
x0727_0B,x0800_0B

>  <original SMILES>  (159) 
[H]Oc1c([H])c([H])c([H])c(C([H])=C([H])C([H])([H])C([H])([H])[H])c1C([H])([H])[H]

>  <index>  (159) 
224

>  <∆∆G>  (159) 
-6.978789

>  <∆G_bound>  (159) 
-7.340336

>  <∆G_unbound>  (159) 
-0.361547

>  <comRMSD>  (159) 
0.678083

>  <N_constrained_atoms>  (159) 
13.0

>  <N_unconstrained_atoms>  (159) 
1.0

>  <runtime>  (159) 
26.774176

>  <LE>  (159) 
0.498485

>  <percent_hybrid>  (159) 
20.0

>  <dist>  (159) 
4.0

>  <ecfp4>  (159) 
0.2

>  <daylight>  (159) 
0.191176

>  <topodist>  (159) 
2.0

>  <mces>  (159) 
12.0

>  <tdn>  (159) 
0.0

>  <tup>  (159) 
0.0

>  <rdn>  (159) 
1.0

>  <rup>  (159) 
0.0

>  <ldn>  (159) 
1.0

>  <lup>  (159) 
0.0

>  <mut>  (159) 
0.0

>  <maj>  (159) 
0.0

>  <min>  (159) 
0.0

>  <hyb>  (159) 
2.0

>  <sub>  (159) 
1.0

>  <query_index>  (159) 
67.0

>  <max_hit_Tanimoto>  (159) 
0.098947

>  <largest_ring>  (159) 
6

>  <N_interactions_kept>  (159) 
3.0

>  <N_interactions_lost>  (159) 
1.0

>  <interaction_uniqueness_metric>  (159) 
0.083886

>  <ad_hoc_penalty>  (159) 
-26.019273

>  <N_rotatable_bonds>  (159) 
5

>  <N_HA>  (159) 
12

>  <cluster>  (159) 
6015

>  <N_interactions>  (159) 
6

>  <Enamine>  (159) 
1

>  <Mcule>  (159) 
0

>  <N_PAINS>  (159) 
0

>  <UFF_Gibbs>  (159) 
53.112585

>  <strain_per_HA>  (159) 
3.793756

>  <saltbridge:HIS:51>  (159) 
0

>  <pistack:HIS:51>  (159) 
0

>  <hydroph_interaction:HIS:51>  (159) 
0

>  <hbond:ALA:132>  (159) 
0

>  <hbond:SER:135>  (159) 
0

>  <hydroph_interaction:TYR:150>  (159) 
0

>  <pistack:TYR:161>  (159) 
0

>  <hydroph_interaction:TYR:161>  (159) 
3

>  <hydroph_interaction:ASP:83>  (159) 
0

>  <hbond:TYR:130>  (159) 
2

>  <hydroph_interaction:ALA:132>  (159) 
0

>  <hbond:HIS:51>  (159) 
0

>  <hbond:ASP:129>  (159) 
0

>  <hbond:TYR:150>  (159) 
0

>  <hbond:GLY:151>  (159) 
0

>  <hbond:TYR:161>  (159) 
0

>  <hydroph_interaction:TYR:130>  (159) 
0

>  <hydroph_interaction:PRO:131>  (159) 
0

>  <hydroph_interaction:ASP:129>  (159) 
0

>  <saltbridge:ASP:75>  (159) 
0

>  <saltbridge:ASP:83>  (159) 
0

>  <hydroph_interaction:ASN:152>  (159) 
0

>  <halogenbond:TYR:150>  (159) 
0

>  <hbond:ASP:83>  (159) 
0

>  <hydroph_interaction:VAL:155>  (159) 
1

>  <pication:TYR:161>  (159) 
0

>  <hbond:PRO:131>  (159) 
0

>  <hbond:LEU:128>  (159) 
0

>  <saltbridge:ASP:129>  (159) 
0

>  <hbond:THR:134>  (159) 
0

>  <pication:HIS:51>  (159) 
0

>  <hbond:SER:81>  (159) 
0

>  <hbond:GLY:159>  (159) 
0

>  <hydroph_interaction:PRO:101>  (159) 
0

>  <hydroph_interaction:THR:134>  (159) 
0

>  <hbond:GLY:82>  (159) 
0

>  <hydroph_interaction:GLU:104>  (159) 
0

>  <hydroph_interaction:VAL:36>  (159) 
0

>  <hydroph_interaction:MET:49>  (159) 
0

>  <halogenbond:GLU:104>  (159) 
0

>  <hydroph_interaction:LYS:107>  (159) 
0

$$$$
PV-003834261888
     RDKit          3D

 24 25  0  0  0  0  0  0  0  0999 V2000
  -10.3602    5.5290  -15.3130 C   0  0  0  0  0  0  0  0  0  0  0  0
   -9.4762    5.2001  -16.4683 C   0  0  0  0  0  0  0  0  0  0  0  0
   -8.1746    5.6290  -16.6302 C   0  0  0  0  0  0  0  0  0  0  0  0
   -7.7661    5.1045  -17.8423 C   0  0  0  0  0  0  0  0  0  0  0  0
   -6.4647    5.3132  -18.5197 C   0  0  0  0  0  0  0  0  0  0  0  0
   -6.4587    5.5867  -19.8984 C   0  0  0  0  0  0  0  0  0  0  0  0
   -5.2911    5.8175  -20.5526 N   0  0  0  0  0  0  0  0  0  0  0  0
   -4.0958    5.7872  -19.9118 C   0  0  0  0  0  0  0  0  0  0  0  0
   -4.0402    5.5035  -18.5483 C   0  0  0  0  0  0  0  0  0  0  0  0
   -5.2229    5.2424  -17.8386 C   0  0  0  0  0  0  0  0  0  0  0  0
   -5.1230    4.8953  -16.3765 C   0  0  0  0  0  0  0  0  0  0  0  0
   -8.8509    4.4100  -18.3488 C   0  0  0  0  0  0  0  0  0  0  0  0
   -9.8524    4.4834  -17.5025 O   0  0  0  0  0  0  0  0  0  0  0  0
  -10.7153    6.5764  -15.4046 H   0  0  0  0  0  0  0  0  0  0  0  0
  -11.2359    4.8469  -15.3004 H   0  0  0  0  0  0  0  0  0  0  0  0
   -9.7990    5.4127  -14.3621 H   0  0  0  0  0  0  0  0  0  0  0  0
   -7.6160    6.2715  -15.9635 H   0  0  0  0  0  0  0  0  0  0  0  0
   -7.3870    5.6394  -20.4527 H   0  0  0  0  0  0  0  0  0  0  0  0
   -3.1853    5.9796  -20.4635 H   0  0  0  0  0  0  0  0  0  0  0  0
   -3.0776    5.4749  -18.0524 H   0  0  0  0  0  0  0  0  0  0  0  0
   -4.1218    4.4791  -16.1342 H   0  0  0  0  0  0  0  0  0  0  0  0
   -5.2787    5.8072  -15.7642 H   0  0  0  0  0  0  0  0  0  0  0  0
   -5.8714    4.1230  -16.1017 H   0  0  0  0  0  0  0  0  0  0  0  0
   -8.8891    3.8823  -19.2927 H   0  0  0  0  0  0  0  0  0  0  0  0
  1  2  1  0
  2  3  2  0
  3  4  1  0
  4  5  1  0
  5  6  2  0
  6  7  1  0
  7  8  2  0
  8  9  1  0
  9 10  2  0
 10 11  1  0
  4 12  2  0
 12 13  1  0
 13  2  1  0
 10  5  1  0
  1 14  1  0
  1 15  1  0
  1 16  1  0
  3 17  1  0
  6 18  1  0
  8 19  1  0
  9 20  1  0
 11 21  1  0
 11 22  1  0
 11 23  1  0
 12 24  1  0
A    1
 C1 
A    2
 C2 
A    3
 C3 
A    4
 C4 
A    5
 C5 
A    6
 C6 
A    7
 N1 
A    8
 C7 
A    9
 C8 
A   10
 C9 
A   11
 C10
A   12
 C11
A   13
 O1 
A   14
 H1 
A   15
 H2 
A   16
 H3 
A   17
 H4 
A   18
 H5 
A   19
 H6 
A   20
 H7 
A   21
 H8 
A   22
 H9 
A   23
 H10
A   24
 H11
M  END
>  <ref_pdb>  (160) 
x0051_0B

>  <ref_mols>  (160) 
x0680_0B,x0386_0B

>  <original SMILES>  (160) 
[H]c1nc([H])c(-c2c([H])oc(C([H])([H])[H])c2[H])c(C([H])([H])[H])c1[H]

>  <index>  (160) 
71

>  <∆∆G>  (160) 
-7.412835

>  <∆G_bound>  (160) 
-7.569619

>  <∆G_unbound>  (160) 
-0.156783

>  <comRMSD>  (160) 
0.964236

>  <N_constrained_atoms>  (160) 
13.0

>  <N_unconstrained_atoms>  (160) 
1.0

>  <runtime>  (160) 
29.235873

>  <LE>  (160) 
0.529488

>  <percent_hybrid>  (160) 
25.0

>  <dist>  (160) 
2.0

>  <ecfp4>  (160) 
0.477273

>  <daylight>  (160) 
0.446043

>  <topodist>  (160) 
1.0

>  <mces>  (160) 
13.0

>  <tdn>  (160) 
0.0

>  <tup>  (160) 
1.0

>  <rdn>  (160) 
0.0

>  <rup>  (160) 
0.0

>  <ldn>  (160) 
0.0

>  <lup>  (160) 
0.0

>  <mut>  (160) 
1.0

>  <maj>  (160) 
1.0

>  <min>  (160) 
0.0

>  <hyb>  (160) 
0.0

>  <sub>  (160) 
1.0

>  <query_index>  (160) 
296.0

>  <max_hit_Tanimoto>  (160) 
0.167987

>  <largest_ring>  (160) 
6

>  <N_interactions_kept>  (160) 
3.5

>  <N_interactions_lost>  (160) 
0.5

>  <interaction_uniqueness_metric>  (160) 
0.040756

>  <ad_hoc_penalty>  (160) 
-25.984599

>  <N_rotatable_bonds>  (160) 
3

>  <N_HA>  (160) 
13

>  <cluster>  (160) 
6153

>  <N_interactions>  (160) 
5

>  <Enamine>  (160) 
1

>  <Mcule>  (160) 
0

>  <N_PAINS>  (160) 
0

>  <UFF_Gibbs>  (160) 
144.718212

>  <strain_per_HA>  (160) 
10.337015

>  <saltbridge:HIS:51>  (160) 
0

>  <pistack:HIS:51>  (160) 
0

>  <hydroph_interaction:HIS:51>  (160) 
0

>  <hbond:ALA:132>  (160) 
0

>  <hbond:SER:135>  (160) 
0

>  <hydroph_interaction:TYR:150>  (160) 
0

>  <pistack:TYR:161>  (160) 
0

>  <hydroph_interaction:TYR:161>  (160) 
4

>  <hydroph_interaction:ASP:83>  (160) 
0

>  <hbond:TYR:130>  (160) 
0

>  <hydroph_interaction:ALA:132>  (160) 
1

>  <hbond:HIS:51>  (160) 
0

>  <hbond:ASP:129>  (160) 
0

>  <hbond:TYR:150>  (160) 
0

>  <hbond:GLY:151>  (160) 
0

>  <hbond:TYR:161>  (160) 
0

>  <hydroph_interaction:TYR:130>  (160) 
0

>  <hydroph_interaction:PRO:131>  (160) 
0

>  <hydroph_interaction:ASP:129>  (160) 
0

>  <saltbridge:ASP:75>  (160) 
0

>  <saltbridge:ASP:83>  (160) 
0

>  <hydroph_interaction:ASN:152>  (160) 
0

>  <halogenbond:TYR:150>  (160) 
0

>  <hbond:ASP:83>  (160) 
0

>  <hydroph_interaction:VAL:155>  (160) 
0

>  <pication:TYR:161>  (160) 
0

>  <hbond:PRO:131>  (160) 
0

>  <hbond:LEU:128>  (160) 
0

>  <saltbridge:ASP:129>  (160) 
0

>  <hbond:THR:134>  (160) 
0

>  <pication:HIS:51>  (160) 
0

>  <hbond:SER:81>  (160) 
0

>  <hbond:GLY:159>  (160) 
0

>  <hydroph_interaction:PRO:101>  (160) 
0

>  <hydroph_interaction:THR:134>  (160) 
0

>  <hbond:GLY:82>  (160) 
0

>  <hydroph_interaction:GLU:104>  (160) 
0

>  <hydroph_interaction:VAL:36>  (160) 
0

>  <hydroph_interaction:MET:49>  (160) 
0

>  <halogenbond:GLU:104>  (160) 
0

>  <hydroph_interaction:LYS:107>  (160) 
0

$$$$
MCULE-9695114587
     RDKit          3D

 31 32  0  0  0  0  0  0  0  0999 V2000
   -6.0800    5.9294  -19.4725 C   0  0  0  0  0  0  0  0  0  0  0  0
   -4.7701    6.5315  -20.5382 S   0  0  0  0  0  0  0  0  0  0  0  0
   -7.2794    5.5346  -19.9704 N   0  0  0  0  0  0  0  0  0  0  0  0
   -7.9905    5.2601  -18.8634 C   0  0  0  0  0  0  0  0  0  0  0  0
   -7.2461    5.4950  -17.7427 C   0  0  0  0  0  0  0  0  0  0  0  0
   -7.7910    5.3658  -16.4614 C   0  0  0  0  0  0  0  0  0  0  0  0
   -9.1288    4.9426  -16.3579 C   0  0  0  0  0  0  0  0  0  0  0  0
   -9.8882    4.6794  -17.5194 C   0  0  0  0  0  0  0  0  0  0  0  0
   -9.3187    4.8463  -18.7947 C   0  0  0  0  0  0  0  0  0  0  0  0
   -6.0163    5.9015  -18.1117 N   0  0  0  0  0  0  0  0  0  0  0  0
   -4.9030    6.3248  -17.2476 C   0  0  0  0  0  0  0  0  0  0  0  0
   -3.9569    5.1561  -16.8362 C   0  0  0  0  0  0  0  0  0  0  0  0
   -3.3426    4.4769  -18.0749 C   0  0  0  0  0  0  0  0  0  0  0  0
   -2.8138    5.7363  -15.9777 C   0  0  0  0  0  0  0  0  0  0  0  0
   -4.7049    4.0975  -16.0021 C   0  0  0  0  0  0  0  0  0  0  0  0
   -4.2982    5.2330  -20.8008 H   0  0  0  0  0  0  0  0  0  0  0  0
   -7.2199    5.5912  -15.5725 H   0  0  0  0  0  0  0  0  0  0  0  0
   -9.5814    4.8262  -15.3818 H   0  0  0  0  0  0  0  0  0  0  0  0
  -10.9181    4.3598  -17.4281 H   0  0  0  0  0  0  0  0  0  0  0  0
   -9.8974    4.6692  -19.6920 H   0  0  0  0  0  0  0  0  0  0  0  0
   -4.3154    7.1109  -17.7699 H   0  0  0  0  0  0  0  0  0  0  0  0
   -5.3116    6.8137  -16.3366 H   0  0  0  0  0  0  0  0  0  0  0  0
   -4.1290    3.9889  -18.6882 H   0  0  0  0  0  0  0  0  0  0  0  0
   -2.8010    5.2185  -18.6996 H   0  0  0  0  0  0  0  0  0  0  0  0
   -2.6180    3.6905  -17.7711 H   0  0  0  0  0  0  0  0  0  0  0  0
   -2.1133    4.9349  -15.6566 H   0  0  0  0  0  0  0  0  0  0  0  0
   -3.2184    6.2280  -15.0665 H   0  0  0  0  0  0  0  0  0  0  0  0
   -2.2350    6.4914  -16.5526 H   0  0  0  0  0  0  0  0  0  0  0  0
   -5.1465    4.5547  -15.0916 H   0  0  0  0  0  0  0  0  0  0  0  0
   -5.5110    3.6182  -16.5960 H   0  0  0  0  0  0  0  0  0  0  0  0
   -4.0085    3.2951  -15.6754 H   0  0  0  0  0  0  0  0  0  0  0  0
  1  2  1  0
  1  3  2  0
  3  4  1  0
  4  5  2  0
  5  6  1  0
  6  7  2  0
  7  8  1  0
  8  9  2  0
  5 10  1  0
 10 11  1  0
 11 12  1  0
 12 13  1  0
 12 14  1  0
 12 15  1  0
 10  1  1  0
  9  4  1  0
  2 16  1  0
  6 17  1  0
  7 18  1  0
  8 19  1  0
  9 20  1  0
 11 21  1  0
 11 22  1  0
 13 23  1  0
 13 24  1  0
 13 25  1  0
 14 26  1  0
 14 27  1  0
 14 28  1  0
 15 29  1  0
 15 30  1  0
 15 31  1  0
A    1
 C1 
A    2
 S1 
A    3
 N1 
A    4
 C2 
A    5
 C3 
A    6
 C4 
A    7
 C5 
A    8
 C6 
A    9
 C7 
A   10
 N2 
A   11
 C8 
A   12
 C9 
A   13
 C10
A   14
 C11
A   15
 C12
A   16
 H1 
A   17
 H2 
A   18
 H3 
A   19
 H4 
A   20
 H5 
A   21
 H6 
A   22
 H7 
A   23
 H8 
A   24
 H9 
A   25
 H10
A   26
 H11
A   27
 H12
A   28
 H13
A   29
 H14
A   30
 H15
A   31
 H16
M  END
>  <ref_pdb>  (161) 
x0051_0B

>  <ref_mols>  (161) 
x0490_0B,x0089_0B

>  <original SMILES>  (161) 
[H]Sc1nc2c([H])c([H])c([H])c([H])c2n1C([H])([H])C(C([H])([H])[H])(C([H])([H])[H])C([H])([H])[H]

>  <index>  (161) 
116

>  <∆∆G>  (161) 
-7.029572

>  <∆G_bound>  (161) 
-8.243684

>  <∆G_unbound>  (161) 
-1.214112

>  <comRMSD>  (161) 
0.949174

>  <N_constrained_atoms>  (161) 
15.0

>  <N_unconstrained_atoms>  (161) 
3.0

>  <runtime>  (161) 
21.390141

>  <LE>  (161) 
0.390532

>  <percent_hybrid>  (161) 
34.0

>  <dist>  (161) 
3.0

>  <ecfp4>  (161) 
0.488372

>  <daylight>  (161) 
0.57265

>  <topodist>  (161) 
2.0

>  <mces>  (161) 
15.0

>  <tdn>  (161) 
0.0

>  <tup>  (161) 
1.0

>  <rdn>  (161) 
1.0

>  <rup>  (161) 
0.0

>  <ldn>  (161) 
0.0

>  <lup>  (161) 
0.0

>  <mut>  (161) 
1.0

>  <maj>  (161) 
1.0

>  <min>  (161) 
0.0

>  <hyb>  (161) 
0.0

>  <sub>  (161) 
0.0

>  <query_index>  (161) 
184.0

>  <max_hit_Tanimoto>  (161) 
0.626

>  <largest_ring>  (161) 
6

>  <N_interactions_kept>  (161) 
2.0

>  <N_interactions_lost>  (161) 
2.0

>  <interaction_uniqueness_metric>  (161) 
0.091834

>  <ad_hoc_penalty>  (161) 
-25.882725

>  <N_rotatable_bonds>  (161) 
2

>  <N_HA>  (161) 
15

>  <cluster>  (161) 
6110

>  <N_interactions>  (161) 
7

>  <Enamine>  (161) 
0

>  <Mcule>  (161) 
1

>  <N_PAINS>  (161) 
0

>  <UFF_Gibbs>  (161) 
147.036155

>  <strain_per_HA>  (161) 
8.168675

>  <saltbridge:HIS:51>  (161) 
0

>  <pistack:HIS:51>  (161) 
0

>  <hydroph_interaction:HIS:51>  (161) 
0

>  <hbond:ALA:132>  (161) 
0

>  <hbond:SER:135>  (161) 
0

>  <hydroph_interaction:TYR:150>  (161) 
1

>  <pistack:TYR:161>  (161) 
0

>  <hydroph_interaction:TYR:161>  (161) 
4

>  <hydroph_interaction:ASP:83>  (161) 
0

>  <hbond:TYR:130>  (161) 
1

>  <hydroph_interaction:ALA:132>  (161) 
0

>  <hbond:HIS:51>  (161) 
0

>  <hbond:ASP:129>  (161) 
0

>  <hbond:TYR:150>  (161) 
0

>  <hbond:GLY:151>  (161) 
0

>  <hbond:TYR:161>  (161) 
0

>  <hydroph_interaction:TYR:130>  (161) 
0

>  <hydroph_interaction:PRO:131>  (161) 
0

>  <hydroph_interaction:ASP:129>  (161) 
0

>  <saltbridge:ASP:75>  (161) 
0

>  <saltbridge:ASP:83>  (161) 
0

>  <hydroph_interaction:ASN:152>  (161) 
0

>  <halogenbond:TYR:150>  (161) 
0

>  <hbond:ASP:83>  (161) 
0

>  <hydroph_interaction:VAL:155>  (161) 
1

>  <pication:TYR:161>  (161) 
0

>  <hbond:PRO:131>  (161) 
0

>  <hbond:LEU:128>  (161) 
0

>  <saltbridge:ASP:129>  (161) 
0

>  <hbond:THR:134>  (161) 
0

>  <pication:HIS:51>  (161) 
0

>  <hbond:SER:81>  (161) 
0

>  <hbond:GLY:159>  (161) 
0

>  <hydroph_interaction:PRO:101>  (161) 
0

>  <hydroph_interaction:THR:134>  (161) 
0

>  <hbond:GLY:82>  (161) 
0

>  <hydroph_interaction:GLU:104>  (161) 
0

>  <hydroph_interaction:VAL:36>  (161) 
0

>  <hydroph_interaction:MET:49>  (161) 
0

>  <halogenbond:GLU:104>  (161) 
0

>  <hydroph_interaction:LYS:107>  (161) 
0

$$$$
MCULE-2448846059
     RDKit          3D

 32 34  0  0  0  0  0  0  0  0999 V2000
   -7.7990    5.2453  -18.0431 C   0  0  0  0  0  0  0  0  0  0  0  0
   -8.1143    5.4797  -16.7336 C   0  0  0  0  0  0  0  0  0  0  0  0
   -7.1129    5.8894  -15.7026 C   0  0  0  0  0  0  0  0  0  0  0  0
   -5.8981    6.5395  -16.3908 C   0  0  0  0  0  0  0  0  0  0  0  0
   -5.4702    5.7528  -17.5685 N   0  0  0  0  0  0  0  0  0  0  0  0
   -4.0690    5.5443  -17.8306 C   0  0  0  0  0  0  0  0  0  0  0  0
   -3.6443    5.5989  -19.0169 O   0  0  0  0  0  0  0  0  0  0  0  0
   -3.1293    5.2021  -16.7372 C   0  0  0  0  0  0  0  0  0  0  0  0
   -3.5398    4.2856  -15.7526 C   0  0  0  0  0  0  0  0  0  0  0  0
   -2.6779    3.9232  -14.7152 C   0  0  0  0  0  0  0  0  0  0  0  0
   -1.3959    4.4689  -14.6485 C   0  0  0  0  0  0  0  0  0  0  0  0
   -0.9732    5.3810  -15.6173 C   0  0  0  0  0  0  0  0  0  0  0  0
   -1.8283    5.7538  -16.6630 C   0  0  0  0  0  0  0  0  0  0  0  0
   -1.2405    6.9770  -17.8411 S   0  0  0  0  0  0  0  0  0  0  0  0
   -6.4459    5.4691  -18.6379 C   0  0  0  0  0  0  0  0  0  0  0  0
   -9.4116    5.1869  -16.5288 N   0  0  0  0  0  0  0  0  0  0  0  0
   -9.9542    4.7958  -17.6750 N   0  0  0  0  0  0  0  0  0  0  0  0
   -8.9839    4.8304  -18.6125 C   0  0  0  0  0  0  0  0  0  0  0  0
   -9.1829    4.4897  -19.9464 O   0  0  0  0  0  0  0  0  0  0  0  0
   -7.5730    6.6075  -14.9910 H   0  0  0  0  0  0  0  0  0  0  0  0
   -6.7853    4.9878  -15.1429 H   0  0  0  0  0  0  0  0  0  0  0  0
   -6.1718    7.5637  -16.7258 H   0  0  0  0  0  0  0  0  0  0  0  0
   -5.0790    6.6453  -15.6487 H   0  0  0  0  0  0  0  0  0  0  0  0
   -4.5261    3.8398  -15.7945 H   0  0  0  0  0  0  0  0  0  0  0  0
   -3.0037    3.2153  -13.9640 H   0  0  0  0  0  0  0  0  0  0  0  0
   -0.7294    4.1870  -13.8436 H   0  0  0  0  0  0  0  0  0  0  0  0
    0.0211    5.8043  -15.5500 H   0  0  0  0  0  0  0  0  0  0  0  0
   -0.7072    5.9857  -18.6860 H   0  0  0  0  0  0  0  0  0  0  0  0
   -6.4883    6.3283  -19.3404 H   0  0  0  0  0  0  0  0  0  0  0  0
   -6.1473    4.5545  -19.1945 H   0  0  0  0  0  0  0  0  0  0  0  0
   -9.9260    5.2460  -15.6223 H   0  0  0  0  0  0  0  0  0  0  0  0
   -8.4230    4.5325  -20.6146 H   0  0  0  0  0  0  0  0  0  0  0  0
  1  2  2  0
  2  3  1  0
  3  4  1  0
  4  5  1  0
  5  6  1  0
  6  7  2  0
  6  8  1  0
  8  9  2  0
  9 10  1  0
 10 11  2  0
 11 12  1  0
 12 13  2  0
 13 14  1  0
  5 15  1  0
  2 16  1  0
 16 17  1  0
 17 18  2  0
 18 19  1  0
 15  1  1  0
 18  1  1  0
 13  8  1  0
  3 20  1  0
  3 21  1  0
  4 22  1  0
  4 23  1  0
  9 24  1  0
 10 25  1  0
 11 26  1  0
 12 27  1  0
 14 28  1  0
 15 29  1  0
 15 30  1  0
 16 31  1  0
 19 32  1  0
A    1
 C1 
A    2
 C2 
A    3
 C3 
A    4
 C4 
A    5
 N1 
A    6
 C5 
A    7
 O1 
A    8
 C6 
A    9
 C7 
A   10
 C8 
A   11
 C9 
A   12
 C10
A   13
 C11
A   14
 S1 
A   15
 C12
A   16
 N2 
A   17
 N3 
A   18
 C13
A   19
 O2 
A   20
 H1 
A   21
 H2 
A   22
 H3 
A   23
 H4 
A   24
 H5 
A   25
 H6 
A   26
 H7 
A   27
 H8 
A   28
 H9 
A   29
 H10
A   30
 H11
A   31
 H12
A   32
 H13
M  END
>  <ref_pdb>  (162) 
x0051_0B

>  <ref_mols>  (162) 
x0472_0B,x0852_0B

>  <original SMILES>  (162) 
[H]Oc1nn([H])c2c1C([H])([H])N(C(=O)c1c([H])c([H])c([H])c([H])c1S[H])C([H])([H])C2([H])[H]

>  <index>  (162) 
251

>  <∆∆G>  (162) 
-6.860844

>  <∆G_bound>  (162) 
-6.784598

>  <∆G_unbound>  (162) 
0.076246

>  <comRMSD>  (162) 
0.513197

>  <N_constrained_atoms>  (162) 
16.0

>  <N_unconstrained_atoms>  (162) 
5.0

>  <runtime>  (162) 
25.597849

>  <LE>  (162) 
0.326707

>  <percent_hybrid>  (162) 
43.0

>  <dist>  (162) 
10.0

>  <ecfp4>  (162) 
0.144444

>  <daylight>  (162) 
0.294498

>  <topodist>  (162) 
4.0

>  <mces>  (162) 
21.0

>  <tdn>  (162) 
2.0

>  <tup>  (162) 
0.0

>  <rdn>  (162) 
1.0

>  <rup>  (162) 
0.0

>  <ldn>  (162) 
1.0

>  <lup>  (162) 
0.0

>  <mut>  (162) 
5.0

>  <maj>  (162) 
4.0

>  <min>  (162) 
1.0

>  <hyb>  (162) 
1.0

>  <sub>  (162) 
1.0

>  <query_index>  (162) 
178.0

>  <max_hit_Tanimoto>  (162) 
0.253057

>  <largest_ring>  (162) 
6

>  <N_interactions_kept>  (162) 
5.0

>  <N_interactions_lost>  (162) 
1.5

>  <interaction_uniqueness_metric>  (162) 
0.076311

>  <ad_hoc_penalty>  (162) 
-25.867831

>  <N_rotatable_bonds>  (162) 
3

>  <N_HA>  (162) 
19

>  <cluster>  (162) 
5989

>  <N_interactions>  (162) 
6

>  <Enamine>  (162) 
0

>  <Mcule>  (162) 
1

>  <N_PAINS>  (162) 
0

>  <UFF_Gibbs>  (162) 
67.073632

>  <strain_per_HA>  (162) 
3.193982

>  <saltbridge:HIS:51>  (162) 
0

>  <pistack:HIS:51>  (162) 
0

>  <hydroph_interaction:HIS:51>  (162) 
0

>  <hbond:ALA:132>  (162) 
0

>  <hbond:SER:135>  (162) 
0

>  <hydroph_interaction:TYR:150>  (162) 
0

>  <pistack:TYR:161>  (162) 
0

>  <hydroph_interaction:TYR:161>  (162) 
4

>  <hydroph_interaction:ASP:83>  (162) 
0

>  <hbond:TYR:130>  (162) 
1

>  <hydroph_interaction:ALA:132>  (162) 
0

>  <hbond:HIS:51>  (162) 
0

>  <hbond:ASP:129>  (162) 
0

>  <hbond:TYR:150>  (162) 
0

>  <hbond:GLY:151>  (162) 
0

>  <hbond:TYR:161>  (162) 
0

>  <hydroph_interaction:TYR:130>  (162) 
0

>  <hydroph_interaction:PRO:131>  (162) 
0

>  <hydroph_interaction:ASP:129>  (162) 
0

>  <saltbridge:ASP:75>  (162) 
0

>  <saltbridge:ASP:83>  (162) 
0

>  <hydroph_interaction:ASN:152>  (162) 
0

>  <halogenbond:TYR:150>  (162) 
0

>  <hbond:ASP:83>  (162) 
0

>  <hydroph_interaction:VAL:155>  (162) 
1

>  <pication:TYR:161>  (162) 
0

>  <hbond:PRO:131>  (162) 
0

>  <hbond:LEU:128>  (162) 
0

>  <saltbridge:ASP:129>  (162) 
0

>  <hbond:THR:134>  (162) 
0

>  <pication:HIS:51>  (162) 
0

>  <hbond:SER:81>  (162) 
0

>  <hbond:GLY:159>  (162) 
0

>  <hydroph_interaction:PRO:101>  (162) 
0

>  <hydroph_interaction:THR:134>  (162) 
0

>  <hbond:GLY:82>  (162) 
0

>  <hydroph_interaction:GLU:104>  (162) 
0

>  <hydroph_interaction:VAL:36>  (162) 
0

>  <hydroph_interaction:MET:49>  (162) 
0

>  <halogenbond:GLU:104>  (162) 
0

>  <hydroph_interaction:LYS:107>  (162) 
0

$$$$
MCULE-4295529499
     RDKit          3D

 55 58  0  0  0  0  0  0  0  0999 V2000
   -6.6816    6.0781  -19.2330 C   0  0  0  0  0  0  0  0  0  0  0  0
   -6.5736    7.2079  -20.0602 C   0  0  0  0  0  0  0  0  0  0  0  0
   -5.4854    7.3424  -20.9280 C   0  0  0  0  0  0  0  0  0  0  0  0
   -4.4978    6.3545  -20.9723 C   0  0  0  0  0  0  0  0  0  0  0  0
   -4.5946    5.2315  -20.1461 C   0  0  0  0  0  0  0  0  0  0  0  0
   -5.6798    5.0944  -19.2749 C   0  0  0  0  0  0  0  0  0  0  0  0
   -7.8194    5.9372  -18.2989 C   0  0  0  0  0  0  0  0  0  0  0  0
   -9.1537    5.8239  -18.7483 C   0  0  0  0  0  0  0  0  0  0  0  0
   -9.5051    5.8210  -20.2080 C   0  0  0  0  0  0  0  0  0  0  0  0
  -10.1582    5.6997  -17.8386 N   0  0  0  0  0  0  0  0  0  0  0  0
   -9.9295    5.6765  -16.4999 C   0  0  0  0  0  0  0  0  0  0  0  0
   -8.6215    5.7878  -16.0049 C   0  0  0  0  0  0  0  0  0  0  0  0
   -8.3368    5.7334  -14.5957 N   0  0  0  0  0  0  0  0  0  0  0  0
   -9.2497    6.1724  -13.5755 C   0  0  0  0  0  0  0  0  0  0  0  0
   -9.1171    5.6899  -12.1791 C   0  0  0  0  0  0  0  0  0  0  0  0
   -9.7280    6.3932  -11.1257 C   0  0  0  0  0  0  0  0  0  0  0  0
   -9.6094    5.9438   -9.8077 C   0  0  0  0  0  0  0  0  0  0  0  0
   -8.8783    4.7815   -9.5145 C   0  0  0  0  0  0  0  0  0  0  0  0
   -8.7634    4.3135   -8.1567 N   0  0  0  0  0  0  0  0  0  0  0  0
   -9.1006    2.9228   -7.8313 C   0  0  0  0  0  0  0  0  0  0  0  0
   -9.0535    2.6811   -6.3131 C   0  0  0  0  0  0  0  0  0  0  0  0
   -9.7691    3.7297   -5.5475 N   0  0  0  0  0  0  0  0  0  0  0  0
  -11.2160    3.4642   -5.4952 C   0  0  0  0  0  0  0  0  0  0  0  0
   -9.4852    5.1287   -5.9732 C   0  0  0  0  0  0  0  0  0  0  0  0
   -8.4166    5.2299   -7.0671 C   0  0  0  0  0  0  0  0  0  0  0  0
   -8.2829    4.0675  -10.5659 C   0  0  0  0  0  0  0  0  0  0  0  0
   -8.4011    4.5158  -11.8848 C   0  0  0  0  0  0  0  0  0  0  0  0
  -10.1464    7.0130  -13.8587 O   0  0  0  0  0  0  0  0  0  0  0  0
   -7.5680    5.8977  -16.9198 C   0  0  0  0  0  0  0  0  0  0  0  0
   -7.3223    7.9894  -20.0229 H   0  0  0  0  0  0  0  0  0  0  0  0
   -5.4042    8.2165  -21.5609 H   0  0  0  0  0  0  0  0  0  0  0  0
   -3.6555    6.4608  -21.6434 H   0  0  0  0  0  0  0  0  0  0  0  0
   -3.8277    4.4683  -20.1794 H   0  0  0  0  0  0  0  0  0  0  0  0
   -5.7436    4.2202  -18.6386 H   0  0  0  0  0  0  0  0  0  0  0  0
   -8.8244    5.1468  -20.7693 H   0  0  0  0  0  0  0  0  0  0  0  0
   -9.4315    6.8503  -20.6153 H   0  0  0  0  0  0  0  0  0  0  0  0
  -10.5448    5.4594  -20.3547 H   0  0  0  0  0  0  0  0  0  0  0  0
  -10.7678    5.5432  -15.8304 H   0  0  0  0  0  0  0  0  0  0  0  0
   -7.3704    5.4614  -14.3032 H   0  0  0  0  0  0  0  0  0  0  0  0
  -10.2954    7.2948  -11.3194 H   0  0  0  0  0  0  0  0  0  0  0  0
  -10.1023    6.4950   -9.0172 H   0  0  0  0  0  0  0  0  0  0  0  0
  -10.1199    2.6938   -8.2093 H   0  0  0  0  0  0  0  0  0  0  0  0
   -8.3830    2.2329   -8.3232 H   0  0  0  0  0  0  0  0  0  0  0  0
   -9.4589    1.6702   -6.0851 H   0  0  0  0  0  0  0  0  0  0  0  0
   -7.9920    2.6646   -5.9840 H   0  0  0  0  0  0  0  0  0  0  0  0
  -11.7194    4.2172   -4.8517 H   0  0  0  0  0  0  0  0  0  0  0  0
  -11.4091    2.4681   -5.0441 H   0  0  0  0  0  0  0  0  0  0  0  0
  -11.6652    3.4993   -6.5111 H   0  0  0  0  0  0  0  0  0  0  0  0
   -9.1418    5.7041   -5.0876 H   0  0  0  0  0  0  0  0  0  0  0  0
  -10.4010    5.6371   -6.3545 H   0  0  0  0  0  0  0  0  0  0  0  0
   -8.3361    6.2799   -7.4220 H   0  0  0  0  0  0  0  0  0  0  0  0
   -7.4252    4.9479   -6.6517 H   0  0  0  0  0  0  0  0  0  0  0  0
   -7.7130    3.1706  -10.3659 H   0  0  0  0  0  0  0  0  0  0  0  0
   -7.9427    3.9303  -12.6713 H   0  0  0  0  0  0  0  0  0  0  0  0
   -6.5498    5.9737  -16.5555 H   0  0  0  0  0  0  0  0  0  0  0  0
  1  2  2  0
  2  3  1  0
  3  4  2  0
  4  5  1  0
  5  6  2  0
  1  7  1  0
  7  8  2  0
  8  9  1  0
  8 10  1  0
 10 11  2  0
 11 12  1  0
 12 13  1  0
 13 14  1  0
 14 15  1  0
 15 16  2  0
 16 17  1  0
 17 18  2  0
 18 19  1  0
 19 20  1  0
 20 21  1  0
 21 22  1  0
 22 23  1  0
 22 24  1  0
 24 25  1  0
 18 26  1  0
 26 27  2  0
 14 28  2  0
 12 29  2  0
  6  1  1  0
  7 29  1  0
 15 27  1  0
 25 19  1  0
  2 30  1  0
  3 31  1  0
  4 32  1  0
  5 33  1  0
  6 34  1  0
  9 35  1  0
  9 36  1  0
  9 37  1  0
 11 38  1  0
 13 39  1  0
 16 40  1  0
 17 41  1  0
 20 42  1  0
 20 43  1  0
 21 44  1  0
 21 45  1  0
 23 46  1  0
 23 47  1  0
 23 48  1  0
 24 49  1  0
 24 50  1  0
 25 51  1  0
 25 52  1  0
 26 53  1  0
 27 54  1  0
 29 55  1  0
A    1
 C1 
A    2
 C2 
A    3
 C3 
A    4
 C4 
A    5
 C5 
A    6
 C6 
A    7
 C7 
A    8
 C8 
A    9
 C9 
A   10
 N1 
A   11
 C10
A   12
 C11
A   13
 N2 
A   14
 C12
A   15
 C13
A   16
 C14
A   17
 C15
A   18
 C16
A   19
 N3 
A   20
 C17
A   21
 C18
A   22
 N4 
A   23
 C19
A   24
 C20
A   25
 C21
A   26
 C22
A   27
 C23
A   28
 O1 
A   29
 C24
A   30
 H1 
A   31
 H2 
A   32
 H3 
A   33
 H4 
A   34
 H5 
A   35
 H6 
A   36
 H7 
A   37
 H8 
A   38
 H9 
A   39
 H10
A   40
 H11
A   41
 H12
A   42
 H13
A   43
 H14
A   44
 H15
A   45
 H16
A   46
 H17
A   47
 H18
A   48
 H19
A   49
 H20
A   50
 H21
A   51
 H22
A   52
 H23
A   53
 H24
A   54
 H25
A   55
 H26
M  END
>  <ref_pdb>  (163) 
x0051_0B

>  <ref_mols>  (163) 
x0404_0B,x0803_0B

>  <original SMILES>  (163) 
[H]c1nc(C([H])([H])[H])c(-c2c([H])c([H])c([H])c([H])c2[H])c([H])c1N([H])C(=O)c1c([H])c([H])c(N2C([H])([H])C([H])([H])N(C([H])([H])[H])C([H])([H])C2([H])[H])c([H])c1[H]

>  <index>  (163) 
296

>  <∆∆G>  (163) 
-7.205671

>  <∆G_bound>  (163) 
-7.239163

>  <∆G_unbound>  (163) 
-0.033492

>  <comRMSD>  (163) 
0.910063

>  <N_constrained_atoms>  (163) 
28.0

>  <N_unconstrained_atoms>  (163) 
1.0

>  <runtime>  (163) 
108.039286

>  <LE>  (163) 
0.248471

>  <percent_hybrid>  (163) 
43.0

>  <dist>  (163) 
12.0

>  <ecfp4>  (163) 
0.172414

>  <daylight>  (163) 
0.196491

>  <topodist>  (163) 
3.0

>  <mces>  (163) 
30.0

>  <tdn>  (163) 
1.0

>  <tup>  (163) 
1.0

>  <rdn>  (163) 
0.0

>  <rup>  (163) 
0.0

>  <ldn>  (163) 
0.0

>  <lup>  (163) 
1.0

>  <mut>  (163) 
3.0

>  <maj>  (163) 
3.0

>  <min>  (163) 
0.0

>  <hyb>  (163) 
6.0

>  <sub>  (163) 
1.0

>  <query_index>  (163) 
94.0

>  <max_hit_Tanimoto>  (163) 
0.25315

>  <largest_ring>  (163) 
6

>  <N_interactions_kept>  (163) 
4.0

>  <N_interactions_lost>  (163) 
3.0

>  <interaction_uniqueness_metric>  (163) 
0.356432

>  <ad_hoc_penalty>  (163) 
-25.719361

>  <N_rotatable_bonds>  (163) 
6

>  <N_HA>  (163) 
29

>  <cluster>  (163) 
488

>  <N_interactions>  (163) 
9

>  <Enamine>  (163) 
0

>  <Mcule>  (163) 
1

>  <N_PAINS>  (163) 
0

>  <UFF_Gibbs>  (163) 
156.003533

>  <strain_per_HA>  (163) 
5.379432

>  <saltbridge:HIS:51>  (163) 
0

>  <pistack:HIS:51>  (163) 
1

>  <hydroph_interaction:HIS:51>  (163) 
1

>  <hbond:ALA:132>  (163) 
0

>  <hbond:SER:135>  (163) 
0

>  <hydroph_interaction:TYR:150>  (163) 
1

>  <pistack:TYR:161>  (163) 
0

>  <hydroph_interaction:TYR:161>  (163) 
3

>  <hydroph_interaction:ASP:83>  (163) 
0

>  <hbond:TYR:130>  (163) 
0

>  <hydroph_interaction:ALA:132>  (163) 
1

>  <hbond:HIS:51>  (163) 
0

>  <hbond:ASP:129>  (163) 
0

>  <hbond:TYR:150>  (163) 
0

>  <hbond:GLY:151>  (163) 
0

>  <hbond:TYR:161>  (163) 
0

>  <hydroph_interaction:TYR:130>  (163) 
0

>  <hydroph_interaction:PRO:131>  (163) 
0

>  <hydroph_interaction:ASP:129>  (163) 
0

>  <saltbridge:ASP:75>  (163) 
1

>  <saltbridge:ASP:83>  (163) 
1

>  <hydroph_interaction:ASN:152>  (163) 
0

>  <halogenbond:TYR:150>  (163) 
0

>  <hbond:ASP:83>  (163) 
0

>  <hydroph_interaction:VAL:155>  (163) 
0

>  <pication:TYR:161>  (163) 
0

>  <hbond:PRO:131>  (163) 
0

>  <hbond:LEU:128>  (163) 
0

>  <saltbridge:ASP:129>  (163) 
0

>  <hbond:THR:134>  (163) 
0

>  <pication:HIS:51>  (163) 
0

>  <hbond:SER:81>  (163) 
0

>  <hbond:GLY:159>  (163) 
0

>  <hydroph_interaction:PRO:101>  (163) 
0

>  <hydroph_interaction:THR:134>  (163) 
0

>  <hbond:GLY:82>  (163) 
0

>  <hydroph_interaction:GLU:104>  (163) 
0

>  <hydroph_interaction:VAL:36>  (163) 
0

>  <hydroph_interaction:MET:49>  (163) 
0

>  <halogenbond:GLU:104>  (163) 
0

>  <hydroph_interaction:LYS:107>  (163) 
0

$$$$
QUWHDNGEIUUFRW-UHFFFAOYSA-N
     RDKit          3D

 42 44  0  0  0  0  0  0  0  0999 V2000
   -9.9982    5.8954  -13.7525 O   0  0  0  0  0  0  0  0  0  0  0  0
   -8.8086    6.0153  -14.4818 C   0  0  0  0  0  0  0  0  0  0  0  0
   -7.8801    6.7584  -14.0585 O   0  0  0  0  0  0  0  0  0  0  0  0
   -8.6451    5.2696  -15.7492 C   0  0  0  0  0  0  0  0  0  0  0  0
   -9.6728    4.4308  -16.2133 C   0  0  0  0  0  0  0  0  0  0  0  0
   -9.5133    3.7068  -17.3968 C   0  0  0  0  0  0  0  0  0  0  0  0
   -8.3325    3.8168  -18.1332 C   0  0  0  0  0  0  0  0  0  0  0  0
   -7.3040    4.6606  -17.7014 C   0  0  0  0  0  0  0  0  0  0  0  0
   -6.1314    4.7298  -18.4681 O   0  0  0  0  0  0  0  0  0  0  0  0
   -5.2804    5.8416  -18.5500 C   0  0  0  0  0  0  0  0  0  0  0  0
   -3.9577    5.6863  -19.0918 N   0  0  0  0  0  0  0  0  0  0  0  0
   -3.0705    6.8482  -19.1955 C   0  0  0  0  0  0  0  0  0  0  0  0
   -3.5094    4.3594  -19.5191 C   0  0  0  0  0  0  0  0  0  0  0  0
   -5.6857    6.9833  -18.1962 O   0  0  0  0  0  0  0  0  0  0  0  0
   -7.4576    5.3749  -16.4978 C   0  0  0  0  0  0  0  0  0  0  0  0
  -10.2007    6.5024  -12.4786 C   0  0  0  0  0  0  0  0  0  0  0  0
   -9.3488    5.8375  -11.4402 C   0  0  0  0  0  0  0  0  0  0  0  0
   -9.2891    4.4999  -11.1135 C   0  0  0  0  0  0  0  0  0  0  0  0
   -8.3947    4.3417  -10.1253 N   0  0  0  0  0  0  0  0  0  0  0  0
   -8.0984    3.1354   -9.5786 C   0  0  0  0  0  0  0  0  0  0  0  0
   -8.7601    2.0006  -10.0731 C   0  0  0  0  0  0  0  0  0  0  0  0
   -9.7026    2.1433  -11.1099 C   0  0  0  0  0  0  0  0  0  0  0  0
   -9.9798    3.4111  -11.6463 C   0  0  0  0  0  0  0  0  0  0  0  0
   -7.8681    5.5069   -9.7853 N   0  0  0  0  0  0  0  0  0  0  0  0
   -8.4401    6.4429  -10.5792 C   0  0  0  0  0  0  0  0  0  0  0  0
  -10.5965    4.3258  -15.6582 H   0  0  0  0  0  0  0  0  0  0  0  0
  -10.3059    3.0560  -17.7423 H   0  0  0  0  0  0  0  0  0  0  0  0
   -8.2182    3.2498  -19.0486 H   0  0  0  0  0  0  0  0  0  0  0  0
   -3.5356    7.6181  -19.8470 H   0  0  0  0  0  0  0  0  0  0  0  0
   -2.8995    7.2789  -18.1862 H   0  0  0  0  0  0  0  0  0  0  0  0
   -2.0854    6.5753  -19.6289 H   0  0  0  0  0  0  0  0  0  0  0  0
   -4.1659    3.9888  -20.3343 H   0  0  0  0  0  0  0  0  0  0  0  0
   -2.4650    4.3797  -19.8952 H   0  0  0  0  0  0  0  0  0  0  0  0
   -3.5576    3.6536  -18.6627 H   0  0  0  0  0  0  0  0  0  0  0  0
   -6.6442    5.9844  -16.1273 H   0  0  0  0  0  0  0  0  0  0  0  0
   -9.9737    7.5890  -12.5347 H   0  0  0  0  0  0  0  0  0  0  0  0
  -11.2667    6.3872  -12.1922 H   0  0  0  0  0  0  0  0  0  0  0  0
   -7.3704    3.0507   -8.7814 H   0  0  0  0  0  0  0  0  0  0  0  0
   -8.5473    1.0230   -9.6606 H   0  0  0  0  0  0  0  0  0  0  0  0
  -10.2162    1.2716  -11.4950 H   0  0  0  0  0  0  0  0  0  0  0  0
  -10.7019    3.5330  -12.4433 H   0  0  0  0  0  0  0  0  0  0  0  0
   -8.2084    7.4989  -10.5360 H   0  0  0  0  0  0  0  0  0  0  0  0
  1  2  1  0
  2  3  2  0
  2  4  1  0
  4  5  2  0
  5  6  1  0
  6  7  2  0
  7  8  1  0
  8  9  1  0
  9 10  1  0
 10 11  1  0
 11 12  1  0
 11 13  1  0
 10 14  2  0
  8 15  2  0
  1 16  1  0
 16 17  1  0
 17 18  2  0
 18 19  1  0
 19 20  1  0
 20 21  2  0
 21 22  1  0
 22 23  2  0
 19 24  1  0
 24 25  2  0
  4 15  1  0
 25 17  1  0
 23 18  1  0
  5 26  1  0
  6 27  1  0
  7 28  1  0
 12 29  1  0
 12 30  1  0
 12 31  1  0
 13 32  1  0
 13 33  1  0
 13 34  1  0
 15 35  1  0
 16 36  1  0
 16 37  1  0
 20 38  1  0
 21 39  1  0
 22 40  1  0
 23 41  1  0
 25 42  1  0
A    1
 O1 
A    2
 C1 
A    3
 O2 
A    4
 C2 
A    5
 C3 
A    6
 C4 
A    7
 C5 
A    8
 C6 
A    9
 O3 
A   10
 C7 
A   11
 N1 
A   12
 C8 
A   13
 C9 
A   14
 O4 
A   15
 C10
A   16
 C11
A   17
 C12
A   18
 C13
A   19
 N2 
A   20
 C14
A   21
 C15
A   22
 C16
A   23
 C17
A   24
 N3 
A   25
 C18
A   26
 H1 
A   27
 H2 
A   28
 H3 
A   29
 H4 
A   30
 H5 
A   31
 H6 
A   32
 H7 
A   33
 H8 
A   34
 H9 
A   35
 H10
A   36
 H11
A   37
 H12
A   38
 H13
A   39
 H14
A   40
 H15
A   41
 H16
A   42
 H17
M  END
>  <ref_pdb>  (164) 
x0051_0B

>  <ref_mols>  (164) 
x0969_1B,x0904_0B

>  <original SMILES>  (164) 
[H]c1nn2c([H])c([H])c([H])c([H])c2c1C([H])([H])OC(=O)c1c([H])c([H])c([H])c(OC(=O)N(C([H])([H])[H])C([H])([H])[H])c1[H]

>  <index>  (164) 
301

>  <∆∆G>  (164) 
-6.698746

>  <∆G_bound>  (164) 
-6.219995

>  <∆G_unbound>  (164) 
0.478751

>  <comRMSD>  (164) 
0.865704

>  <N_constrained_atoms>  (164) 
24.0

>  <N_unconstrained_atoms>  (164) 
3.0

>  <runtime>  (164) 
84.026029

>  <LE>  (164) 
0.248102

>  <percent_hybrid>  (164) 
42.0

>  <dist>  (164) 
8.0

>  <ecfp4>  (164) 
0.292683

>  <daylight>  (164) 
0.243728

>  <topodist>  (164) 
3.0

>  <mces>  (164) 
26.0

>  <tdn>  (164) 
0.0

>  <tup>  (164) 
1.0

>  <rdn>  (164) 
0.0

>  <rup>  (164) 
0.0

>  <ldn>  (164) 
2.0

>  <lup>  (164) 
0.0

>  <mut>  (164) 
1.0

>  <maj>  (164) 
1.0

>  <min>  (164) 
0.0

>  <hyb>  (164) 
4.0

>  <sub>  (164) 
0.0

>  <query_index>  (164) 
111.0

>  <max_hit_Tanimoto>  (164) 
0.178814

>  <largest_ring>  (164) 
6

>  <N_interactions_kept>  (164) 
2.5

>  <N_interactions_lost>  (164) 
1.0

>  <interaction_uniqueness_metric>  (164) 
0.167587

>  <ad_hoc_penalty>  (164) 
-25.682189

>  <N_rotatable_bonds>  (164) 
6

>  <N_HA>  (164) 
25

>  <cluster>  (164) 
5942

>  <N_interactions>  (164) 
6

>  <Enamine>  (164) 
0

>  <Mcule>  (164) 
1

>  <N_PAINS>  (164) 
0

>  <UFF_Gibbs>  (164) 
87.60444

>  <strain_per_HA>  (164) 
3.244609

>  <saltbridge:HIS:51>  (164) 
1

>  <pistack:HIS:51>  (164) 
1

>  <hydroph_interaction:HIS:51>  (164) 
0

>  <hbond:ALA:132>  (164) 
0

>  <hbond:SER:135>  (164) 
0

>  <hydroph_interaction:TYR:150>  (164) 
1

>  <pistack:TYR:161>  (164) 
0

>  <hydroph_interaction:TYR:161>  (164) 
2

>  <hydroph_interaction:ASP:83>  (164) 
0

>  <hbond:TYR:130>  (164) 
0

>  <hydroph_interaction:ALA:132>  (164) 
1

>  <hbond:HIS:51>  (164) 
0

>  <hbond:ASP:129>  (164) 
0

>  <hbond:TYR:150>  (164) 
0

>  <hbond:GLY:151>  (164) 
0

>  <hbond:TYR:161>  (164) 
0

>  <hydroph_interaction:TYR:130>  (164) 
0

>  <hydroph_interaction:PRO:131>  (164) 
0

>  <hydroph_interaction:ASP:129>  (164) 
0

>  <saltbridge:ASP:75>  (164) 
0

>  <saltbridge:ASP:83>  (164) 
0

>  <hydroph_interaction:ASN:152>  (164) 
0

>  <halogenbond:TYR:150>  (164) 
0

>  <hbond:ASP:83>  (164) 
0

>  <hydroph_interaction:VAL:155>  (164) 
0

>  <pication:TYR:161>  (164) 
0

>  <hbond:PRO:131>  (164) 
0

>  <hbond:LEU:128>  (164) 
0

>  <saltbridge:ASP:129>  (164) 
0

>  <hbond:THR:134>  (164) 
0

>  <pication:HIS:51>  (164) 
0

>  <hbond:SER:81>  (164) 
0

>  <hbond:GLY:159>  (164) 
0

>  <hydroph_interaction:PRO:101>  (164) 
0

>  <hydroph_interaction:THR:134>  (164) 
0

>  <hbond:GLY:82>  (164) 
0

>  <hydroph_interaction:GLU:104>  (164) 
0

>  <hydroph_interaction:VAL:36>  (164) 
0

>  <hydroph_interaction:MET:49>  (164) 
0

>  <halogenbond:GLU:104>  (164) 
0

>  <hydroph_interaction:LYS:107>  (164) 
0

$$$$
ZSVROKJTCSXVJJ-UHFFFAOYSA-N
     RDKit          3D

 48 52  0  0  0  0  0  0  0  0999 V2000
   -5.2167    8.6048  -19.3330 C   0  0  0  0  0  0  0  0  0  0  0  0
   -5.6905    7.5454  -18.4842 N   0  0  0  0  0  0  0  0  0  0  0  0
   -4.7991    6.4148  -18.1933 C   0  0  0  0  0  0  0  0  0  0  0  0
   -5.0833    5.8252  -16.8062 C   0  0  0  0  0  0  0  0  0  0  0  0
   -6.5533    5.5421  -16.6137 C   0  0  0  0  0  0  0  0  0  0  0  0
   -7.5194    6.3885  -17.1949 C   0  0  0  0  0  0  0  0  0  0  0  0
   -8.8809    6.1801  -16.9219 C   0  0  0  0  0  0  0  0  0  0  0  0
   -9.2765    5.1455  -16.0683 C   0  0  0  0  0  0  0  0  0  0  0  0
   -8.3210    4.3072  -15.4927 C   0  0  0  0  0  0  0  0  0  0  0  0
   -6.9633    4.5066  -15.7579 C   0  0  0  0  0  0  0  0  0  0  0  0
   -7.0730    7.4859  -18.0764 C   0  0  0  0  0  0  0  0  0  0  0  0
   -7.8863    8.3794  -18.4410 O   0  0  0  0  0  0  0  0  0  0  0  0
   -4.2533    9.3166  -18.9436 O   0  0  0  0  0  0  0  0  0  0  0  0
   -5.8109    8.8397  -20.6722 C   0  0  0  0  0  0  0  0  0  0  0  0
   -6.5546    7.8330  -21.3119 C   0  0  0  0  0  0  0  0  0  0  0  0
   -7.0848    8.0448  -22.5881 C   0  0  0  0  0  0  0  0  0  0  0  0
   -6.8893    9.2688  -23.2448 C   0  0  0  0  0  0  0  0  0  0  0  0
   -7.4182    9.4724  -24.6354 C   0  0  0  0  0  0  0  0  0  0  0  0
   -6.0979    9.1157  -25.8415 S   0  0  0  0  0  0  0  0  0  0  0  0
   -7.2315    8.7308  -27.1716 C   0  0  0  0  0  0  0  0  0  0  0  0
   -7.7875    9.8538  -28.3152 S   0  0  0  0  0  0  0  0  0  0  0  0
   -8.7319    8.6942  -29.0845 C   0  0  0  0  0  0  0  0  0  0  0  0
   -8.5931    7.4788  -28.4262 C   0  0  0  0  0  0  0  0  0  0  0  0
   -9.2805    6.3482  -28.8741 C   0  0  0  0  0  0  0  0  0  0  0  0
  -10.1148    6.4672  -30.0019 C   0  0  0  0  0  0  0  0  0  0  0  0
  -10.2456    7.7058  -30.6667 C   0  0  0  0  0  0  0  0  0  0  0  0
   -9.5484    8.8378  -30.2050 C   0  0  0  0  0  0  0  0  0  0  0  0
   -7.7521    7.4907  -27.3592 N   0  0  0  0  0  0  0  0  0  0  0  0
   -6.1375   10.2716  -22.6159 C   0  0  0  0  0  0  0  0  0  0  0  0
   -5.6017   10.0587  -21.3409 C   0  0  0  0  0  0  0  0  0  0  0  0
   -4.9442    5.6292  -18.9674 H   0  0  0  0  0  0  0  0  0  0  0  0
   -3.7362    6.7404  -18.2282 H   0  0  0  0  0  0  0  0  0  0  0  0
   -4.7572    6.5501  -16.0277 H   0  0  0  0  0  0  0  0  0  0  0  0
   -4.4864    4.8931  -16.6837 H   0  0  0  0  0  0  0  0  0  0  0  0
   -9.6353    6.8220  -17.3572 H   0  0  0  0  0  0  0  0  0  0  0  0
  -10.3256    4.9935  -15.8536 H   0  0  0  0  0  0  0  0  0  0  0  0
   -8.6315    3.5122  -14.8238 H   0  0  0  0  0  0  0  0  0  0  0  0
   -6.2304    3.8665  -15.2806 H   0  0  0  0  0  0  0  0  0  0  0  0
   -6.7107    6.8728  -20.8366 H   0  0  0  0  0  0  0  0  0  0  0  0
   -7.6434    7.2493  -23.0659 H   0  0  0  0  0  0  0  0  0  0  0  0
   -7.7634   10.5199  -24.7710 H   0  0  0  0  0  0  0  0  0  0  0  0
   -8.2918    8.8072  -24.8006 H   0  0  0  0  0  0  0  0  0  0  0  0
   -9.1769    5.3989  -28.3632 H   0  0  0  0  0  0  0  0  0  0  0  0
  -10.6528    5.6014  -30.3685 H   0  0  0  0  0  0  0  0  0  0  0  0
  -10.8862    7.7857  -31.5374 H   0  0  0  0  0  0  0  0  0  0  0  0
   -9.6441    9.7937  -30.7091 H   0  0  0  0  0  0  0  0  0  0  0  0
   -5.9578   11.2145  -23.1180 H   0  0  0  0  0  0  0  0  0  0  0  0
   -5.0210   10.8466  -20.8831 H   0  0  0  0  0  0  0  0  0  0  0  0
  1  2  1  0
  2  3  1  0
  3  4  1  0
  4  5  1  0
  5  6  2  0
  6  7  1  0
  7  8  2  0
  8  9  1  0
  9 10  2  0
  6 11  1  0
 11 12  2  0
  1 13  2  0
  1 14  1  0
 14 15  2  0
 15 16  1  0
 16 17  2  0
 17 18  1  0
 18 19  1  0
 19 20  1  0
 20 21  1  0
 21 22  1  0
 22 23  2  0
 23 24  1  0
 24 25  2  0
 25 26  1  0
 26 27  2  0
 23 28  1  0
 17 29  1  0
 29 30  2  0
 11  2  1  0
 10  5  1  0
 30 14  1  0
 20 28  2  0
 27 22  1  0
  3 31  1  0
  3 32  1  0
  4 33  1  0
  4 34  1  0
  7 35  1  0
  8 36  1  0
  9 37  1  0
 10 38  1  0
 15 39  1  0
 16 40  1  0
 18 41  1  0
 18 42  1  0
 24 43  1  0
 25 44  1  0
 26 45  1  0
 27 46  1  0
 29 47  1  0
 30 48  1  0
A    1
 C1 
A    2
 N1 
A    3
 C2 
A    4
 C3 
A    5
 C4 
A    6
 C5 
A    7
 C6 
A    8
 C7 
A    9
 C8 
A   10
 C9 
A   11
 C10
A   12
 O1 
A   13
 O2 
A   14
 C11
A   15
 C12
A   16
 C13
A   17
 C14
A   18
 C15
A   19
 S1 
A   20
 C16
A   21
 S2 
A   22
 C17
A   23
 C18
A   24
 C19
A   25
 C20
A   26
 C21
A   27
 C22
A   28
 N2 
A   29
 C23
A   30
 C24
A   31
 H1 
A   32
 H2 
A   33
 H3 
A   34
 H4 
A   35
 H5 
A   36
 H6 
A   37
 H7 
A   38
 H8 
A   39
 H9 
A   40
 H10
A   41
 H11
A   42
 H12
A   43
 H13
A   44
 H14
A   45
 H15
A   46
 H16
A   47
 H17
A   48
 H18
M  END
>  <ref_pdb>  (165) 
x0051_0B

>  <ref_mols>  (165) 
x0846_1B,x0969_0B

>  <original SMILES>  (165) 
[H]c1c([H])c([H])c2c(c1[H])C(=O)N(C(=O)c1c([H])c([H])c(C([H])([H])Sc3nc4c([H])c([H])c([H])c([H])c4s3)c([H])c1[H])C([H])([H])C2([H])[H]

>  <index>  (165) 
277

>  <∆∆G>  (165) 
-9.664455

>  <∆G_bound>  (165) 
-9.057212

>  <∆G_unbound>  (165) 
0.607243

>  <comRMSD>  (165) 
0.807875

>  <N_constrained_atoms>  (165) 
28.0

>  <N_unconstrained_atoms>  (165) 
4.0

>  <runtime>  (165) 
48.925997

>  <LE>  (165) 
0.302014

>  <percent_hybrid>  (165) 
36.0

>  <dist>  (165) 
11.0

>  <ecfp4>  (165) 
0.168421

>  <daylight>  (165) 
0.204678

>  <topodist>  (165) 
5.0

>  <mces>  (165) 
31.0

>  <tdn>  (165) 
2.0

>  <tup>  (165) 
2.0

>  <rdn>  (165) 
0.0

>  <rup>  (165) 
0.0

>  <ldn>  (165) 
0.0

>  <lup>  (165) 
1.0

>  <mut>  (165) 
5.0

>  <maj>  (165) 
5.0

>  <min>  (165) 
0.0

>  <hyb>  (165) 
1.0

>  <sub>  (165) 
2.0

>  <query_index>  (165) 
45.0

>  <max_hit_Tanimoto>  (165) 
0.210478

>  <largest_ring>  (165) 
6

>  <N_interactions_kept>  (165) 
0.5

>  <N_interactions_lost>  (165) 
2.0

>  <interaction_uniqueness_metric>  (165) 
0.201812

>  <ad_hoc_penalty>  (165) 
-25.646125

>  <N_rotatable_bonds>  (165) 
4

>  <N_HA>  (165) 
30

>  <cluster>  (165) 
5963

>  <N_interactions>  (165) 
5

>  <Enamine>  (165) 
0

>  <Mcule>  (165) 
1

>  <N_PAINS>  (165) 
0

>  <UFF_Gibbs>  (165) 
134.206742

>  <strain_per_HA>  (165) 
4.193961

>  <saltbridge:HIS:51>  (165) 
0

>  <pistack:HIS:51>  (165) 
0

>  <hydroph_interaction:HIS:51>  (165) 
0

>  <hbond:ALA:132>  (165) 
1

>  <hbond:SER:135>  (165) 
0

>  <hydroph_interaction:TYR:150>  (165) 
0

>  <pistack:TYR:161>  (165) 
1

>  <hydroph_interaction:TYR:161>  (165) 
0

>  <hydroph_interaction:ASP:83>  (165) 
0

>  <hbond:TYR:130>  (165) 
1

>  <hydroph_interaction:ALA:132>  (165) 
0

>  <hbond:HIS:51>  (165) 
0

>  <hbond:ASP:129>  (165) 
0

>  <hbond:TYR:150>  (165) 
0

>  <hbond:GLY:151>  (165) 
0

>  <hbond:TYR:161>  (165) 
0

>  <hydroph_interaction:TYR:130>  (165) 
1

>  <hydroph_interaction:PRO:131>  (165) 
1

>  <hydroph_interaction:ASP:129>  (165) 
0

>  <saltbridge:ASP:75>  (165) 
0

>  <saltbridge:ASP:83>  (165) 
0

>  <hydroph_interaction:ASN:152>  (165) 
0

>  <halogenbond:TYR:150>  (165) 
0

>  <hbond:ASP:83>  (165) 
0

>  <hydroph_interaction:VAL:155>  (165) 
0

>  <pication:TYR:161>  (165) 
0

>  <hbond:PRO:131>  (165) 
0

>  <hbond:LEU:128>  (165) 
0

>  <saltbridge:ASP:129>  (165) 
0

>  <hbond:THR:134>  (165) 
0

>  <pication:HIS:51>  (165) 
0

>  <hbond:SER:81>  (165) 
0

>  <hbond:GLY:159>  (165) 
0

>  <hydroph_interaction:PRO:101>  (165) 
0

>  <hydroph_interaction:THR:134>  (165) 
0

>  <hbond:GLY:82>  (165) 
0

>  <hydroph_interaction:GLU:104>  (165) 
0

>  <hydroph_interaction:VAL:36>  (165) 
0

>  <hydroph_interaction:MET:49>  (165) 
0

>  <halogenbond:GLU:104>  (165) 
0

>  <hydroph_interaction:LYS:107>  (165) 
0

$$$$
DNGZCMZWBIQLDO-UHFFFAOYSA-N
     RDKit          3D

 40 43  0  0  0  0  0  0  0  0999 V2000
   -7.9138    6.2106  -13.5981 C   0  0  0  0  0  0  0  0  0  0  0  0
   -9.1871    5.6851  -13.1959 N   0  0  0  0  0  0  0  0  0  0  0  0
   -9.9304    6.2198  -12.0581 C   0  0  0  0  0  0  0  0  0  0  0  0
   -9.2934    5.7900  -10.7720 C   0  0  0  0  0  0  0  0  0  0  0  0
   -9.2795    4.5300  -10.2109 C   0  0  0  0  0  0  0  0  0  0  0  0
   -8.5944    4.5885   -9.0552 N   0  0  0  0  0  0  0  0  0  0  0  0
   -8.3003    3.4478   -8.1899 C   0  0  0  0  0  0  0  0  0  0  0  0
   -9.2798    2.2941   -8.4618 C   0  0  0  0  0  0  0  0  0  0  0  0
   -9.4363    2.0528   -9.9726 C   0  0  0  0  0  0  0  0  0  0  0  0
   -9.9904    3.2968  -10.6851 C   0  0  0  0  0  0  0  0  0  0  0  0
   -8.1250    5.8123   -8.8693 N   0  0  0  0  0  0  0  0  0  0  0  0
   -8.5446    6.5692   -9.9057 C   0  0  0  0  0  0  0  0  0  0  0  0
   -7.3294    7.0663  -12.8799 O   0  0  0  0  0  0  0  0  0  0  0  0
   -7.2478    5.7279  -14.8203 C   0  0  0  0  0  0  0  0  0  0  0  0
   -7.8182    5.2956  -16.0073 C   0  0  0  0  0  0  0  0  0  0  0  0
   -6.7803    4.9443  -16.8361 C   0  0  0  0  0  0  0  0  0  0  0  0
   -6.9989    4.4820  -18.1332 C   0  0  0  0  0  0  0  0  0  0  0  0
   -8.3270    4.3927  -18.5852 C   0  0  0  0  0  0  0  0  0  0  0  0
   -9.3947    4.7770  -17.7458 C   0  0  0  0  0  0  0  0  0  0  0  0
   -9.1457    5.2439  -16.4425 C   0  0  0  0  0  0  0  0  0  0  0  0
   -5.5938    5.1430  -16.2374 N   0  0  0  0  0  0  0  0  0  0  0  0
   -5.8718    5.6308  -15.0080 C   0  0  0  0  0  0  0  0  0  0  0  0
   -9.5718    4.8447  -13.6814 H   0  0  0  0  0  0  0  0  0  0  0  0
   -9.9750    7.3286  -12.1215 H   0  0  0  0  0  0  0  0  0  0  0  0
  -10.9733    5.8374  -12.0862 H   0  0  0  0  0  0  0  0  0  0  0  0
   -8.3750    3.7554   -7.1248 H   0  0  0  0  0  0  0  0  0  0  0  0
   -7.2614    3.1051   -8.3859 H   0  0  0  0  0  0  0  0  0  0  0  0
  -10.2718    2.5388   -8.0226 H   0  0  0  0  0  0  0  0  0  0  0  0
   -8.9049    1.3689   -7.9735 H   0  0  0  0  0  0  0  0  0  0  0  0
   -8.4473    1.7866  -10.4069 H   0  0  0  0  0  0  0  0  0  0  0  0
  -10.1243    1.1967  -10.1414 H   0  0  0  0  0  0  0  0  0  0  0  0
   -9.8643    3.1814  -11.7822 H   0  0  0  0  0  0  0  0  0  0  0  0
  -11.0735    3.4016  -10.4610 H   0  0  0  0  0  0  0  0  0  0  0  0
   -8.3153    7.6198  -10.0243 H   0  0  0  0  0  0  0  0  0  0  0  0
   -6.1726    4.2085  -18.7765 H   0  0  0  0  0  0  0  0  0  0  0  0
   -8.5310    4.0397  -19.5877 H   0  0  0  0  0  0  0  0  0  0  0  0
  -10.4119    4.7224  -18.1114 H   0  0  0  0  0  0  0  0  0  0  0  0
   -9.9643    5.5734  -15.8187 H   0  0  0  0  0  0  0  0  0  0  0  0
   -4.6464    4.9698  -16.6411 H   0  0  0  0  0  0  0  0  0  0  0  0
   -5.1153    5.8938  -14.2799 H   0  0  0  0  0  0  0  0  0  0  0  0
  1  2  1  0
  2  3  1  0
  3  4  1  0
  4  5  2  0
  5  6  1  0
  6  7  1  0
  7  8  1  0
  8  9  1  0
  9 10  1  0
  6 11  1  0
 11 12  2  0
  1 13  2  0
  1 14  1  0
 14 15  1  0
 15 16  1  0
 16 17  2  0
 17 18  1  0
 18 19  2  0
 19 20  1  0
 16 21  1  0
 21 22  1  0
 12  4  1  0
 10  5  1  0
 14 22  2  0
 20 15  2  0
  2 23  1  0
  3 24  1  0
  3 25  1  0
  7 26  1  0
  7 27  1  0
  8 28  1  0
  8 29  1  0
  9 30  1  0
  9 31  1  0
 10 32  1  0
 10 33  1  0
 12 34  1  0
 17 35  1  0
 18 36  1  0
 19 37  1  0
 20 38  1  0
 21 39  1  0
 22 40  1  0
A    1
 C1 
A    2
 N1 
A    3
 C2 
A    4
 C3 
A    5
 C4 
A    6
 N2 
A    7
 C5 
A    8
 C6 
A    9
 C7 
A   10
 C8 
A   11
 N3 
A   12
 C9 
A   13
 O1 
A   14
 C10
A   15
 C11
A   16
 C12
A   17
 C13
A   18
 C14
A   19
 C15
A   20
 C16
A   21
 N4 
A   22
 C17
A   23
 H1 
A   24
 H2 
A   25
 H3 
A   26
 H4 
A   27
 H5 
A   28
 H6 
A   29
 H7 
A   30
 H8 
A   31
 H9 
A   32
 H10
A   33
 H11
A   34
 H12
A   35
 H13
A   36
 H14
A   37
 H15
A   38
 H16
A   39
 H17
A   40
 H18
M  END
>  <ref_pdb>  (166) 
x0051_0B

>  <ref_mols>  (166) 
x0969_1B,x0455_0B

>  <original SMILES>  (166) 
[H]c1nn2c(c1C([H])([H])N([H])C(=O)c1c([H])n([H])c3c([H])c([H])c([H])c([H])c13)C([H])([H])C([H])([H])C([H])([H])C2([H])[H]

>  <index>  (166) 
185

>  <∆∆G>  (166) 
-6.735034

>  <∆G_bound>  (166) 
-6.122866

>  <∆G_unbound>  (166) 
0.612168

>  <comRMSD>  (166) 
0.814704

>  <N_constrained_atoms>  (166) 
20.0

>  <N_unconstrained_atoms>  (166) 
3.0

>  <runtime>  (166) 
53.668837

>  <LE>  (166) 
0.292828

>  <percent_hybrid>  (166) 
50.0

>  <dist>  (166) 
8.0

>  <ecfp4>  (166) 
0.271605

>  <daylight>  (166) 
0.28169

>  <topodist>  (166) 
2.0

>  <mces>  (166) 
24.0

>  <tdn>  (166) 
0.0

>  <tup>  (166) 
1.0

>  <rdn>  (166) 
0.0

>  <rup>  (166) 
0.0

>  <ldn>  (166) 
1.0

>  <lup>  (166) 
0.0

>  <mut>  (166) 
3.0

>  <maj>  (166) 
3.0

>  <min>  (166) 
0.0

>  <hyb>  (166) 
3.0

>  <sub>  (166) 
0.0

>  <query_index>  (166) 
204.0

>  <max_hit_Tanimoto>  (166) 
0.320647

>  <largest_ring>  (166) 
6

>  <N_interactions_kept>  (166) 
1.5

>  <N_interactions_lost>  (166) 
1.0

>  <interaction_uniqueness_metric>  (166) 
0.108789

>  <ad_hoc_penalty>  (166) 
-25.63159

>  <N_rotatable_bonds>  (166) 
3

>  <N_HA>  (166) 
22

>  <cluster>  (166) 
6051

>  <N_interactions>  (166) 
5

>  <Enamine>  (166) 
0

>  <Mcule>  (166) 
1

>  <N_PAINS>  (166) 
0

>  <UFF_Gibbs>  (166) 
128.108634

>  <strain_per_HA>  (166) 
5.569941

>  <saltbridge:HIS:51>  (166) 
0

>  <pistack:HIS:51>  (166) 
0

>  <hydroph_interaction:HIS:51>  (166) 
1

>  <hbond:ALA:132>  (166) 
0

>  <hbond:SER:135>  (166) 
0

>  <hydroph_interaction:TYR:150>  (166) 
1

>  <pistack:TYR:161>  (166) 
2

>  <hydroph_interaction:TYR:161>  (166) 
0

>  <hydroph_interaction:ASP:83>  (166) 
0

>  <hbond:TYR:130>  (166) 
0

>  <hydroph_interaction:ALA:132>  (166) 
0

>  <hbond:HIS:51>  (166) 
0

>  <hbond:ASP:129>  (166) 
0

>  <hbond:TYR:150>  (166) 
0

>  <hbond:GLY:151>  (166) 
1

>  <hbond:TYR:161>  (166) 
0

>  <hydroph_interaction:TYR:130>  (166) 
0

>  <hydroph_interaction:PRO:131>  (166) 
0

>  <hydroph_interaction:ASP:129>  (166) 
0

>  <saltbridge:ASP:75>  (166) 
0

>  <saltbridge:ASP:83>  (166) 
0

>  <hydroph_interaction:ASN:152>  (166) 
0

>  <halogenbond:TYR:150>  (166) 
0

>  <hbond:ASP:83>  (166) 
0

>  <hydroph_interaction:VAL:155>  (166) 
0

>  <pication:TYR:161>  (166) 
0

>  <hbond:PRO:131>  (166) 
0

>  <hbond:LEU:128>  (166) 
0

>  <saltbridge:ASP:129>  (166) 
0

>  <hbond:THR:134>  (166) 
0

>  <pication:HIS:51>  (166) 
0

>  <hbond:SER:81>  (166) 
0

>  <hbond:GLY:159>  (166) 
0

>  <hydroph_interaction:PRO:101>  (166) 
0

>  <hydroph_interaction:THR:134>  (166) 
0

>  <hbond:GLY:82>  (166) 
0

>  <hydroph_interaction:GLU:104>  (166) 
0

>  <hydroph_interaction:VAL:36>  (166) 
0

>  <hydroph_interaction:MET:49>  (166) 
0

>  <halogenbond:GLU:104>  (166) 
0

>  <hydroph_interaction:LYS:107>  (166) 
0

$$$$
Z2368203387
     RDKit          3D

 36 38  0  0  0  0  0  0  0  0999 V2000
   -7.5309    4.4962  -15.3410 C   0  0  0  0  0  0  0  0  0  0  0  0
   -7.9925    4.6304  -16.7640 C   0  0  0  0  0  0  0  0  0  0  0  0
   -9.1922    3.9797  -17.1111 C   0  0  0  0  0  0  0  0  0  0  0  0
   -9.7233    4.0856  -18.3922 C   0  0  0  0  0  0  0  0  0  0  0  0
   -9.0735    4.8463  -19.3547 C   0  0  0  0  0  0  0  0  0  0  0  0
   -7.8760    5.4968  -19.0504 C   0  0  0  0  0  0  0  0  0  0  0  0
   -7.2763    6.2325  -20.0194 N   0  0  0  0  0  0  0  0  0  0  0  0
   -6.1127    6.8791  -19.7905 C   0  0  0  0  0  0  0  0  0  0  0  0
   -5.5161    6.7874  -18.5809 N   0  0  0  0  0  0  0  0  0  0  0  0
   -6.0549    6.0735  -17.5552 C   0  0  0  0  0  0  0  0  0  0  0  0
   -5.2867    5.9983  -16.3398 N   0  0  0  0  0  0  0  0  0  0  0  0
   -4.2134    4.9836  -16.3369 C   0  0  0  0  0  0  0  0  0  0  0  0
   -3.8175    4.4502  -14.9386 C   0  0  0  0  0  0  0  0  0  0  0  0
   -4.2944    5.2686  -13.7282 C   0  0  0  0  0  0  0  0  0  0  0  0
   -3.6881    6.6046  -13.6429 N   0  0  0  0  0  0  0  0  0  0  0  0
   -3.8151    7.4293  -14.8553 C   0  0  0  0  0  0  0  0  0  0  0  0
   -5.1640    7.2653  -15.5824 C   0  0  0  0  0  0  0  0  0  0  0  0
   -7.2952    5.3920  -17.7538 C   0  0  0  0  0  0  0  0  0  0  0  0
   -6.5880    3.9197  -15.3071 H   0  0  0  0  0  0  0  0  0  0  0  0
   -7.4186    5.4996  -14.8885 H   0  0  0  0  0  0  0  0  0  0  0  0
   -8.2664    3.9484  -14.7141 H   0  0  0  0  0  0  0  0  0  0  0  0
   -9.7323    3.3889  -16.3811 H   0  0  0  0  0  0  0  0  0  0  0  0
  -10.6495    3.5815  -18.6369 H   0  0  0  0  0  0  0  0  0  0  0  0
   -9.5029    4.9289  -20.3459 H   0  0  0  0  0  0  0  0  0  0  0  0
   -5.6521    7.4592  -20.5781 H   0  0  0  0  0  0  0  0  0  0  0  0
   -4.5245    4.1102  -16.9539 H   0  0  0  0  0  0  0  0  0  0  0  0
   -3.3176    5.4011  -16.8450 H   0  0  0  0  0  0  0  0  0  0  0  0
   -2.7112    4.3499  -14.8906 H   0  0  0  0  0  0  0  0  0  0  0  0
   -4.2268    3.4224  -14.8259 H   0  0  0  0  0  0  0  0  0  0  0  0
   -5.3977    5.3473  -13.7045 H   0  0  0  0  0  0  0  0  0  0  0  0
   -4.0227    4.7059  -12.8085 H   0  0  0  0  0  0  0  0  0  0  0  0
   -2.6696    6.4959  -13.4252 H   0  0  0  0  0  0  0  0  0  0  0  0
   -3.7249    8.4926  -14.5456 H   0  0  0  0  0  0  0  0  0  0  0  0
   -2.9671    7.2440  -15.5493 H   0  0  0  0  0  0  0  0  0  0  0  0
   -5.2620    8.1298  -16.2766 H   0  0  0  0  0  0  0  0  0  0  0  0
   -5.9971    7.3535  -14.8546 H   0  0  0  0  0  0  0  0  0  0  0  0
  1  2  1  0
  2  3  2  0
  3  4  1  0
  4  5  2  0
  5  6  1  0
  6  7  2  0
  7  8  1  0
  8  9  2  0
  9 10  1  0
 10 11  1  0
 11 12  1  0
 12 13  1  0
 13 14  1  0
 14 15  1  0
 15 16  1  0
 16 17  1  0
 10 18  2  0
 18  2  1  0
 18  6  1  0
 17 11  1  0
  1 19  1  0
  1 20  1  0
  1 21  1  0
  3 22  1  0
  4 23  1  0
  5 24  1  0
  8 25  1  0
 12 26  1  0
 12 27  1  0
 13 28  1  0
 13 29  1  0
 14 30  1  0
 14 31  1  0
 15 32  1  0
 16 33  1  0
 16 34  1  0
 17 35  1  0
 17 36  1  0
A    1
 C1 
A    2
 C2 
A    3
 C3 
A    4
 C4 
A    5
 C5 
A    6
 C6 
A    7
 N1 
A    8
 C7 
A    9
 N2 
A   10
 C8 
A   11
 N3 
A   12
 C9 
A   13
 C10
A   14
 C11
A   15
 N4 
A   16
 C12
A   17
 C13
A   18
 C14
A   19
 H1 
A   20
 H2 
A   21
 H3 
A   22
 H4 
A   23
 H5 
A   24
 H6 
A   25
 H7 
A   26
 H8 
A   27
 H9 
A   28
 H10
A   29
 H11
A   30
 H12
A   31
 H13
A   32
 H14
A   33
 H15
A   34
 H16
A   35
 H17
A   36
 H18
M  END
>  <ref_pdb>  (167) 
x0051_0B

>  <ref_mols>  (167) 
x0429_0B,x0693_0B

>  <original SMILES>  (167) 
[H]c1nc(N2C([H])([H])C([H])([H])N([H])C([H])([H])C([H])([H])C2([H])[H])c2c(C([H])([H])[H])c([H])c([H])c([H])c2n1

>  <index>  (167) 
233

>  <∆∆G>  (167) 
-6.790734

>  <∆G_bound>  (167) 
-6.214204

>  <∆G_unbound>  (167) 
0.57653

>  <comRMSD>  (167) 
0.549842

>  <N_constrained_atoms>  (167) 
18.0

>  <N_unconstrained_atoms>  (167) 
1.0

>  <runtime>  (167) 
24.672945

>  <LE>  (167) 
0.357407

>  <percent_hybrid>  (167) 
20.0

>  <dist>  (167) 
2.0

>  <ecfp4>  (167) 
0.6

>  <daylight>  (167) 
0.529851

>  <topodist>  (167) 
1.0

>  <mces>  (167) 
19.0

>  <tdn>  (167) 
0.0

>  <tup>  (167) 
0.0

>  <rdn>  (167) 
0.0

>  <rup>  (167) 
0.0

>  <ldn>  (167) 
0.0

>  <lup>  (167) 
1.0

>  <mut>  (167) 
1.0

>  <maj>  (167) 
1.0

>  <min>  (167) 
0.0

>  <hyb>  (167) 
0.0

>  <sub>  (167) 
0.0

>  <query_index>  (167) 
179.0

>  <max_hit_Tanimoto>  (167) 
0.403263

>  <largest_ring>  (167) 
7

>  <N_interactions_kept>  (167) 
2.5

>  <N_interactions_lost>  (167) 
2.0

>  <interaction_uniqueness_metric>  (167) 
0.078036

>  <ad_hoc_penalty>  (167) 
-25.58446

>  <N_rotatable_bonds>  (167) 
2

>  <N_HA>  (167) 
18

>  <cluster>  (167) 
6007

>  <N_interactions>  (167) 
6

>  <Enamine>  (167) 
1

>  <Mcule>  (167) 
0

>  <N_PAINS>  (167) 
0

>  <UFF_Gibbs>  (167) 
73.182613

>  <strain_per_HA>  (167) 
3.851716

>  <saltbridge:HIS:51>  (167) 
0

>  <pistack:HIS:51>  (167) 
0

>  <hydroph_interaction:HIS:51>  (167) 
0

>  <hbond:ALA:132>  (167) 
0

>  <hbond:SER:135>  (167) 
0

>  <hydroph_interaction:TYR:150>  (167) 
1

>  <pistack:TYR:161>  (167) 
1

>  <hydroph_interaction:TYR:161>  (167) 
3

>  <hydroph_interaction:ASP:83>  (167) 
0

>  <hbond:TYR:130>  (167) 
0

>  <hydroph_interaction:ALA:132>  (167) 
0

>  <hbond:HIS:51>  (167) 
0

>  <hbond:ASP:129>  (167) 
0

>  <hbond:TYR:150>  (167) 
0

>  <hbond:GLY:151>  (167) 
0

>  <hbond:TYR:161>  (167) 
0

>  <hydroph_interaction:TYR:130>  (167) 
0

>  <hydroph_interaction:PRO:131>  (167) 
0

>  <hydroph_interaction:ASP:129>  (167) 
0

>  <saltbridge:ASP:75>  (167) 
0

>  <saltbridge:ASP:83>  (167) 
0

>  <hydroph_interaction:ASN:152>  (167) 
0

>  <halogenbond:TYR:150>  (167) 
0

>  <hbond:ASP:83>  (167) 
0

>  <hydroph_interaction:VAL:155>  (167) 
1

>  <pication:TYR:161>  (167) 
0

>  <hbond:PRO:131>  (167) 
0

>  <hbond:LEU:128>  (167) 
0

>  <saltbridge:ASP:129>  (167) 
0

>  <hbond:THR:134>  (167) 
0

>  <pication:HIS:51>  (167) 
0

>  <hbond:SER:81>  (167) 
0

>  <hbond:GLY:159>  (167) 
0

>  <hydroph_interaction:PRO:101>  (167) 
0

>  <hydroph_interaction:THR:134>  (167) 
0

>  <hbond:GLY:82>  (167) 
0

>  <hydroph_interaction:GLU:104>  (167) 
0

>  <hydroph_interaction:VAL:36>  (167) 
0

>  <hydroph_interaction:MET:49>  (167) 
0

>  <halogenbond:GLU:104>  (167) 
0

>  <hydroph_interaction:LYS:107>  (167) 
0

$$$$
MCULE-5707150281
     RDKit          3D

 24 25  0  0  0  0  0  0  0  0999 V2000
   -5.7184    4.5136  -20.0885 O   0  0  0  0  0  0  0  0  0  0  0  0
   -6.9442    4.7759  -20.2087 C   0  0  0  0  0  0  0  0  0  0  0  0
   -7.4370    5.1144  -21.4674 O   0  0  0  0  0  0  0  0  0  0  0  0
   -7.8475    4.6936  -19.0342 C   0  0  0  0  0  0  0  0  0  0  0  0
   -7.4611    5.1349  -17.7405 C   0  0  0  0  0  0  0  0  0  0  0  0
   -6.0865    5.7336  -17.4954 C   0  0  0  0  0  0  0  0  0  0  0  0
   -5.9836    6.4913  -16.1686 C   0  0  0  0  0  0  0  0  0  0  0  0
   -6.5703    5.6571  -15.0337 C   0  0  0  0  0  0  0  0  0  0  0  0
   -8.0641    5.4320  -15.2689 C   0  0  0  0  0  0  0  0  0  0  0  0
   -8.3675    4.9511  -16.6647 C   0  0  0  0  0  0  0  0  0  0  0  0
   -9.5936    4.4118  -16.8969 N   0  0  0  0  0  0  0  0  0  0  0  0
   -9.9846    4.0069  -18.1295 C   0  0  0  0  0  0  0  0  0  0  0  0
   -9.1235    4.1395  -19.2142 C   0  0  0  0  0  0  0  0  0  0  0  0
   -8.4033    5.3830  -21.6078 H   0  0  0  0  0  0  0  0  0  0  0  0
   -5.8296    6.4431  -18.3113 H   0  0  0  0  0  0  0  0  0  0  0  0
   -5.3380    4.9119  -17.4955 H   0  0  0  0  0  0  0  0  0  0  0  0
   -4.9158    6.7117  -15.9529 H   0  0  0  0  0  0  0  0  0  0  0  0
   -6.5258    7.4599  -16.2445 H   0  0  0  0  0  0  0  0  0  0  0  0
   -6.4257    6.1888  -14.0686 H   0  0  0  0  0  0  0  0  0  0  0  0
   -6.0450    4.6784  -14.9717 H   0  0  0  0  0  0  0  0  0  0  0  0
   -8.4367    4.6890  -14.5310 H   0  0  0  0  0  0  0  0  0  0  0  0
   -8.6096    6.3854  -15.0988 H   0  0  0  0  0  0  0  0  0  0  0  0
  -10.9673    3.5756  -18.2665 H   0  0  0  0  0  0  0  0  0  0  0  0
   -9.4453    3.7836  -20.1850 H   0  0  0  0  0  0  0  0  0  0  0  0
  1  2  2  0
  2  3  1  0
  2  4  1  0
  4  5  2  0
  5  6  1  0
  6  7  1  0
  7  8  1  0
  8  9  1  0
  9 10  1  0
 10 11  2  0
 11 12  1  0
 12 13  2  0
  4 13  1  0
  5 10  1  0
  3 14  1  0
  6 15  1  0
  6 16  1  0
  7 17  1  0
  7 18  1  0
  8 19  1  0
  8 20  1  0
  9 21  1  0
  9 22  1  0
 12 23  1  0
 13 24  1  0
A    1
 O1 
A    2
 C1 
A    3
 O2 
A    4
 C2 
A    5
 C3 
A    6
 C4 
A    7
 C5 
A    8
 C6 
A    9
 C7 
A   10
 C8 
A   11
 N1 
A   12
 C9 
A   13
 C10
A   14
 H1 
A   15
 H2 
A   16
 H3 
A   17
 H4 
A   18
 H5 
A   19
 H6 
A   20
 H7 
A   21
 H8 
A   22
 H9 
A   23
 H10
A   24
 H11
M  END
>  <ref_pdb>  (168) 
x0051_0B

>  <ref_mols>  (168) 
x0455_0B,x0382_0B

>  <original SMILES>  (168) 
[H]OC(=O)c1c([H])c([H])nc2c1C([H])([H])C([H])([H])C([H])([H])C2([H])[H]

>  <index>  (168) 
177

>  <∆∆G>  (168) 
-5.232818

>  <∆G_bound>  (168) 
-4.596154

>  <∆G_unbound>  (168) 
0.636664

>  <comRMSD>  (168) 
0.568277

>  <N_constrained_atoms>  (168) 
12.0

>  <N_unconstrained_atoms>  (168) 
2.0

>  <runtime>  (168) 
19.167342

>  <LE>  (168) 
0.373773

>  <percent_hybrid>  (168) 
29.0

>  <dist>  (168) 
3.0

>  <ecfp4>  (168) 
0.304348

>  <daylight>  (168) 
0.414773

>  <topodist>  (168) 
1.0

>  <mces>  (168) 
13.0

>  <tdn>  (168) 
0.0

>  <tup>  (168) 
1.0

>  <rdn>  (168) 
0.0

>  <rup>  (168) 
0.0

>  <ldn>  (168) 
0.0

>  <lup>  (168) 
0.0

>  <mut>  (168) 
1.0

>  <maj>  (168) 
1.0

>  <min>  (168) 
0.0

>  <hyb>  (168) 
1.0

>  <sub>  (168) 
0.0

>  <query_index>  (168) 
293.0

>  <max_hit_Tanimoto>  (168) 
0.26148

>  <largest_ring>  (168) 
6

>  <N_interactions_kept>  (168) 
0.0

>  <N_interactions_lost>  (168) 
1.5

>  <interaction_uniqueness_metric>  (168) 
0.095223

>  <ad_hoc_penalty>  (168) 
-25.514542

>  <N_rotatable_bonds>  (168) 
1

>  <N_HA>  (168) 
13

>  <cluster>  (168) 
6059

>  <N_interactions>  (168) 
6

>  <Enamine>  (168) 
0

>  <Mcule>  (168) 
1

>  <N_PAINS>  (168) 
0

>  <UFF_Gibbs>  (168) 
80.498003

>  <strain_per_HA>  (168) 
5.749857

>  <saltbridge:HIS:51>  (168) 
0

>  <pistack:HIS:51>  (168) 
0

>  <hydroph_interaction:HIS:51>  (168) 
0

>  <hbond:ALA:132>  (168) 
0

>  <hbond:SER:135>  (168) 
0

>  <hydroph_interaction:TYR:150>  (168) 
1

>  <pistack:TYR:161>  (168) 
0

>  <hydroph_interaction:TYR:161>  (168) 
3

>  <hydroph_interaction:ASP:83>  (168) 
0

>  <hbond:TYR:130>  (168) 
1

>  <hydroph_interaction:ALA:132>  (168) 
0

>  <hbond:HIS:51>  (168) 
0

>  <hbond:ASP:129>  (168) 
1

>  <hbond:TYR:150>  (168) 
0

>  <hbond:GLY:151>  (168) 
0

>  <hbond:TYR:161>  (168) 
0

>  <hydroph_interaction:TYR:130>  (168) 
0

>  <hydroph_interaction:PRO:131>  (168) 
0

>  <hydroph_interaction:ASP:129>  (168) 
0

>  <saltbridge:ASP:75>  (168) 
0

>  <saltbridge:ASP:83>  (168) 
0

>  <hydroph_interaction:ASN:152>  (168) 
0

>  <halogenbond:TYR:150>  (168) 
0

>  <hbond:ASP:83>  (168) 
0

>  <hydroph_interaction:VAL:155>  (168) 
0

>  <pication:TYR:161>  (168) 
0

>  <hbond:PRO:131>  (168) 
0

>  <hbond:LEU:128>  (168) 
0

>  <saltbridge:ASP:129>  (168) 
0

>  <hbond:THR:134>  (168) 
0

>  <pication:HIS:51>  (168) 
0

>  <hbond:SER:81>  (168) 
0

>  <hbond:GLY:159>  (168) 
0

>  <hydroph_interaction:PRO:101>  (168) 
0

>  <hydroph_interaction:THR:134>  (168) 
0

>  <hbond:GLY:82>  (168) 
0

>  <hydroph_interaction:GLU:104>  (168) 
0

>  <hydroph_interaction:VAL:36>  (168) 
0

>  <hydroph_interaction:MET:49>  (168) 
0

>  <halogenbond:GLU:104>  (168) 
0

>  <hydroph_interaction:LYS:107>  (168) 
0

$$$$
Z3414280809
     RDKit          3D

 46 49  0  0  0  0  0  0  0  0999 V2000
   -6.6167    6.3512  -11.8253 O   0  0  0  0  0  0  0  0  0  0  0  0
   -7.4900    5.4437  -11.7626 C   0  0  0  0  0  0  0  0  0  0  0  0
   -7.5995    4.4831  -12.8244 N   0  0  0  0  0  0  0  0  0  0  0  0
   -6.6435    4.4195  -13.9290 C   0  0  0  0  0  0  0  0  0  0  0  0
   -6.8195    5.5918  -14.9321 C   0  0  0  0  0  0  0  0  0  0  0  0
   -5.4702    5.8120  -15.6597 C   0  0  0  0  0  0  0  0  0  0  0  0
   -5.6344    6.6047  -16.9510 C   0  0  0  0  0  0  0  0  0  0  0  0
   -6.5034    5.8120  -17.9222 C   0  0  0  0  0  0  0  0  0  0  0  0
   -7.8317    5.4658  -17.3027 C   0  0  0  0  0  0  0  0  0  0  0  0
   -8.9271    5.2308  -18.1498 C   0  0  0  0  0  0  0  0  0  0  0  0
  -10.1884    4.9652  -17.6186 C   0  0  0  0  0  0  0  0  0  0  0  0
  -10.3720    4.9461  -16.2381 C   0  0  0  0  0  0  0  0  0  0  0  0
   -9.2886    5.1572  -15.3832 C   0  0  0  0  0  0  0  0  0  0  0  0
   -7.9905    5.3605  -15.8949 C   0  0  0  0  0  0  0  0  0  0  0  0
   -8.4067    5.4189  -10.6060 C   0  0  0  0  0  0  0  0  0  0  0  0
   -9.0176    4.3292   -9.9965 C   0  0  0  0  0  0  0  0  0  0  0  0
   -8.9179    2.8706  -10.3500 C   0  0  0  0  0  0  0  0  0  0  0  0
   -9.2780    2.0247   -9.1989 N   0  0  0  0  0  0  0  0  0  0  0  0
  -10.5539    2.4496   -8.5968 C   0  0  0  0  0  0  0  0  0  0  0  0
  -10.4482    3.8703   -8.0146 C   0  0  0  0  0  0  0  0  0  0  0  0
   -9.7558    4.7482   -8.9540 N   0  0  0  0  0  0  0  0  0  0  0  0
   -9.6027    6.0806   -8.8509 C   0  0  0  0  0  0  0  0  0  0  0  0
   -8.7712    6.5301   -9.8593 C   0  0  0  0  0  0  0  0  0  0  0  0
   -8.3617    3.7724  -12.8044 H   0  0  0  0  0  0  0  0  0  0  0  0
   -5.6175    4.4196  -13.4980 H   0  0  0  0  0  0  0  0  0  0  0  0
   -6.7640    3.4532  -14.4669 H   0  0  0  0  0  0  0  0  0  0  0  0
   -7.0396    6.5272  -14.3735 H   0  0  0  0  0  0  0  0  0  0  0  0
   -4.9968    4.8341  -15.9054 H   0  0  0  0  0  0  0  0  0  0  0  0
   -4.7739    6.3576  -14.9856 H   0  0  0  0  0  0  0  0  0  0  0  0
   -4.6368    6.7799  -17.4084 H   0  0  0  0  0  0  0  0  0  0  0  0
   -6.0995    7.5924  -16.7366 H   0  0  0  0  0  0  0  0  0  0  0  0
   -5.9847    4.8740  -18.2172 H   0  0  0  0  0  0  0  0  0  0  0  0
   -6.6548    6.4248  -18.8378 H   0  0  0  0  0  0  0  0  0  0  0  0
   -8.8071    5.2727  -19.2256 H   0  0  0  0  0  0  0  0  0  0  0  0
  -11.0297    4.7978  -18.2787 H   0  0  0  0  0  0  0  0  0  0  0  0
  -11.3590    4.7760  -15.8276 H   0  0  0  0  0  0  0  0  0  0  0  0
   -9.4799    5.1819  -14.3218 H   0  0  0  0  0  0  0  0  0  0  0  0
   -7.8808    2.6299  -10.6683 H   0  0  0  0  0  0  0  0  0  0  0  0
   -9.6078    2.6496  -11.1919 H   0  0  0  0  0  0  0  0  0  0  0  0
   -8.5228    2.0990   -8.4764 H   0  0  0  0  0  0  0  0  0  0  0  0
  -11.3600    2.4171   -9.3630 H   0  0  0  0  0  0  0  0  0  0  0  0
  -10.8327    1.7409   -7.7878 H   0  0  0  0  0  0  0  0  0  0  0  0
  -11.4652    4.2665   -7.8057 H   0  0  0  0  0  0  0  0  0  0  0  0
   -9.8766    3.8364   -7.0620 H   0  0  0  0  0  0  0  0  0  0  0  0
  -10.0464    6.6909   -8.0749 H   0  0  0  0  0  0  0  0  0  0  0  0
   -8.4600    7.5533  -10.0248 H   0  0  0  0  0  0  0  0  0  0  0  0
  1  2  2  0
  2  3  1  0
  3  4  1  0
  4  5  1  0
  5  6  1  0
  6  7  1  0
  7  8  1  0
  8  9  1  0
  9 10  2  0
 10 11  1  0
 11 12  2  0
 12 13  1  0
 13 14  2  0
  2 15  1  0
 15 16  2  0
 16 17  1  0
 17 18  1  0
 18 19  1  0
 19 20  1  0
 20 21  1  0
 21 22  1  0
 22 23  2  0
 14  5  1  0
 14  9  1  0
 23 15  1  0
 21 16  1  0
  3 24  1  0
  4 25  1  0
  4 26  1  0
  5 27  1  0
  6 28  1  0
  6 29  1  0
  7 30  1  0
  7 31  1  0
  8 32  1  0
  8 33  1  0
 10 34  1  0
 11 35  1  0
 12 36  1  0
 13 37  1  0
 17 38  1  0
 17 39  1  0
 18 40  1  0
 19 41  1  0
 19 42  1  0
 20 43  1  0
 20 44  1  0
 22 45  1  0
 23 46  1  0
A    1
 O1 
A    2
 C1 
A    3
 N1 
A    4
 C2 
A    5
 C3 
A    6
 C4 
A    7
 C5 
A    8
 C6 
A    9
 C7 
A   10
 C8 
A   11
 C9 
A   12
 C10
A   13
 C11
A   14
 C12
A   15
 C13
A   16
 C14
A   17
 C15
A   18
 N2 
A   19
 C16
A   20
 C17
A   21
 N3 
A   22
 C18
A   23
 C19
A   24
 H1 
A   25
 H2 
A   26
 H3 
A   27
 H4 
A   28
 H5 
A   29
 H6 
A   30
 H7 
A   31
 H8 
A   32
 H9 
A   33
 H10
A   34
 H11
A   35
 H12
A   36
 H13
A   37
 H14
A   38
 H15
A   39
 H16
A   40
 H17
A   41
 H18
A   42
 H19
A   43
 H20
A   44
 H21
A   45
 H22
A   46
 H23
M  END
>  <ref_pdb>  (169) 
x0051_0B

>  <ref_mols>  (169) 
x0969_1B,x0455_0B

>  <original SMILES>  (169) 
[H]c1c([H])c([H])c2c(c1[H])C([H])([H])C([H])([H])C([H])([H])C2([H])C([H])([H])N([H])C(=O)c1c([H])c([H])n2c1C([H])([H])N([H])C([H])([H])C2([H])[H]

>  <index>  (169) 
310

>  <∆∆G>  (169) 
-5.175787

>  <∆G_bound>  (169) 
-4.462196

>  <∆G_unbound>  (169) 
0.713592

>  <comRMSD>  (169) 
0.356821

>  <N_constrained_atoms>  (169) 
20.0

>  <N_unconstrained_atoms>  (169) 
3.0

>  <runtime>  (169) 
66.536399

>  <LE>  (169) 
0.225034

>  <percent_hybrid>  (169) 
50.0

>  <dist>  (169) 
6.0

>  <ecfp4>  (169) 
0.232558

>  <daylight>  (169) 
0.309249

>  <topodist>  (169) 
1.0

>  <mces>  (169) 
25.0

>  <tdn>  (169) 
0.0

>  <tup>  (169) 
1.0

>  <rdn>  (169) 
0.0

>  <rup>  (169) 
0.0

>  <ldn>  (169) 
0.0

>  <lup>  (169) 
0.0

>  <mut>  (169) 
4.0

>  <maj>  (169) 
4.0

>  <min>  (169) 
0.0

>  <hyb>  (169) 
1.0

>  <sub>  (169) 
0.0

>  <query_index>  (169) 
204.0

>  <max_hit_Tanimoto>  (169) 
0.276408

>  <largest_ring>  (169) 
6

>  <N_interactions_kept>  (169) 
0.0

>  <N_interactions_lost>  (169) 
2.5

>  <interaction_uniqueness_metric>  (169) 
0.309474

>  <ad_hoc_penalty>  (169) 
-25.49208

>  <N_rotatable_bonds>  (169) 
3

>  <N_HA>  (169) 
23

>  <cluster>  (169) 
5935

>  <N_interactions>  (169) 
8

>  <Enamine>  (169) 
1

>  <Mcule>  (169) 
0

>  <N_PAINS>  (169) 
0

>  <UFF_Gibbs>  (169) 
115.026861

>  <strain_per_HA>  (169) 
5.001168

>  <saltbridge:HIS:51>  (169) 
0

>  <pistack:HIS:51>  (169) 
0

>  <hydroph_interaction:HIS:51>  (169) 
1

>  <hbond:ALA:132>  (169) 
0

>  <hbond:SER:135>  (169) 
0

>  <hydroph_interaction:TYR:150>  (169) 
1

>  <pistack:TYR:161>  (169) 
1

>  <hydroph_interaction:TYR:161>  (169) 
2

>  <hydroph_interaction:ASP:83>  (169) 
0

>  <hbond:TYR:130>  (169) 
0

>  <hydroph_interaction:ALA:132>  (169) 
0

>  <hbond:HIS:51>  (169) 
2

>  <hbond:ASP:129>  (169) 
0

>  <hbond:TYR:150>  (169) 
0

>  <hbond:GLY:151>  (169) 
0

>  <hbond:TYR:161>  (169) 
0

>  <hydroph_interaction:TYR:130>  (169) 
0

>  <hydroph_interaction:PRO:131>  (169) 
0

>  <hydroph_interaction:ASP:129>  (169) 
0

>  <saltbridge:ASP:75>  (169) 
0

>  <saltbridge:ASP:83>  (169) 
0

>  <hydroph_interaction:ASN:152>  (169) 
0

>  <halogenbond:TYR:150>  (169) 
0

>  <hbond:ASP:83>  (169) 
1

>  <hydroph_interaction:VAL:155>  (169) 
0

>  <pication:TYR:161>  (169) 
0

>  <hbond:PRO:131>  (169) 
0

>  <hbond:LEU:128>  (169) 
0

>  <saltbridge:ASP:129>  (169) 
0

>  <hbond:THR:134>  (169) 
0

>  <pication:HIS:51>  (169) 
0

>  <hbond:SER:81>  (169) 
0

>  <hbond:GLY:159>  (169) 
0

>  <hydroph_interaction:PRO:101>  (169) 
0

>  <hydroph_interaction:THR:134>  (169) 
0

>  <hbond:GLY:82>  (169) 
0

>  <hydroph_interaction:GLU:104>  (169) 
0

>  <hydroph_interaction:VAL:36>  (169) 
0

>  <hydroph_interaction:MET:49>  (169) 
0

>  <halogenbond:GLU:104>  (169) 
0

>  <hydroph_interaction:LYS:107>  (169) 
0

$$$$
Z2835582124
     RDKit          3D

 39 41  0  0  0  0  0  0  0  0999 V2000
   -5.0980    4.5225  -16.2824 C   0  0  0  0  0  0  0  0  0  0  0  0
   -6.4423    4.9767  -16.7831 C   0  0  0  0  0  0  0  0  0  0  0  0
   -6.5686    5.4297  -18.1072 C   0  0  0  0  0  0  0  0  0  0  0  0
   -7.8049    5.8544  -18.5973 C   0  0  0  0  0  0  0  0  0  0  0  0
   -8.9343    5.8202  -17.7752 C   0  0  0  0  0  0  0  0  0  0  0  0
  -10.2111    6.2450  -18.2873 C   0  0  0  0  0  0  0  0  0  0  0  0
  -11.2373    6.5865  -18.6988 N   0  0  0  0  0  0  0  0  0  0  0  0
   -8.8249    5.3603  -16.4583 C   0  0  0  0  0  0  0  0  0  0  0  0
   -7.5824    4.9433  -15.9464 C   0  0  0  0  0  0  0  0  0  0  0  0
   -7.4881    4.4365  -14.6024 N   0  0  0  0  0  0  0  0  0  0  0  0
   -8.1549    5.0347  -13.4806 C   0  0  0  0  0  0  0  0  0  0  0  0
   -8.7294    6.1496  -13.6073 O   0  0  0  0  0  0  0  0  0  0  0  0
   -8.1585    4.3529  -12.2174 N   0  0  0  0  0  0  0  0  0  0  0  0
   -8.6226    4.9251  -10.9837 C   0  0  0  0  0  0  0  0  0  0  0  0
   -8.8995    4.2425   -9.8187 C   0  0  0  0  0  0  0  0  0  0  0  0
   -8.9028    2.7599   -9.5871 C   0  0  0  0  0  0  0  0  0  0  0  0
   -8.9606    2.4520   -8.0820 C   0  0  0  0  0  0  0  0  0  0  0  0
  -10.0006    3.3305   -7.3668 C   0  0  0  0  0  0  0  0  0  0  0  0
   -9.6511    4.8205   -7.5133 C   0  0  0  0  0  0  0  0  0  0  0  0
   -9.3082    5.1348   -8.8989 N   0  0  0  0  0  0  0  0  0  0  0  0
   -9.2526    6.3601   -9.3985 N   0  0  0  0  0  0  0  0  0  0  0  0
   -8.8387    6.2620  -10.6804 C   0  0  0  0  0  0  0  0  0  0  0  0
   -4.8842    4.9801  -15.2934 H   0  0  0  0  0  0  0  0  0  0  0  0
   -4.2833    4.8208  -16.9761 H   0  0  0  0  0  0  0  0  0  0  0  0
   -5.0912    3.4167  -16.1860 H   0  0  0  0  0  0  0  0  0  0  0  0
   -5.7076    5.4570  -18.7636 H   0  0  0  0  0  0  0  0  0  0  0  0
   -7.8808    6.2034  -19.6203 H   0  0  0  0  0  0  0  0  0  0  0  0
   -9.7125    5.3032  -15.8397 H   0  0  0  0  0  0  0  0  0  0  0  0
   -6.8538    3.6281  -14.4150 H   0  0  0  0  0  0  0  0  0  0  0  0
   -7.8307    3.3615  -12.2035 H   0  0  0  0  0  0  0  0  0  0  0  0
   -9.7917    2.3226  -10.0901 H   0  0  0  0  0  0  0  0  0  0  0  0
   -7.9876    2.3037  -10.0203 H   0  0  0  0  0  0  0  0  0  0  0  0
   -7.9594    2.6263   -7.6295 H   0  0  0  0  0  0  0  0  0  0  0  0
   -9.2182    1.3809   -7.9366 H   0  0  0  0  0  0  0  0  0  0  0  0
  -10.0355    3.0638   -6.2886 H   0  0  0  0  0  0  0  0  0  0  0  0
  -11.0061    3.1409   -7.8025 H   0  0  0  0  0  0  0  0  0  0  0  0
  -10.5167    5.4382   -7.1913 H   0  0  0  0  0  0  0  0  0  0  0  0
   -8.7833    5.0631   -6.8629 H   0  0  0  0  0  0  0  0  0  0  0  0
   -8.6860    7.1142  -11.3266 H   0  0  0  0  0  0  0  0  0  0  0  0
  1  2  1  0
  2  3  2  0
  3  4  1  0
  4  5  2  0
  5  6  1  0
  6  7  3  0
  5  8  1  0
  8  9  2  0
  9 10  1  0
 10 11  1  0
 11 12  2  0
 11 13  1  0
 13 14  1  0
 14 15  2  0
 15 16  1  0
 16 17  1  0
 17 18  1  0
 18 19  1  0
 19 20  1  0
 20 21  1  0
 21 22  2  0
  9  2  1  0
 22 14  1  0
 20 15  1  0
  1 23  1  0
  1 24  1  0
  1 25  1  0
  3 26  1  0
  4 27  1  0
  8 28  1  0
 10 29  1  0
 13 30  1  0
 16 31  1  0
 16 32  1  0
 17 33  1  0
 17 34  1  0
 18 35  1  0
 18 36  1  0
 19 37  1  0
 19 38  1  0
 22 39  1  0
A    1
 C1 
A    2
 C2 
A    3
 C3 
A    4
 C4 
A    5
 C5 
A    6
 C6 
A    7
 N1 
A    8
 C7 
A    9
 C8 
A   10
 N2 
A   11
 C9 
A   12
 O1 
A   13
 N3 
A   14
 C10
A   15
 C11
A   16
 C12
A   17
 C13
A   18
 C14
A   19
 C15
A   20
 N4 
A   21
 N5 
A   22
 C16
A   23
 H1 
A   24
 H2 
A   25
 H3 
A   26
 H4 
A   27
 H5 
A   28
 H6 
A   29
 H7 
A   30
 H8 
A   31
 H9 
A   32
 H10
A   33
 H11
A   34
 H12
A   35
 H13
A   36
 H14
A   37
 H15
A   38
 H16
A   39
 H17
M  END
>  <ref_pdb>  (170) 
x0051_0B

>  <ref_mols>  (170) 
x0553_0B,x0969_1B

>  <original SMILES>  (170) 
[H]c1nn2c(c1N([H])C(=O)N([H])c1c([H])c(C#N)c([H])c([H])c1C([H])([H])[H])C([H])([H])C([H])([H])C([H])([H])C2([H])[H]

>  <index>  (170) 
280

>  <∆∆G>  (170) 
-5.754283

>  <∆G_bound>  (170) 
-5.052154

>  <∆G_unbound>  (170) 
0.702129

>  <comRMSD>  (170) 
0.504252

>  <N_constrained_atoms>  (170) 
19.0

>  <N_unconstrained_atoms>  (170) 
3.0

>  <runtime>  (170) 
60.016714

>  <LE>  (170) 
0.261558

>  <percent_hybrid>  (170) 
48.0

>  <dist>  (170) 
5.0

>  <ecfp4>  (170) 
0.445946

>  <daylight>  (170) 
0.259136

>  <topodist>  (170) 
1.0

>  <mces>  (170) 
23.0

>  <tdn>  (170) 
0.0

>  <tup>  (170) 
1.0

>  <rdn>  (170) 
0.0

>  <rup>  (170) 
0.0

>  <ldn>  (170) 
0.0

>  <lup>  (170) 
0.0

>  <mut>  (170) 
3.0

>  <maj>  (170) 
3.0

>  <min>  (170) 
0.0

>  <hyb>  (170) 
1.0

>  <sub>  (170) 
0.0

>  <query_index>  (170) 
375.0

>  <max_hit_Tanimoto>  (170) 
0.267992

>  <largest_ring>  (170) 
6

>  <N_interactions_kept>  (170) 
1.5

>  <N_interactions_lost>  (170) 
1.0

>  <interaction_uniqueness_metric>  (170) 
0.177326

>  <ad_hoc_penalty>  (170) 
-25.47197

>  <N_rotatable_bonds>  (170) 
3

>  <N_HA>  (170) 
22

>  <cluster>  (170) 
5960

>  <N_interactions>  (170) 
5

>  <Enamine>  (170) 
1

>  <Mcule>  (170) 
0

>  <N_PAINS>  (170) 
0

>  <UFF_Gibbs>  (170) 
85.91869

>  <strain_per_HA>  (170) 
3.905395

>  <saltbridge:HIS:51>  (170) 
0

>  <pistack:HIS:51>  (170) 
1

>  <hydroph_interaction:HIS:51>  (170) 
0

>  <hbond:ALA:132>  (170) 
0

>  <hbond:SER:135>  (170) 
0

>  <hydroph_interaction:TYR:150>  (170) 
0

>  <pistack:TYR:161>  (170) 
1

>  <hydroph_interaction:TYR:161>  (170) 
1

>  <hydroph_interaction:ASP:83>  (170) 
1

>  <hbond:TYR:130>  (170) 
0

>  <hydroph_interaction:ALA:132>  (170) 
0

>  <hbond:HIS:51>  (170) 
0

>  <hbond:ASP:129>  (170) 
0

>  <hbond:TYR:150>  (170) 
0

>  <hbond:GLY:151>  (170) 
0

>  <hbond:TYR:161>  (170) 
1

>  <hydroph_interaction:TYR:130>  (170) 
0

>  <hydroph_interaction:PRO:131>  (170) 
0

>  <hydroph_interaction:ASP:129>  (170) 
0

>  <saltbridge:ASP:75>  (170) 
0

>  <saltbridge:ASP:83>  (170) 
0

>  <hydroph_interaction:ASN:152>  (170) 
0

>  <halogenbond:TYR:150>  (170) 
0

>  <hbond:ASP:83>  (170) 
0

>  <hydroph_interaction:VAL:155>  (170) 
0

>  <pication:TYR:161>  (170) 
0

>  <hbond:PRO:131>  (170) 
0

>  <hbond:LEU:128>  (170) 
0

>  <saltbridge:ASP:129>  (170) 
0

>  <hbond:THR:134>  (170) 
0

>  <pication:HIS:51>  (170) 
0

>  <hbond:SER:81>  (170) 
0

>  <hbond:GLY:159>  (170) 
0

>  <hydroph_interaction:PRO:101>  (170) 
0

>  <hydroph_interaction:THR:134>  (170) 
0

>  <hbond:GLY:82>  (170) 
0

>  <hydroph_interaction:GLU:104>  (170) 
0

>  <hydroph_interaction:VAL:36>  (170) 
0

>  <hydroph_interaction:MET:49>  (170) 
0

>  <halogenbond:GLU:104>  (170) 
0

>  <hydroph_interaction:LYS:107>  (170) 
0

$$$$
CSSB00015753763
     RDKit          3D

 24 26  0  0  0  0  0  0  0  0999 V2000
   -5.4194    4.7786  -15.0163 N   0  0  0  0  0  0  0  0  0  0  0  0
   -6.2622    5.7604  -15.7012 C   0  0  2  0  0  0  0  0  0  0  0  0
   -7.7634    5.5853  -15.3041 C   0  0  0  0  0  0  0  0  0  0  0  0
   -8.4359    5.2808  -16.6065 C   0  0  0  0  0  0  0  0  0  0  0  0
   -9.7840    5.0291  -16.8778 C   0  0  0  0  0  0  0  0  0  0  0  0
  -10.1666    4.7748  -18.2136 C   0  0  0  0  0  0  0  0  0  0  0  0
   -9.2050    4.7787  -19.2518 C   0  0  0  0  0  0  0  0  0  0  0  0
   -7.8563    5.0377  -18.9475 C   0  0  0  0  0  0  0  0  0  0  0  0
   -6.8176    5.0749  -19.8952 C   0  0  0  0  0  0  0  0  0  0  0  0
   -5.4965    5.3549  -19.4723 C   0  0  0  0  0  0  0  0  0  0  0  0
   -5.2131    5.5945  -18.1095 C   0  0  0  0  0  0  0  0  0  0  0  0
   -6.2658    5.5433  -17.1897 C   0  0  0  0  0  0  0  0  0  0  0  0
   -7.5278    5.2779  -17.6177 C   0  0  0  0  0  0  0  0  0  0  0  0
   -4.4245    4.9487  -15.2905 H   0  0  0  0  0  0  0  0  0  0  0  0
   -5.6714    3.8162  -15.3424 H   0  0  0  0  0  0  0  0  0  0  0  0
   -5.9162    6.7911  -15.4663 H   0  0  0  0  0  0  0  0  0  0  0  0
   -8.1706    6.5269  -14.8772 H   0  0  0  0  0  0  0  0  0  0  0  0
   -7.9152    4.7465  -14.5906 H   0  0  0  0  0  0  0  0  0  0  0  0
  -10.5179    5.0299  -16.0826 H   0  0  0  0  0  0  0  0  0  0  0  0
  -11.2051    4.5773  -18.4452 H   0  0  0  0  0  0  0  0  0  0  0  0
   -9.5122    4.5850  -20.2720 H   0  0  0  0  0  0  0  0  0  0  0  0
   -7.0213    4.8947  -20.9433 H   0  0  0  0  0  0  0  0  0  0  0  0
   -4.6961    5.3874  -20.1998 H   0  0  0  0  0  0  0  0  0  0  0  0
   -4.2040    5.8122  -17.7850 H   0  0  0  0  0  0  0  0  0  0  0  0
  1  2  1  0
  2  3  1  0
  3  4  1  0
  4  5  2  0
  5  6  1  0
  6  7  2  0
  7  8  1  0
  8  9  2  0
  9 10  1  0
 10 11  2  0
 11 12  1  0
 12 13  2  0
 12  2  1  0
 13  4  1  0
 13  8  1  0
  1 14  1  0
  1 15  1  0
  2 16  1  6
  3 17  1  0
  3 18  1  0
  5 19  1  0
  6 20  1  0
  7 21  1  0
  9 22  1  0
 10 23  1  0
 11 24  1  0
A    1
 N1 
A    2
 C1 
A    3
 C2 
A    4
 C3 
A    5
 C4 
A    6
 C5 
A    7
 C6 
A    8
 C7 
A    9
 C8 
A   10
 C9 
A   11
 C10
A   12
 C11
A   13
 C12
A   14
 H1 
A   15
 H2 
A   16
 H3 
A   17
 H4 
A   18
 H5 
A   19
 H6 
A   20
 H7 
A   21
 H8 
A   22
 H9 
A   23
 H10
A   24
 H11
M  END
>  <ref_pdb>  (171) 
x0051_0B

>  <ref_mols>  (171) 
x0727_0B,x0455_0B

>  <original SMILES>  (171) 
[H]c1c([H])c2c3c(c([H])c([H])c([H])c3c1[H])[C@]([H])(N([H])[H])C2([H])[H]

>  <index>  (171) 
268

>  <∆∆G>  (171) 
-7.34554

>  <∆G_bound>  (171) 
-7.40258

>  <∆G_unbound>  (171) 
-0.05704

>  <comRMSD>  (171) 
0.858977

>  <N_constrained_atoms>  (171) 
14.0

>  <N_unconstrained_atoms>  (171) 
0.0

>  <runtime>  (171) 
20.044541

>  <LE>  (171) 
0.524681

>  <percent_hybrid>  (171) 
34.0

>  <dist>  (171) 
3.0

>  <ecfp4>  (171) 
0.27907

>  <daylight>  (171) 
0.284314

>  <topodist>  (171) 
1.0

>  <mces>  (171) 
15.0

>  <tdn>  (171) 
0.0

>  <tup>  (171) 
0.0

>  <rdn>  (171) 
0.0

>  <rup>  (171) 
0.0

>  <ldn>  (171) 
1.0

>  <lup>  (171) 
0.0

>  <mut>  (171) 
2.0

>  <maj>  (171) 
2.0

>  <min>  (171) 
0.0

>  <hyb>  (171) 
0.0

>  <sub>  (171) 
0.0

>  <query_index>  (171) 
57.0

>  <max_hit_Tanimoto>  (171) 
0.164782

>  <largest_ring>  (171) 
6

>  <N_interactions_kept>  (171) 
0.0

>  <N_interactions_lost>  (171) 
3.0

>  <interaction_uniqueness_metric>  (171) 
0.092505

>  <ad_hoc_penalty>  (171) 
-25.458195

>  <N_rotatable_bonds>  (171) 
1

>  <N_HA>  (171) 
13

>  <cluster>  (171) 
5972

>  <N_interactions>  (171) 
7

>  <Enamine>  (171) 
1

>  <Mcule>  (171) 
0

>  <N_PAINS>  (171) 
0

>  <UFF_Gibbs>  (171) 
47.506318

>  <strain_per_HA>  (171) 
3.393308

>  <saltbridge:HIS:51>  (171) 
0

>  <pistack:HIS:51>  (171) 
0

>  <hydroph_interaction:HIS:51>  (171) 
0

>  <hbond:ALA:132>  (171) 
0

>  <hbond:SER:135>  (171) 
0

>  <hydroph_interaction:TYR:150>  (171) 
1

>  <pistack:TYR:161>  (171) 
2

>  <hydroph_interaction:TYR:161>  (171) 
3

>  <hydroph_interaction:ASP:83>  (171) 
0

>  <hbond:TYR:130>  (171) 
0

>  <hydroph_interaction:ALA:132>  (171) 
0

>  <hbond:HIS:51>  (171) 
0

>  <hbond:ASP:129>  (171) 
0

>  <hbond:TYR:150>  (171) 
0

>  <hbond:GLY:151>  (171) 
0

>  <hbond:TYR:161>  (171) 
1

>  <hydroph_interaction:TYR:130>  (171) 
0

>  <hydroph_interaction:PRO:131>  (171) 
0

>  <hydroph_interaction:ASP:129>  (171) 
0

>  <saltbridge:ASP:75>  (171) 
0

>  <saltbridge:ASP:83>  (171) 
0

>  <hydroph_interaction:ASN:152>  (171) 
0

>  <halogenbond:TYR:150>  (171) 
0

>  <hbond:ASP:83>  (171) 
0

>  <hydroph_interaction:VAL:155>  (171) 
0

>  <pication:TYR:161>  (171) 
0

>  <hbond:PRO:131>  (171) 
0

>  <hbond:LEU:128>  (171) 
0

>  <saltbridge:ASP:129>  (171) 
0

>  <hbond:THR:134>  (171) 
0

>  <pication:HIS:51>  (171) 
0

>  <hbond:SER:81>  (171) 
0

>  <hbond:GLY:159>  (171) 
0

>  <hydroph_interaction:PRO:101>  (171) 
0

>  <hydroph_interaction:THR:134>  (171) 
0

>  <hbond:GLY:82>  (171) 
0

>  <hydroph_interaction:GLU:104>  (171) 
0

>  <hydroph_interaction:VAL:36>  (171) 
0

>  <hydroph_interaction:MET:49>  (171) 
0

>  <halogenbond:GLU:104>  (171) 
0

>  <hydroph_interaction:LYS:107>  (171) 
0

$$$$
MCULE-4074595668
     RDKit          3D

 21 22  0  0  0  0  0  0  0  0999 V2000
   -7.8995    5.0699  -18.1006 C   0  0  0  0  0  0  0  0  0  0  0  0
   -8.4411    5.5215  -16.9096 C   0  0  0  0  0  0  0  0  0  0  0  0
   -9.7552    5.1075  -16.9152 C   0  0  0  0  0  0  0  0  0  0  0  0
   -9.9409    4.4383  -18.1065 C   0  0  0  0  0  0  0  0  0  0  0  0
   -8.8212    4.4374  -18.7918 O   0  0  0  0  0  0  0  0  0  0  0  0
   -6.5201    5.2862  -18.5931 C   0  0  0  0  0  0  0  0  0  0  0  0
   -6.3444    5.5644  -19.9585 C   0  0  0  0  0  0  0  0  0  0  0  0
   -5.1060    5.8036  -20.4622 N   0  0  0  0  0  0  0  0  0  0  0  0
   -3.9991    5.7742  -19.6786 C   0  0  0  0  0  0  0  0  0  0  0  0
   -4.1110    5.4786  -18.3210 C   0  0  0  0  0  0  0  0  0  0  0  0
   -5.3711    5.2074  -17.7645 C   0  0  0  0  0  0  0  0  0  0  0  0
   -5.4458    4.8344  -16.3075 C   0  0  0  0  0  0  0  0  0  0  0  0
   -7.9595    6.1123  -16.1435 H   0  0  0  0  0  0  0  0  0  0  0  0
  -10.4962    5.2862  -16.1476 H   0  0  0  0  0  0  0  0  0  0  0  0
  -10.8631    3.9829  -18.4417 H   0  0  0  0  0  0  0  0  0  0  0  0
   -7.1980    5.6129  -20.6231 H   0  0  0  0  0  0  0  0  0  0  0  0
   -3.0282    5.9735  -20.1122 H   0  0  0  0  0  0  0  0  0  0  0  0
   -3.2164    5.4463  -17.7112 H   0  0  0  0  0  0  0  0  0  0  0  0
   -4.4820    4.4068  -15.9574 H   0  0  0  0  0  0  0  0  0  0  0  0
   -6.2235    4.0612  -16.1364 H   0  0  0  0  0  0  0  0  0  0  0  0
   -5.6658    5.7367  -15.7008 H   0  0  0  0  0  0  0  0  0  0  0  0
  1  2  2  0
  2  3  1  0
  3  4  2  0
  4  5  1  0
  1  6  1  0
  6  7  2  0
  7  8  1  0
  8  9  2  0
  9 10  1  0
 10 11  2  0
 11 12  1  0
  5  1  1  0
  6 11  1  0
  2 13  1  0
  3 14  1  0
  4 15  1  0
  7 16  1  0
  9 17  1  0
 10 18  1  0
 12 19  1  0
 12 20  1  0
 12 21  1  0
A    1
 C1 
A    2
 C2 
A    3
 C3 
A    4
 C4 
A    5
 O1 
A    6
 C5 
A    7
 C6 
A    8
 N1 
A    9
 C7 
A   10
 C8 
A   11
 C9 
A   12
 C10
A   13
 H1 
A   14
 H2 
A   15
 H3 
A   16
 H4 
A   17
 H5 
A   18
 H6 
A   19
 H7 
A   20
 H8 
A   21
 H9 
M  END
>  <ref_pdb>  (172) 
x0051_0B

>  <ref_mols>  (172) 
x0680_0B,x0386_0B

>  <original SMILES>  (172) 
[H]c1nc([H])c(-c2oc([H])c([H])c2[H])c(C([H])([H])[H])c1[H]

>  <index>  (172) 
203

>  <∆∆G>  (172) 
-5.876176

>  <∆G_bound>  (172) 
-6.049082

>  <∆G_unbound>  (172) 
-0.172906

>  <comRMSD>  (172) 
0.605373

>  <N_constrained_atoms>  (172) 
13.0

>  <N_unconstrained_atoms>  (172) 
0.0

>  <runtime>  (172) 
22.028279

>  <LE>  (172) 
0.452014

>  <percent_hybrid>  (172) 
25.0

>  <dist>  (172) 
2.0

>  <ecfp4>  (172) 
0.465116

>  <daylight>  (172) 
0.347222

>  <topodist>  (172) 
0.0

>  <mces>  (172) 
13.0

>  <tdn>  (172) 
0.0

>  <tup>  (172) 
0.0

>  <rdn>  (172) 
0.0

>  <rup>  (172) 
0.0

>  <ldn>  (172) 
0.0

>  <lup>  (172) 
0.0

>  <mut>  (172) 
2.0

>  <maj>  (172) 
2.0

>  <min>  (172) 
0.0

>  <hyb>  (172) 
0.0

>  <sub>  (172) 
0.0

>  <query_index>  (172) 
296.0

>  <max_hit_Tanimoto>  (172) 
0.1518

>  <largest_ring>  (172) 
6

>  <N_interactions_kept>  (172) 
3.5

>  <N_interactions_lost>  (172) 
0.5

>  <interaction_uniqueness_metric>  (172) 
0.018782

>  <ad_hoc_penalty>  (172) 
-25.450696

>  <N_rotatable_bonds>  (172) 
2

>  <N_HA>  (172) 
12

>  <cluster>  (172) 
6034

>  <N_interactions>  (172) 
4

>  <Enamine>  (172) 
0

>  <Mcule>  (172) 
1

>  <N_PAINS>  (172) 
0

>  <UFF_Gibbs>  (172) 
55.968548

>  <strain_per_HA>  (172) 
4.305273

>  <saltbridge:HIS:51>  (172) 
0

>  <pistack:HIS:51>  (172) 
0

>  <hydroph_interaction:HIS:51>  (172) 
0

>  <hbond:ALA:132>  (172) 
0

>  <hbond:SER:135>  (172) 
0

>  <hydroph_interaction:TYR:150>  (172) 
0

>  <pistack:TYR:161>  (172) 
0

>  <hydroph_interaction:TYR:161>  (172) 
4

>  <hydroph_interaction:ASP:83>  (172) 
0

>  <hbond:TYR:130>  (172) 
0

>  <hydroph_interaction:ALA:132>  (172) 
0

>  <hbond:HIS:51>  (172) 
0

>  <hbond:ASP:129>  (172) 
0

>  <hbond:TYR:150>  (172) 
0

>  <hbond:GLY:151>  (172) 
0

>  <hbond:TYR:161>  (172) 
0

>  <hydroph_interaction:TYR:130>  (172) 
0

>  <hydroph_interaction:PRO:131>  (172) 
0

>  <hydroph_interaction:ASP:129>  (172) 
0

>  <saltbridge:ASP:75>  (172) 
0

>  <saltbridge:ASP:83>  (172) 
0

>  <hydroph_interaction:ASN:152>  (172) 
0

>  <halogenbond:TYR:150>  (172) 
0

>  <hbond:ASP:83>  (172) 
0

>  <hydroph_interaction:VAL:155>  (172) 
0

>  <pication:TYR:161>  (172) 
0

>  <hbond:PRO:131>  (172) 
0

>  <hbond:LEU:128>  (172) 
0

>  <saltbridge:ASP:129>  (172) 
0

>  <hbond:THR:134>  (172) 
0

>  <pication:HIS:51>  (172) 
0

>  <hbond:SER:81>  (172) 
0

>  <hbond:GLY:159>  (172) 
0

>  <hydroph_interaction:PRO:101>  (172) 
0

>  <hydroph_interaction:THR:134>  (172) 
0

>  <hbond:GLY:82>  (172) 
0

>  <hydroph_interaction:GLU:104>  (172) 
0

>  <hydroph_interaction:VAL:36>  (172) 
0

>  <hydroph_interaction:MET:49>  (172) 
0

>  <halogenbond:GLU:104>  (172) 
0

>  <hydroph_interaction:LYS:107>  (172) 
0

$$$$
GYWDORNTNIQTQJ-UHFFFAOYSA-N
     RDKit          3D

 48 51  0  0  0  0  0  0  0  0999 V2000
   -7.0001    8.1987  -25.6112 O   0  0  0  0  0  0  0  0  0  0  0  0
   -6.3676    8.9142  -24.5870 C   0  0  0  0  0  0  0  0  0  0  0  0
   -5.8887   10.0589  -24.8180 O   0  0  0  0  0  0  0  0  0  0  0  0
   -6.2619    8.3237  -23.2347 C   0  0  0  0  0  0  0  0  0  0  0  0
   -6.7990    7.0525  -22.9726 C   0  0  0  0  0  0  0  0  0  0  0  0
   -6.7036    6.4910  -21.6963 C   0  0  0  0  0  0  0  0  0  0  0  0
   -6.0680    7.1881  -20.6541 C   0  0  0  0  0  0  0  0  0  0  0  0
   -5.9666    6.5911  -19.2978 C   0  0  0  0  0  0  0  0  0  0  0  0
   -7.0548    5.8956  -18.7413 C   0  0  0  0  0  0  0  0  0  0  0  0
   -6.9570    5.3146  -17.4684 C   0  0  0  0  0  0  0  0  0  0  0  0
   -8.1355    4.6031  -16.8718 C   0  0  0  0  0  0  0  0  0  0  0  0
   -5.7748    5.4616  -16.7296 C   0  0  0  0  0  0  0  0  0  0  0  0
   -4.6875    6.1678  -17.2627 C   0  0  0  0  0  0  0  0  0  0  0  0
   -3.4070    6.2760  -16.4883 C   0  0  0  0  0  0  0  0  0  0  0  0
   -4.7809    6.7134  -18.5514 C   0  0  0  0  0  0  0  0  0  0  0  0
   -5.5303    8.4599  -20.9175 C   0  0  0  0  0  0  0  0  0  0  0  0
   -5.6267    9.0220  -22.1935 C   0  0  0  0  0  0  0  0  0  0  0  0
   -7.1699    8.7083  -26.9342 C   0  0  0  0  0  0  0  0  0  0  0  0
   -7.6788    7.5913  -27.8706 C   0  0  0  0  0  0  0  0  0  0  0  0
   -8.8664    8.1854  -28.5249 C   0  0  0  0  0  0  0  0  0  0  0  0
   -9.1644    9.4281  -28.0255 C   0  0  0  0  0  0  0  0  0  0  0  0
  -10.2623   10.1520  -28.4979 C   0  0  0  0  0  0  0  0  0  0  0  0
  -11.0608    9.5868  -29.5041 C   0  0  0  0  0  0  0  0  0  0  0  0
  -10.7551    8.3129  -30.0163 C   0  0  0  0  0  0  0  0  0  0  0  0
   -9.6504    7.6014  -29.5233 C   0  0  0  0  0  0  0  0  0  0  0  0
   -8.2205    9.8431  -26.9639 C   0  0  0  0  0  0  0  0  0  0  0  0
   -7.2917    6.4879  -23.7543 H   0  0  0  0  0  0  0  0  0  0  0  0
   -7.1125    5.5023  -21.5291 H   0  0  0  0  0  0  0  0  0  0  0  0
   -7.9846    5.8147  -19.2917 H   0  0  0  0  0  0  0  0  0  0  0  0
   -7.8011    3.8098  -16.1697 H   0  0  0  0  0  0  0  0  0  0  0  0
   -8.7461    4.1224  -17.6657 H   0  0  0  0  0  0  0  0  0  0  0  0
   -8.7662    5.3318  -16.3211 H   0  0  0  0  0  0  0  0  0  0  0  0
   -5.7008    5.0264  -15.7397 H   0  0  0  0  0  0  0  0  0  0  0  0
   -2.7630    5.4012  -16.7162 H   0  0  0  0  0  0  0  0  0  0  0  0
   -3.6105    6.3019  -15.3966 H   0  0  0  0  0  0  0  0  0  0  0  0
   -2.8627    7.2064  -16.7570 H   0  0  0  0  0  0  0  0  0  0  0  0
   -3.9241    7.2230  -18.9758 H   0  0  0  0  0  0  0  0  0  0  0  0
   -5.0501    9.0290  -20.1312 H   0  0  0  0  0  0  0  0  0  0  0  0
   -5.2062   10.0054  -22.3628 H   0  0  0  0  0  0  0  0  0  0  0  0
   -6.1955    9.0854  -27.3200 H   0  0  0  0  0  0  0  0  0  0  0  0
   -6.9110    7.3248  -28.6287 H   0  0  0  0  0  0  0  0  0  0  0  0
   -7.9809    6.6859  -27.3003 H   0  0  0  0  0  0  0  0  0  0  0  0
  -10.4945   11.1297  -28.0956 H   0  0  0  0  0  0  0  0  0  0  0  0
  -11.9152   10.1312  -29.8848 H   0  0  0  0  0  0  0  0  0  0  0  0
  -11.3747    7.8791  -30.7904 H   0  0  0  0  0  0  0  0  0  0  0  0
   -9.4122    6.6188  -29.9097 H   0  0  0  0  0  0  0  0  0  0  0  0
   -7.7487   10.8157  -27.2211 H   0  0  0  0  0  0  0  0  0  0  0  0
   -8.7620    9.9245  -25.9966 H   0  0  0  0  0  0  0  0  0  0  0  0
  1  2  1  0
  2  3  2  0
  2  4  1  0
  4  5  2  0
  5  6  1  0
  6  7  2  0
  7  8  1  0
  8  9  2  0
  9 10  1  0
 10 11  1  0
 10 12  2  0
 12 13  1  0
 13 14  1  0
 13 15  2  0
  7 16  1  0
 16 17  2  0
  1 18  1  0
 18 19  1  0
 19 20  1  0
 20 21  2  0
 21 22  1  0
 22 23  2  0
 23 24  1  0
 24 25  2  0
 21 26  1  0
 17  4  1  0
  8 15  1  0
 26 18  1  0
 25 20  1  0
  5 27  1  0
  6 28  1  0
  9 29  1  0
 11 30  1  0
 11 31  1  0
 11 32  1  0
 12 33  1  0
 14 34  1  0
 14 35  1  0
 14 36  1  0
 15 37  1  0
 16 38  1  0
 17 39  1  0
 18 40  1  0
 19 41  1  0
 19 42  1  0
 22 43  1  0
 23 44  1  0
 24 45  1  0
 25 46  1  0
 26 47  1  0
 26 48  1  0
A    1
 O1 
A    2
 C1 
A    3
 O2 
A    4
 C2 
A    5
 C3 
A    6
 C4 
A    7
 C5 
A    8
 C6 
A    9
 C7 
A   10
 C8 
A   11
 C9 
A   12
 C10
A   13
 C11
A   14
 C12
A   15
 C13
A   16
 C14
A   17
 C15
A   18
 C16
A   19
 C17
A   20
 C18
A   21
 C19
A   22
 C20
A   23
 C21
A   24
 C22
A   25
 C23
A   26
 C24
A   27
 H1 
A   28
 H2 
A   29
 H3 
A   30
 H4 
A   31
 H5 
A   32
 H6 
A   33
 H7 
A   34
 H8 
A   35
 H9 
A   36
 H10
A   37
 H11
A   38
 H12
A   39
 H13
A   40
 H14
A   41
 H15
A   42
 H16
A   43
 H17
A   44
 H18
A   45
 H19
A   46
 H20
A   47
 H21
A   48
 H22
M  END
>  <ref_pdb>  (173) 
x0051_0B

>  <ref_mols>  (173) 
x0846_1B,x0425_0B

>  <original SMILES>  (173) 
[H]c1c([H])c([H])c2c(c1[H])C([H])([H])C([H])(OC(=O)c1c([H])c([H])c(-c3c([H])c(C([H])([H])[H])c([H])c(C([H])([H])[H])c3[H])c([H])c1[H])C2([H])[H]

>  <index>  (173) 
331

>  <∆∆G>  (173) 
-10.067874

>  <∆G_bound>  (173) 
-10.04596

>  <∆G_unbound>  (173) 
0.021914

>  <comRMSD>  (173) 
0.979295

>  <N_constrained_atoms>  (173) 
29.0

>  <N_unconstrained_atoms>  (173) 
2.0

>  <runtime>  (173) 
55.813025

>  <LE>  (173) 
0.32477

>  <percent_hybrid>  (173) 
38.0

>  <dist>  (173) 
12.0

>  <ecfp4>  (173) 
0.113636

>  <daylight>  (173) 
0.082645

>  <topodist>  (173) 
6.0

>  <mces>  (173) 
28.0

>  <tdn>  (173) 
3.0

>  <tup>  (173) 
1.0

>  <rdn>  (173) 
0.0

>  <rup>  (173) 
0.0

>  <ldn>  (173) 
2.0

>  <lup>  (173) 
0.0

>  <mut>  (173) 
4.0

>  <maj>  (173) 
4.0

>  <min>  (173) 
0.0

>  <hyb>  (173) 
2.0

>  <sub>  (173) 
2.0

>  <query_index>  (173) 
25.0

>  <max_hit_Tanimoto>  (173) 
0.158568

>  <largest_ring>  (173) 
6

>  <N_interactions_kept>  (173) 
0.0

>  <N_interactions_lost>  (173) 
2.5

>  <interaction_uniqueness_metric>  (173) 
0.153471

>  <ad_hoc_penalty>  (173) 
-25.442545

>  <N_rotatable_bonds>  (173) 
5

>  <N_HA>  (173) 
26

>  <cluster>  (173) 
5917

>  <N_interactions>  (173) 
6

>  <Enamine>  (173) 
0

>  <Mcule>  (173) 
1

>  <N_PAINS>  (173) 
0

>  <UFF_Gibbs>  (173) 
86.460942

>  <strain_per_HA>  (173) 
2.789063

>  <saltbridge:HIS:51>  (173) 
0

>  <pistack:HIS:51>  (173) 
0

>  <hydroph_interaction:HIS:51>  (173) 
0

>  <hbond:ALA:132>  (173) 
0

>  <hbond:SER:135>  (173) 
0

>  <hydroph_interaction:TYR:150>  (173) 
0

>  <pistack:TYR:161>  (173) 
1

>  <hydroph_interaction:TYR:161>  (173) 
2

>  <hydroph_interaction:ASP:83>  (173) 
0

>  <hbond:TYR:130>  (173) 
0

>  <hydroph_interaction:ALA:132>  (173) 
1

>  <hbond:HIS:51>  (173) 
0

>  <hbond:ASP:129>  (173) 
0

>  <hbond:TYR:150>  (173) 
0

>  <hbond:GLY:151>  (173) 
0

>  <hbond:TYR:161>  (173) 
0

>  <hydroph_interaction:TYR:130>  (173) 
1

>  <hydroph_interaction:PRO:131>  (173) 
1

>  <hydroph_interaction:ASP:129>  (173) 
0

>  <saltbridge:ASP:75>  (173) 
0

>  <saltbridge:ASP:83>  (173) 
0

>  <hydroph_interaction:ASN:152>  (173) 
0

>  <halogenbond:TYR:150>  (173) 
0

>  <hbond:ASP:83>  (173) 
0

>  <hydroph_interaction:VAL:155>  (173) 
0

>  <pication:TYR:161>  (173) 
0

>  <hbond:PRO:131>  (173) 
0

>  <hbond:LEU:128>  (173) 
0

>  <saltbridge:ASP:129>  (173) 
0

>  <hbond:THR:134>  (173) 
0

>  <pication:HIS:51>  (173) 
0

>  <hbond:SER:81>  (173) 
0

>  <hbond:GLY:159>  (173) 
0

>  <hydroph_interaction:PRO:101>  (173) 
0

>  <hydroph_interaction:THR:134>  (173) 
0

>  <hbond:GLY:82>  (173) 
0

>  <hydroph_interaction:GLU:104>  (173) 
0

>  <hydroph_interaction:VAL:36>  (173) 
0

>  <hydroph_interaction:MET:49>  (173) 
0

>  <halogenbond:GLU:104>  (173) 
0

>  <hydroph_interaction:LYS:107>  (173) 
0

$$$$
CSSB00020595381
     RDKit          3D

 32 33  0  0  0  0  0  0  0  0999 V2000
   -9.7136    6.8643  -12.5486 N   0  0  0  0  0  0  0  0  0  0  0  0
   -9.5164    6.0679  -13.6882 N   0  0  0  0  0  0  0  0  0  0  0  0
   -8.7623    6.5681  -14.8007 C   0  0  0  0  0  0  0  0  0  0  0  0
   -8.1765    7.6804  -14.6969 O   0  0  0  0  0  0  0  0  0  0  0  0
   -8.6438    5.7961  -16.0620 C   0  0  0  0  0  0  0  0  0  0  0  0
   -9.6175    4.8503  -16.4295 C   0  0  0  0  0  0  0  0  0  0  0  0
   -9.4889    4.1294  -17.6187 C   0  0  0  0  0  0  0  0  0  0  0  0
   -8.3991    4.3511  -18.4622 C   0  0  0  0  0  0  0  0  0  0  0  0
   -7.4319    5.3149  -18.1308 C   0  0  0  0  0  0  0  0  0  0  0  0
   -6.2889    5.5483  -18.9718 N   0  0  0  0  0  0  0  0  0  0  0  0
   -6.3013    5.4026  -20.4007 C   0  0  0  0  0  0  0  0  0  0  0  0
   -7.3935    5.4502  -21.0300 O   0  0  0  0  0  0  0  0  0  0  0  0
   -5.0343    5.2910  -21.1572 C   0  0  0  0  0  0  0  0  0  0  0  0
   -4.9009    5.9947  -22.3679 C   0  0  0  0  0  0  0  0  0  0  0  0
   -3.7140    5.9284  -23.1015 C   0  0  0  0  0  0  0  0  0  0  0  0
   -2.6500    5.1521  -22.6417 C   0  0  0  0  0  0  0  0  0  0  0  0
   -2.7736    4.4320  -21.4521 C   0  0  0  0  0  0  0  0  0  0  0  0
   -3.9584    4.4899  -20.7069 C   0  0  0  0  0  0  0  0  0  0  0  0
   -4.0756    3.4780  -19.2697 Cl  0  0  0  0  0  0  0  0  0  0  0  0
   -7.5547    6.0214  -16.9243 C   0  0  0  0  0  0  0  0  0  0  0  0
  -10.3749    7.6280  -12.8173 H   0  0  0  0  0  0  0  0  0  0  0  0
  -10.2056    6.2813  -11.8335 H   0  0  0  0  0  0  0  0  0  0  0  0
   -9.8462    5.0763  -13.6810 H   0  0  0  0  0  0  0  0  0  0  0  0
  -10.4883    4.6751  -15.8125 H   0  0  0  0  0  0  0  0  0  0  0  0
  -10.2367    3.3941  -17.8868 H   0  0  0  0  0  0  0  0  0  0  0  0
   -8.3051    3.7563  -19.3609 H   0  0  0  0  0  0  0  0  0  0  0  0
   -5.4224    5.9328  -18.5311 H   0  0  0  0  0  0  0  0  0  0  0  0
   -5.7117    6.6105  -22.7381 H   0  0  0  0  0  0  0  0  0  0  0  0
   -3.6189    6.4812  -24.0272 H   0  0  0  0  0  0  0  0  0  0  0  0
   -1.7318    5.1006  -23.2125 H   0  0  0  0  0  0  0  0  0  0  0  0
   -1.9490    3.8164  -21.1152 H   0  0  0  0  0  0  0  0  0  0  0  0
   -6.7952    6.7474  -16.6598 H   0  0  0  0  0  0  0  0  0  0  0  0
  1  2  1  0
  2  3  1  0
  3  4  2  0
  3  5  1  0
  5  6  2  0
  6  7  1  0
  7  8  2  0
  8  9  1  0
  9 10  1  0
 10 11  1  0
 11 12  2  0
 11 13  1  0
 13 14  2  0
 14 15  1  0
 15 16  2  0
 16 17  1  0
 17 18  2  0
 18 19  1  0
  9 20  2  0
 20  5  1  0
 18 13  1  0
  1 21  1  0
  1 22  1  0
  2 23  1  0
  6 24  1  0
  7 25  1  0
  8 26  1  0
 10 27  1  0
 14 28  1  0
 15 29  1  0
 16 30  1  0
 17 31  1  0
 20 32  1  0
A    1
 N1 
A    2
 N2 
A    3
 C1 
A    4
 O1 
A    5
 C2 
A    6
 C3 
A    7
 C4 
A    8
 C5 
A    9
 C6 
A   10
 N3 
A   11
 C7 
A   12
 O2 
A   13
 C8 
A   14
 C9 
A   15
 C10
A   16
 C11
A   17
 C12
A   18
 C13
A   19
CL1 
A   20
 C14
A   21
 H1 
A   22
 H2 
A   23
 H3 
A   24
 H4 
A   25
 H5 
A   26
 H6 
A   27
 H7 
A   28
 H8 
A   29
 H9 
A   30
 H10
A   31
 H11
A   32
 H12
M  END
>  <ref_pdb>  (174) 
x0051_0B

>  <ref_mols>  (174) 
x0852_0B,x0951_0B

>  <original SMILES>  (174) 
[H]c1c([H])c([H])c(C(=O)N([H])c2c([H])c([H])c([H])c(C(=O)N([H])N([H])[H])c2[H])c(Cl)c1[H]

>  <index>  (174) 
398

>  <∆∆G>  (174) 
-6.685775

>  <∆G_bound>  (174) 
-6.000373

>  <∆G_unbound>  (174) 
0.685403

>  <comRMSD>  (174) 
0.397459

>  <N_constrained_atoms>  (174) 
22.0

>  <N_unconstrained_atoms>  (174) 
0.0

>  <runtime>  (174) 
43.097692

>  <LE>  (174) 
0.303899

>  <percent_hybrid>  (174) 
27.0

>  <dist>  (174) 
8.0

>  <ecfp4>  (174) 
0.2

>  <daylight>  (174) 
0.271028

>  <topodist>  (174) 
4.0

>  <mces>  (174) 
21.0

>  <tdn>  (174) 
3.0

>  <tup>  (174) 
0.0

>  <rdn>  (174) 
1.0

>  <rup>  (174) 
0.0

>  <ldn>  (174) 
0.0

>  <lup>  (174) 
0.0

>  <mut>  (174) 
3.0

>  <maj>  (174) 
2.0

>  <min>  (174) 
1.0

>  <hyb>  (174) 
1.0

>  <sub>  (174) 
3.0

>  <query_index>  (174) 
95.0

>  <max_hit_Tanimoto>  (174) 
0.346059

>  <largest_ring>  (174) 
6

>  <N_interactions_kept>  (174) 
2.0

>  <N_interactions_lost>  (174) 
4.0

>  <interaction_uniqueness_metric>  (174) 
0.265078

>  <ad_hoc_penalty>  (174) 
-25.405069

>  <N_rotatable_bonds>  (174) 
4

>  <N_HA>  (174) 
20

>  <cluster>  (174) 
514

>  <N_interactions>  (174) 
10

>  <Enamine>  (174) 
1

>  <Mcule>  (174) 
0

>  <N_PAINS>  (174) 
0

>  <UFF_Gibbs>  (174) 
59.397388

>  <strain_per_HA>  (174) 
2.699881

>  <saltbridge:HIS:51>  (174) 
0

>  <pistack:HIS:51>  (174) 
0

>  <hydroph_interaction:HIS:51>  (174) 
0

>  <hbond:ALA:132>  (174) 
0

>  <hbond:SER:135>  (174) 
0

>  <hydroph_interaction:TYR:150>  (174) 
1

>  <pistack:TYR:161>  (174) 
0

>  <hydroph_interaction:TYR:161>  (174) 
3

>  <hydroph_interaction:ASP:83>  (174) 
0

>  <hbond:TYR:130>  (174) 
1

>  <hydroph_interaction:ALA:132>  (174) 
1

>  <hbond:HIS:51>  (174) 
1

>  <hbond:ASP:129>  (174) 
1

>  <hbond:TYR:150>  (174) 
0

>  <hbond:GLY:151>  (174) 
1

>  <hbond:TYR:161>  (174) 
0

>  <hydroph_interaction:TYR:130>  (174) 
0

>  <hydroph_interaction:PRO:131>  (174) 
0

>  <hydroph_interaction:ASP:129>  (174) 
1

>  <saltbridge:ASP:75>  (174) 
0

>  <saltbridge:ASP:83>  (174) 
0

>  <hydroph_interaction:ASN:152>  (174) 
0

>  <halogenbond:TYR:150>  (174) 
0

>  <hbond:ASP:83>  (174) 
0

>  <hydroph_interaction:VAL:155>  (174) 
0

>  <pication:TYR:161>  (174) 
0

>  <hbond:PRO:131>  (174) 
0

>  <hbond:LEU:128>  (174) 
0

>  <saltbridge:ASP:129>  (174) 
0

>  <hbond:THR:134>  (174) 
0

>  <pication:HIS:51>  (174) 
0

>  <hbond:SER:81>  (174) 
0

>  <hbond:GLY:159>  (174) 
0

>  <hydroph_interaction:PRO:101>  (174) 
0

>  <hydroph_interaction:THR:134>  (174) 
0

>  <hbond:GLY:82>  (174) 
0

>  <hydroph_interaction:GLU:104>  (174) 
0

>  <hydroph_interaction:VAL:36>  (174) 
0

>  <hydroph_interaction:MET:49>  (174) 
0

>  <halogenbond:GLU:104>  (174) 
0

>  <hydroph_interaction:LYS:107>  (174) 
0

$$$$
QWPOYYNQZFRCFT-UHFFFAOYSA-N
     RDKit          3D

 46 49  0  0  0  0  0  0  0  0999 V2000
   -7.3438    8.2807  -24.8474 C   0  0  0  0  0  0  0  0  0  0  0  0
   -6.9732    7.7038  -26.1108 N   0  0  0  0  0  0  0  0  0  0  0  0
   -7.8306    7.6669  -27.2600 C   0  0  0  0  0  0  0  0  0  0  0  0
   -7.3488    7.4378  -28.5104 N   0  0  0  0  0  0  0  0  0  0  0  0
   -8.4646    7.4409  -29.2605 C   0  0  0  0  0  0  0  0  0  0  0  0
   -9.5626    7.6518  -28.4814 C   0  0  0  0  0  0  0  0  0  0  0  0
  -10.8517    7.6815  -29.0079 C   0  0  0  0  0  0  0  0  0  0  0  0
  -10.9921    7.4889  -30.3951 C   0  0  0  0  0  0  0  0  0  0  0  0
   -9.8547    7.2702  -31.2057 C   0  0  0  0  0  0  0  0  0  0  0  0
   -8.5674    7.2431  -30.6360 C   0  0  0  0  0  0  0  0  0  0  0  0
   -9.1824    7.7929  -27.2056 N   0  0  0  0  0  0  0  0  0  0  0  0
   -8.3107    9.0879  -24.7858 O   0  0  0  0  0  0  0  0  0  0  0  0
   -6.5640    7.9859  -23.6197 C   0  0  0  0  0  0  0  0  0  0  0  0
   -5.7613    6.8349  -23.5288 C   0  0  0  0  0  0  0  0  0  0  0  0
   -5.0220    6.5762  -22.3714 C   0  0  0  0  0  0  0  0  0  0  0  0
   -5.0739    7.4500  -21.2808 C   0  0  0  0  0  0  0  0  0  0  0  0
   -4.3009    7.1447  -20.1488 O   0  0  0  0  0  0  0  0  0  0  0  0
   -4.2963    7.8840  -18.9276 C   0  0  0  0  0  0  0  0  0  0  0  0
   -5.5824    7.6787  -18.1730 C   0  0  0  0  0  0  0  0  0  0  0  0
   -6.0195    6.3797  -17.8713 C   0  0  0  0  0  0  0  0  0  0  0  0
   -7.2034    6.1822  -17.1550 C   0  0  0  0  0  0  0  0  0  0  0  0
   -7.9710    7.2811  -16.7399 C   0  0  0  0  0  0  0  0  0  0  0  0
   -9.2240    7.0755  -15.9419 C   0  0  0  0  0  0  0  0  0  0  0  0
   -7.5217    8.5802  -17.0193 C   0  0  0  0  0  0  0  0  0  0  0  0
   -6.3352    8.7779  -17.7312 C   0  0  0  0  0  0  0  0  0  0  0  0
   -5.8877    8.5946  -21.3600 C   0  0  0  0  0  0  0  0  0  0  0  0
   -6.6275    8.8557  -22.5167 C   0  0  0  0  0  0  0  0  0  0  0  0
   -5.9898    7.3779  -26.2418 H   0  0  0  0  0  0  0  0  0  0  0  0
  -11.7142    7.8457  -28.3748 H   0  0  0  0  0  0  0  0  0  0  0  0
  -11.9767    7.5053  -30.8436 H   0  0  0  0  0  0  0  0  0  0  0  0
   -9.9749    7.1172  -32.2702 H   0  0  0  0  0  0  0  0  0  0  0  0
   -7.6899    7.0703  -31.2449 H   0  0  0  0  0  0  0  0  0  0  0  0
   -9.7993    7.9215  -26.3742 H   0  0  0  0  0  0  0  0  0  0  0  0
   -5.7121    6.1231  -24.3422 H   0  0  0  0  0  0  0  0  0  0  0  0
   -4.4057    5.6881  -22.3204 H   0  0  0  0  0  0  0  0  0  0  0  0
   -4.0990    8.9576  -19.1336 H   0  0  0  0  0  0  0  0  0  0  0  0
   -3.4598    7.5155  -18.2976 H   0  0  0  0  0  0  0  0  0  0  0  0
   -5.4407    5.5206  -18.1868 H   0  0  0  0  0  0  0  0  0  0  0  0
   -7.5202    5.1726  -16.9246 H   0  0  0  0  0  0  0  0  0  0  0  0
   -8.9969    7.1859  -14.8616 H   0  0  0  0  0  0  0  0  0  0  0  0
   -9.9918    7.8248  -16.2298 H   0  0  0  0  0  0  0  0  0  0  0  0
   -9.6476    6.0640  -16.1203 H   0  0  0  0  0  0  0  0  0  0  0  0
   -8.0875    9.4398  -16.6826 H   0  0  0  0  0  0  0  0  0  0  0  0
   -6.0053    9.7881  -17.9372 H   0  0  0  0  0  0  0  0  0  0  0  0
   -5.9508    9.2950  -20.5407 H   0  0  0  0  0  0  0  0  0  0  0  0
   -7.2393    9.7481  -22.5530 H   0  0  0  0  0  0  0  0  0  0  0  0
  1  2  1  0
  2  3  1  0
  3  4  2  0
  4  5  1  0
  5  6  2  0
  6  7  1  0
  7  8  2  0
  8  9  1  0
  9 10  2  0
  6 11  1  0
  1 12  2  0
  1 13  1  0
 13 14  2  0
 14 15  1  0
 15 16  2  0
 16 17  1  0
 17 18  1  0
 18 19  1  0
 19 20  2  0
 20 21  1  0
 21 22  2  0
 22 23  1  0
 22 24  1  0
 24 25  2  0
 16 26  1  0
 26 27  2  0
 11  3  1  0
 10  5  1  0
 27 13  1  0
 25 19  1  0
  2 28  1  0
  7 29  1  0
  8 30  1  0
  9 31  1  0
 10 32  1  0
 11 33  1  0
 14 34  1  0
 15 35  1  0
 18 36  1  0
 18 37  1  0
 20 38  1  0
 21 39  1  0
 23 40  1  0
 23 41  1  0
 23 42  1  0
 24 43  1  0
 25 44  1  0
 26 45  1  0
 27 46  1  0
A    1
 C1 
A    2
 N1 
A    3
 C2 
A    4
 N2 
A    5
 C3 
A    6
 C4 
A    7
 C5 
A    8
 C6 
A    9
 C7 
A   10
 C8 
A   11
 N3 
A   12
 O1 
A   13
 C9 
A   14
 C10
A   15
 C11
A   16
 C12
A   17
 O2 
A   18
 C13
A   19
 C14
A   20
 C15
A   21
 C16
A   22
 C17
A   23
 C18
A   24
 C19
A   25
 C20
A   26
 C21
A   27
 C22
A   28
 H1 
A   29
 H2 
A   30
 H3 
A   31
 H4 
A   32
 H5 
A   33
 H6 
A   34
 H7 
A   35
 H8 
A   36
 H9 
A   37
 H10
A   38
 H11
A   39
 H12
A   40
 H13
A   41
 H14
A   42
 H15
A   43
 H16
A   44
 H17
A   45
 H18
A   46
 H19
M  END
>  <ref_pdb>  (175) 
x0051_0B

>  <ref_mols>  (175) 
x0559_0B,x0846_1B

>  <original SMILES>  (175) 
[H]c1c([H])c(C(=O)N([H])c2nc3c([H])c([H])c([H])c([H])c3n2[H])c([H])c([H])c1OC([H])([H])c1c([H])c([H])c(C([H])([H])[H])c([H])c1[H]

>  <index>  (175) 
285

>  <∆∆G>  (175) 
-8.49797

>  <∆G_bound>  (175) 
-7.996442

>  <∆G_unbound>  (175) 
0.501529

>  <comRMSD>  (175) 
0.997262

>  <N_constrained_atoms>  (175) 
25.0

>  <N_unconstrained_atoms>  (175) 
4.0

>  <runtime>  (175) 
63.208564

>  <LE>  (175) 
0.293033

>  <percent_hybrid>  (175) 
28.0

>  <dist>  (175) 
9.0

>  <ecfp4>  (175) 
0.26506

>  <daylight>  (175) 
0.4

>  <topodist>  (175) 
4.0

>  <mces>  (175) 
28.0

>  <tdn>  (175) 
1.0

>  <tup>  (175) 
1.0

>  <rdn>  (175) 
1.0

>  <rup>  (175) 
1.0

>  <ldn>  (175) 
0.0

>  <lup>  (175) 
0.0

>  <mut>  (175) 
3.0

>  <maj>  (175) 
3.0

>  <min>  (175) 
0.0

>  <hyb>  (175) 
2.0

>  <sub>  (175) 
2.0

>  <query_index>  (175) 
315.0

>  <max_hit_Tanimoto>  (175) 
0.586957

>  <largest_ring>  (175) 
6

>  <N_interactions_kept>  (175) 
2.0

>  <N_interactions_lost>  (175) 
1.5

>  <interaction_uniqueness_metric>  (175) 
0.155915

>  <ad_hoc_penalty>  (175) 
-25.382605

>  <N_rotatable_bonds>  (175) 
6

>  <N_HA>  (175) 
27

>  <cluster>  (175) 
5956

>  <N_interactions>  (175) 
6

>  <Enamine>  (175) 
0

>  <Mcule>  (175) 
1

>  <N_PAINS>  (175) 
0

>  <UFF_Gibbs>  (175) 
110.680325

>  <strain_per_HA>  (175) 
3.816563

>  <saltbridge:HIS:51>  (175) 
0

>  <pistack:HIS:51>  (175) 
0

>  <hydroph_interaction:HIS:51>  (175) 
0

>  <hbond:ALA:132>  (175) 
0

>  <hbond:SER:135>  (175) 
0

>  <hydroph_interaction:TYR:150>  (175) 
1

>  <pistack:TYR:161>  (175) 
0

>  <hydroph_interaction:TYR:161>  (175) 
2

>  <hydroph_interaction:ASP:83>  (175) 
0

>  <hbond:TYR:130>  (175) 
0

>  <hydroph_interaction:ALA:132>  (175) 
1

>  <hbond:HIS:51>  (175) 
0

>  <hbond:ASP:129>  (175) 
0

>  <hbond:TYR:150>  (175) 
0

>  <hbond:GLY:151>  (175) 
0

>  <hbond:TYR:161>  (175) 
0

>  <hydroph_interaction:TYR:130>  (175) 
1

>  <hydroph_interaction:PRO:131>  (175) 
1

>  <hydroph_interaction:ASP:129>  (175) 
0

>  <saltbridge:ASP:75>  (175) 
0

>  <saltbridge:ASP:83>  (175) 
0

>  <hydroph_interaction:ASN:152>  (175) 
0

>  <halogenbond:TYR:150>  (175) 
0

>  <hbond:ASP:83>  (175) 
0

>  <hydroph_interaction:VAL:155>  (175) 
0

>  <pication:TYR:161>  (175) 
0

>  <hbond:PRO:131>  (175) 
0

>  <hbond:LEU:128>  (175) 
0

>  <saltbridge:ASP:129>  (175) 
0

>  <hbond:THR:134>  (175) 
0

>  <pication:HIS:51>  (175) 
0

>  <hbond:SER:81>  (175) 
0

>  <hbond:GLY:159>  (175) 
0

>  <hydroph_interaction:PRO:101>  (175) 
0

>  <hydroph_interaction:THR:134>  (175) 
0

>  <hbond:GLY:82>  (175) 
0

>  <hydroph_interaction:GLU:104>  (175) 
0

>  <hydroph_interaction:VAL:36>  (175) 
0

>  <hydroph_interaction:MET:49>  (175) 
0

>  <halogenbond:GLU:104>  (175) 
0

>  <hydroph_interaction:LYS:107>  (175) 
0

$$$$
Z2783651219
     RDKit          3D

 46 49  0  0  0  0  0  0  0  0999 V2000
   -9.5074    6.5548  -18.7688 C   0  0  0  0  0  0  0  0  0  0  0  0
   -9.3872    5.6389  -17.5919 C   0  0  0  0  0  0  0  0  0  0  0  0
  -10.4464    5.2597  -16.8507 N   0  0  0  0  0  0  0  0  0  0  0  0
  -10.0045    4.4252  -15.9249 N   0  0  0  0  0  0  0  0  0  0  0  0
  -10.8451    3.8560  -14.8779 C   0  0  0  0  0  0  0  0  0  0  0  0
  -10.7394    4.6873  -13.6347 C   0  0  0  0  0  0  0  0  0  0  0  0
  -11.4406    5.7292  -13.5357 O   0  0  0  0  0  0  0  0  0  0  0  0
   -9.8183    4.3121  -12.5980 N   0  0  0  0  0  0  0  0  0  0  0  0
   -9.5684    5.0691  -11.4008 C   0  0  0  0  0  0  0  0  0  0  0  0
   -8.8336    4.6496  -10.3120 C   0  0  0  0  0  0  0  0  0  0  0  0
   -8.1895    3.3135  -10.0830 C   0  0  0  0  0  0  0  0  0  0  0  0
   -7.2209    3.3734   -8.8883 C   0  0  0  0  0  0  0  0  0  0  0  0
   -7.8239    4.1489   -7.7055 C   0  0  0  0  0  0  0  0  0  0  0  0
   -8.1525    5.5949   -8.1098 C   0  0  0  0  0  0  0  0  0  0  0  0
   -8.8709    5.6196   -9.3810 N   0  0  0  0  0  0  0  0  0  0  0  0
   -9.5461    6.6618   -9.8398 N   0  0  0  0  0  0  0  0  0  0  0  0
   -9.9922    6.3513  -11.0765 C   0  0  0  0  0  0  0  0  0  0  0  0
   -8.6711    4.2700  -16.0362 C   0  0  0  0  0  0  0  0  0  0  0  0
   -8.2316    5.0408  -17.0946 C   0  0  0  0  0  0  0  0  0  0  0  0
   -6.8329    5.1664  -17.5644 C   0  0  0  0  0  0  0  0  0  0  0  0
   -5.9683    4.0595  -17.4885 C   0  0  0  0  0  0  0  0  0  0  0  0
   -4.6367    4.1719  -17.8986 C   0  0  0  0  0  0  0  0  0  0  0  0
   -4.1556    5.3851  -18.3884 C   0  0  0  0  0  0  0  0  0  0  0  0
   -5.0026    6.4933  -18.4590 C   0  0  0  0  0  0  0  0  0  0  0  0
   -6.3329    6.3900  -18.0445 C   0  0  0  0  0  0  0  0  0  0  0  0
   -8.8131    6.2376  -19.5748 H   0  0  0  0  0  0  0  0  0  0  0  0
  -10.5439    6.5219  -19.1646 H   0  0  0  0  0  0  0  0  0  0  0  0
   -9.2790    7.5955  -18.4601 H   0  0  0  0  0  0  0  0  0  0  0  0
  -11.9031    3.8275  -15.2187 H   0  0  0  0  0  0  0  0  0  0  0  0
  -10.5329    2.8090  -14.6730 H   0  0  0  0  0  0  0  0  0  0  0  0
   -9.3152    3.4033  -12.7053 H   0  0  0  0  0  0  0  0  0  0  0  0
   -8.9856    2.5672   -9.8775 H   0  0  0  0  0  0  0  0  0  0  0  0
   -7.6315    2.9990  -10.9913 H   0  0  0  0  0  0  0  0  0  0  0  0
   -6.9744    2.3402   -8.5644 H   0  0  0  0  0  0  0  0  0  0  0  0
   -6.2734    3.8636   -9.2028 H   0  0  0  0  0  0  0  0  0  0  0  0
   -7.1027    4.1584   -6.8603 H   0  0  0  0  0  0  0  0  0  0  0  0
   -8.7510    3.6390   -7.3647 H   0  0  0  0  0  0  0  0  0  0  0  0
   -7.2115    6.1737   -8.2180 H   0  0  0  0  0  0  0  0  0  0  0  0
   -8.7721    6.0706   -7.3205 H   0  0  0  0  0  0  0  0  0  0  0  0
  -10.5696    7.0311  -11.6875 H   0  0  0  0  0  0  0  0  0  0  0  0
   -8.0615    3.6626  -15.3765 H   0  0  0  0  0  0  0  0  0  0  0  0
   -6.3255    3.1046  -17.1217 H   0  0  0  0  0  0  0  0  0  0  0  0
   -3.9783    3.3161  -17.8406 H   0  0  0  0  0  0  0  0  0  0  0  0
   -3.1263    5.4691  -18.7158 H   0  0  0  0  0  0  0  0  0  0  0  0
   -4.6271    7.4368  -18.8309 H   0  0  0  0  0  0  0  0  0  0  0  0
   -6.9540    7.2749  -18.0693 H   0  0  0  0  0  0  0  0  0  0  0  0
  1  2  1  0
  2  3  2  0
  3  4  1  0
  4  5  1  0
  5  6  1  0
  6  7  2  0
  6  8  1  0
  8  9  1  0
  9 10  2  0
 10 11  1  0
 11 12  1  0
 12 13  1  0
 13 14  1  0
 14 15  1  0
 15 16  1  0
 16 17  2  0
  4 18  1  0
 18 19  2  0
 19 20  1  0
 20 21  2  0
 21 22  1  0
 22 23  2  0
 23 24  1  0
 24 25  2  0
 19  2  1  0
 17  9  1  0
 15 10  1  0
 25 20  1  0
  1 26  1  0
  1 27  1  0
  1 28  1  0
  5 29  1  0
  5 30  1  0
  8 31  1  0
 11 32  1  0
 11 33  1  0
 12 34  1  0
 12 35  1  0
 13 36  1  0
 13 37  1  0
 14 38  1  0
 14 39  1  0
 17 40  1  0
 18 41  1  0
 21 42  1  0
 22 43  1  0
 23 44  1  0
 24 45  1  0
 25 46  1  0
A    1
 C1 
A    2
 C2 
A    3
 N1 
A    4
 N2 
A    5
 C3 
A    6
 C4 
A    7
 O1 
A    8
 N3 
A    9
 C5 
A   10
 C6 
A   11
 C7 
A   12
 C8 
A   13
 C9 
A   14
 C10
A   15
 N4 
A   16
 N5 
A   17
 C11
A   18
 C12
A   19
 C13
A   20
 C14
A   21
 C15
A   22
 C16
A   23
 C17
A   24
 C18
A   25
 C19
A   26
 H1 
A   27
 H2 
A   28
 H3 
A   29
 H4 
A   30
 H5 
A   31
 H6 
A   32
 H7 
A   33
 H8 
A   34
 H9 
A   35
 H10
A   36
 H11
A   37
 H12
A   38
 H13
A   39
 H14
A   40
 H15
A   41
 H16
A   42
 H17
A   43
 H18
A   44
 H19
A   45
 H20
A   46
 H21
M  END
>  <ref_pdb>  (176) 
x0051_0B

>  <ref_mols>  (176) 
x0969_1B,x0803_0B

>  <original SMILES>  (176) 
[H]c1nn2c(c1N([H])C(=O)C([H])([H])n1nc(C([H])([H])[H])c(-c3c([H])c([H])c([H])c([H])c3[H])c1[H])C([H])([H])C([H])([H])C([H])([H])C2([H])[H]

>  <index>  (176) 
238

>  <∆∆G>  (176) 
-9.581827

>  <∆G_bound>  (176) 
-8.927272

>  <∆G_unbound>  (176) 
0.654555

>  <comRMSD>  (176) 
0.451992

>  <N_constrained_atoms>  (176) 
22.0

>  <N_unconstrained_atoms>  (176) 
3.0

>  <runtime>  (176) 
74.713171

>  <LE>  (176) 
0.383273

>  <percent_hybrid>  (176) 
46.0

>  <dist>  (176) 
10.0

>  <ecfp4>  (176) 
0.26506

>  <daylight>  (176) 
0.285294

>  <topodist>  (176) 
1.0

>  <mces>  (176) 
27.0

>  <tdn>  (176) 
0.0

>  <tup>  (176) 
1.0

>  <rdn>  (176) 
0.0

>  <rup>  (176) 
0.0

>  <ldn>  (176) 
0.0

>  <lup>  (176) 
0.0

>  <mut>  (176) 
4.0

>  <maj>  (176) 
4.0

>  <min>  (176) 
0.0

>  <hyb>  (176) 
5.0

>  <sub>  (176) 
0.0

>  <query_index>  (176) 
360.0

>  <max_hit_Tanimoto>  (176) 
0.28259

>  <largest_ring>  (176) 
6

>  <N_interactions_kept>  (176) 
4.0

>  <N_interactions_lost>  (176) 
2.0

>  <interaction_uniqueness_metric>  (176) 
0.154519

>  <ad_hoc_penalty>  (176) 
-25.349711

>  <N_rotatable_bonds>  (176) 
5

>  <N_HA>  (176) 
25

>  <cluster>  (176) 
6002

>  <N_interactions>  (176) 
6

>  <Enamine>  (176) 
1

>  <Mcule>  (176) 
0

>  <N_PAINS>  (176) 
0

>  <UFF_Gibbs>  (176) 
116.718511

>  <strain_per_HA>  (176) 
4.66874

>  <saltbridge:HIS:51>  (176) 
0

>  <pistack:HIS:51>  (176) 
1

>  <hydroph_interaction:HIS:51>  (176) 
0

>  <hbond:ALA:132>  (176) 
0

>  <hbond:SER:135>  (176) 
0

>  <hydroph_interaction:TYR:150>  (176) 
1

>  <pistack:TYR:161>  (176) 
1

>  <hydroph_interaction:TYR:161>  (176) 
2

>  <hydroph_interaction:ASP:83>  (176) 
1

>  <hbond:TYR:130>  (176) 
0

>  <hydroph_interaction:ALA:132>  (176) 
0

>  <hbond:HIS:51>  (176) 
0

>  <hbond:ASP:129>  (176) 
0

>  <hbond:TYR:150>  (176) 
0

>  <hbond:GLY:151>  (176) 
0

>  <hbond:TYR:161>  (176) 
0

>  <hydroph_interaction:TYR:130>  (176) 
0

>  <hydroph_interaction:PRO:131>  (176) 
0

>  <hydroph_interaction:ASP:129>  (176) 
0

>  <saltbridge:ASP:75>  (176) 
0

>  <saltbridge:ASP:83>  (176) 
0

>  <hydroph_interaction:ASN:152>  (176) 
0

>  <halogenbond:TYR:150>  (176) 
0

>  <hbond:ASP:83>  (176) 
0

>  <hydroph_interaction:VAL:155>  (176) 
0

>  <pication:TYR:161>  (176) 
0

>  <hbond:PRO:131>  (176) 
0

>  <hbond:LEU:128>  (176) 
0

>  <saltbridge:ASP:129>  (176) 
0

>  <hbond:THR:134>  (176) 
0

>  <pication:HIS:51>  (176) 
0

>  <hbond:SER:81>  (176) 
0

>  <hbond:GLY:159>  (176) 
0

>  <hydroph_interaction:PRO:101>  (176) 
0

>  <hydroph_interaction:THR:134>  (176) 
0

>  <hbond:GLY:82>  (176) 
0

>  <hydroph_interaction:GLU:104>  (176) 
0

>  <hydroph_interaction:VAL:36>  (176) 
0

>  <hydroph_interaction:MET:49>  (176) 
0

>  <halogenbond:GLU:104>  (176) 
0

>  <hydroph_interaction:LYS:107>  (176) 
0

$$$$
Z3537468956
     RDKit          3D

 40 43  0  0  0  0  0  0  0  0999 V2000
   -6.9691    6.2939  -19.9462 C   0  0  0  0  0  0  0  0  0  0  0  0
   -6.6782    5.9256  -18.5669 N   0  0  0  0  0  0  0  0  0  0  0  0
   -5.6376    6.3640  -17.8658 N   0  0  0  0  0  0  0  0  0  0  0  0
   -5.6521    5.8648  -16.6303 N   0  0  0  0  0  0  0  0  0  0  0  0
   -6.7482    5.0837  -16.5617 C   0  0  0  0  0  0  0  0  0  0  0  0
   -7.2375    4.3439  -15.4819 C   0  0  0  0  0  0  0  0  0  0  0  0
   -6.5171    4.2967  -14.1941 C   0  0  0  0  0  0  0  0  0  0  0  0
   -5.2855    4.0350  -14.1948 O   0  0  0  0  0  0  0  0  0  0  0  0
   -7.1468    4.5531  -12.9694 O   0  0  0  0  0  0  0  0  0  0  0  0
   -8.4330    5.1528  -12.8427 C   0  0  0  0  0  0  0  0  0  0  0  0
   -8.6739    5.4954  -11.4089 C   0  0  0  0  0  0  0  0  0  0  0  0
   -9.0438    4.6465  -10.3876 C   0  0  0  0  0  0  0  0  0  0  0  0
   -9.4234    3.1982  -10.4802 C   0  0  0  0  0  0  0  0  0  0  0  0
   -9.4205    2.5546   -9.0844 C   0  0  0  0  0  0  0  0  0  0  0  0
  -10.1227    3.4516   -8.0509 C   0  0  0  0  0  0  0  0  0  0  0  0
   -9.4085    4.8079   -7.9270 C   0  0  0  0  0  0  0  0  0  0  0  0
   -9.1133    5.3580   -9.2487 N   0  0  0  0  0  0  0  0  0  0  0  0
   -8.7524    6.6112   -9.4768 N   0  0  0  0  0  0  0  0  0  0  0  0
   -8.4802    6.7215  -10.7950 C   0  0  0  0  0  0  0  0  0  0  0  0
   -8.4222    3.6023  -15.6984 C   0  0  0  0  0  0  0  0  0  0  0  0
   -9.0843    3.6482  -16.9489 C   0  0  0  0  0  0  0  0  0  0  0  0
   -8.5680    4.4232  -18.0044 C   0  0  0  0  0  0  0  0  0  0  0  0
   -7.3888    5.1232  -17.7618 C   0  0  0  0  0  0  0  0  0  0  0  0
   -7.0497    5.3786  -20.5695 H   0  0  0  0  0  0  0  0  0  0  0  0
   -7.9265    6.8543  -19.9890 H   0  0  0  0  0  0  0  0  0  0  0  0
   -6.1570    6.9341  -20.3509 H   0  0  0  0  0  0  0  0  0  0  0  0
   -9.2218    4.4508  -13.1800 H   0  0  0  0  0  0  0  0  0  0  0  0
   -8.4829    6.0768  -13.4589 H   0  0  0  0  0  0  0  0  0  0  0  0
  -10.4404    3.1240  -10.9213 H   0  0  0  0  0  0  0  0  0  0  0  0
   -8.7098    2.6599  -11.1400 H   0  0  0  0  0  0  0  0  0  0  0  0
   -8.3713    2.3738   -8.7618 H   0  0  0  0  0  0  0  0  0  0  0  0
   -9.9364    1.5716   -9.1329 H   0  0  0  0  0  0  0  0  0  0  0  0
  -10.1287    2.9459   -7.0615 H   0  0  0  0  0  0  0  0  0  0  0  0
  -11.1780    3.6154   -8.3613 H   0  0  0  0  0  0  0  0  0  0  0  0
   -8.4554    4.6744   -7.3712 H   0  0  0  0  0  0  0  0  0  0  0  0
  -10.0508    5.5159   -7.3607 H   0  0  0  0  0  0  0  0  0  0  0  0
   -8.1532    7.6342  -11.2751 H   0  0  0  0  0  0  0  0  0  0  0  0
   -8.8213    2.9692  -14.9167 H   0  0  0  0  0  0  0  0  0  0  0  0
   -9.9904    3.0755  -17.0979 H   0  0  0  0  0  0  0  0  0  0  0  0
   -9.0653    4.4652  -18.9645 H   0  0  0  0  0  0  0  0  0  0  0  0
  1  2  1  0
  2  3  1  0
  3  4  2  0
  4  5  1  0
  5  6  2  0
  6  7  1  0
  7  8  2  0
  7  9  1  0
  9 10  1  0
 10 11  1  0
 11 12  2  0
 12 13  1  0
 13 14  1  0
 14 15  1  0
 15 16  1  0
 16 17  1  0
 17 18  1  0
 18 19  2  0
  6 20  1  0
 20 21  2  0
 21 22  1  0
 22 23  2  0
 23  2  1  0
 23  5  1  0
 19 11  1  0
 17 12  1  0
  1 24  1  0
  1 25  1  0
  1 26  1  0
 10 27  1  0
 10 28  1  0
 13 29  1  0
 13 30  1  0
 14 31  1  0
 14 32  1  0
 15 33  1  0
 15 34  1  0
 16 35  1  0
 16 36  1  0
 19 37  1  0
 20 38  1  0
 21 39  1  0
 22 40  1  0
A    1
 C1 
A    2
 N1 
A    3
 N2 
A    4
 N3 
A    5
 C2 
A    6
 C3 
A    7
 C4 
A    8
 O1 
A    9
 O2 
A   10
 C5 
A   11
 C6 
A   12
 C7 
A   13
 C8 
A   14
 C9 
A   15
 C10
A   16
 C11
A   17
 N4 
A   18
 N5 
A   19
 C12
A   20
 C13
A   21
 C14
A   22
 C15
A   23
 C16
A   24
 H1 
A   25
 H2 
A   26
 H3 
A   27
 H4 
A   28
 H5 
A   29
 H6 
A   30
 H7 
A   31
 H8 
A   32
 H9 
A   33
 H10
A   34
 H11
A   35
 H12
A   36
 H13
A   37
 H14
A   38
 H15
A   39
 H16
A   40
 H17
M  END
>  <ref_pdb>  (177) 
x0051_0B

>  <ref_mols>  (177) 
x0969_1B,x0435_0B

>  <original SMILES>  (177) 
[H]c1nn2c(c1C([H])([H])OC(=O)c1c([H])c([H])c([H])c3c1nnn3C([H])([H])[H])C([H])([H])C([H])([H])C([H])([H])C2([H])[H]

>  <index>  (177) 
368

>  <∆∆G>  (177) 
-7.886131

>  <∆G_bound>  (177) 
-7.266658

>  <∆G_unbound>  (177) 
0.619473

>  <comRMSD>  (177) 
0.384331

>  <N_constrained_atoms>  (177) 
20.0

>  <N_unconstrained_atoms>  (177) 
3.0

>  <runtime>  (177) 
61.988242

>  <LE>  (177) 
0.342875

>  <percent_hybrid>  (177) 
50.0

>  <dist>  (177) 
6.0

>  <ecfp4>  (177) 
0.197674

>  <daylight>  (177) 
0.332335

>  <topodist>  (177) 
1.0

>  <mces>  (177) 
25.0

>  <tdn>  (177) 
0.0

>  <tup>  (177) 
1.0

>  <rdn>  (177) 
0.0

>  <rup>  (177) 
0.0

>  <ldn>  (177) 
0.0

>  <lup>  (177) 
0.0

>  <mut>  (177) 
4.0

>  <maj>  (177) 
4.0

>  <min>  (177) 
0.0

>  <hyb>  (177) 
1.0

>  <sub>  (177) 
0.0

>  <query_index>  (177) 
343.0

>  <max_hit_Tanimoto>  (177) 
0.299233

>  <largest_ring>  (177) 
6

>  <N_interactions_kept>  (177) 
2.5

>  <N_interactions_lost>  (177) 
1.0

>  <interaction_uniqueness_metric>  (177) 
0.131133

>  <ad_hoc_penalty>  (177) 
-25.338246

>  <N_rotatable_bonds>  (177) 
4

>  <N_HA>  (177) 
23

>  <cluster>  (177) 
5881

>  <N_interactions>  (177) 
4

>  <Enamine>  (177) 
1

>  <Mcule>  (177) 
0

>  <N_PAINS>  (177) 
0

>  <UFF_Gibbs>  (177) 
40.066731

>  <strain_per_HA>  (177) 
1.742032

>  <saltbridge:HIS:51>  (177) 
0

>  <pistack:HIS:51>  (177) 
1

>  <hydroph_interaction:HIS:51>  (177) 
0

>  <hbond:ALA:132>  (177) 
0

>  <hbond:SER:135>  (177) 
0

>  <hydroph_interaction:TYR:150>  (177) 
0

>  <pistack:TYR:161>  (177) 
2

>  <hydroph_interaction:TYR:161>  (177) 
0

>  <hydroph_interaction:ASP:83>  (177) 
1

>  <hbond:TYR:130>  (177) 
0

>  <hydroph_interaction:ALA:132>  (177) 
0

>  <hbond:HIS:51>  (177) 
0

>  <hbond:ASP:129>  (177) 
0

>  <hbond:TYR:150>  (177) 
0

>  <hbond:GLY:151>  (177) 
0

>  <hbond:TYR:161>  (177) 
0

>  <hydroph_interaction:TYR:130>  (177) 
0

>  <hydroph_interaction:PRO:131>  (177) 
0

>  <hydroph_interaction:ASP:129>  (177) 
0

>  <saltbridge:ASP:75>  (177) 
0

>  <saltbridge:ASP:83>  (177) 
0

>  <hydroph_interaction:ASN:152>  (177) 
0

>  <halogenbond:TYR:150>  (177) 
0

>  <hbond:ASP:83>  (177) 
0

>  <hydroph_interaction:VAL:155>  (177) 
0

>  <pication:TYR:161>  (177) 
0

>  <hbond:PRO:131>  (177) 
0

>  <hbond:LEU:128>  (177) 
0

>  <saltbridge:ASP:129>  (177) 
0

>  <hbond:THR:134>  (177) 
0

>  <pication:HIS:51>  (177) 
0

>  <hbond:SER:81>  (177) 
0

>  <hbond:GLY:159>  (177) 
0

>  <hydroph_interaction:PRO:101>  (177) 
0

>  <hydroph_interaction:THR:134>  (177) 
0

>  <hbond:GLY:82>  (177) 
0

>  <hydroph_interaction:GLU:104>  (177) 
0

>  <hydroph_interaction:VAL:36>  (177) 
0

>  <hydroph_interaction:MET:49>  (177) 
0

>  <halogenbond:GLU:104>  (177) 
0

>  <hydroph_interaction:LYS:107>  (177) 
0

$$$$
YMXOFAHCTREWQI-UHFFFAOYSA-N
     RDKit          3D

 36 38  0  0  0  0  0  0  0  0999 V2000
   -9.2077    5.9829  -13.3270 O   0  0  0  0  0  0  0  0  0  0  0  0
   -9.5761    5.9738  -14.6777 C   0  0  0  0  0  0  0  0  0  0  0  0
  -10.7100    6.4163  -14.9996 O   0  0  0  0  0  0  0  0  0  0  0  0
   -8.6817    5.4517  -15.7330 C   0  0  0  0  0  0  0  0  0  0  0  0
   -9.0514    4.3452  -16.5345 C   0  0  0  0  0  0  0  0  0  0  0  0
  -10.3643    3.6357  -16.3334 C   0  0  0  0  0  0  0  0  0  0  0  0
   -8.1800    3.9082  -17.5471 C   0  0  0  0  0  0  0  0  0  0  0  0
   -6.9549    4.5459  -17.7530 C   0  0  0  0  0  0  0  0  0  0  0  0
   -6.5889    5.6337  -16.9585 C   0  0  0  0  0  0  0  0  0  0  0  0
   -4.9162    6.5087  -17.2488 Br  0  0  0  0  0  0  0  0  0  0  0  0
   -7.4503    6.0880  -15.9568 C   0  0  0  0  0  0  0  0  0  0  0  0
   -8.0340    5.3534  -12.8218 C   0  0  0  0  0  0  0  0  0  0  0  0
   -8.0735    5.3668  -11.3303 C   0  0  0  0  0  0  0  0  0  0  0  0
   -8.7404    4.5029  -10.4977 C   0  0  0  0  0  0  0  0  0  0  0  0
   -8.6048    4.9140   -9.2334 N   0  0  0  0  0  0  0  0  0  0  0  0
   -9.1633    4.2088   -8.0834 C   0  0  0  0  0  0  0  0  0  0  0  0
  -10.3344    3.3112   -8.5344 C   0  0  0  0  0  0  0  0  0  0  0  0
   -9.9655    2.5131   -9.8034 C   0  0  0  0  0  0  0  0  0  0  0  0
   -9.4898    3.3796  -10.8381 O   0  0  0  0  0  0  0  0  0  0  0  0
   -7.8676    6.0126   -9.1938 N   0  0  0  0  0  0  0  0  0  0  0  0
   -7.5394    6.3182  -10.4714 C   0  0  0  0  0  0  0  0  0  0  0  0
  -10.5228    3.4213  -15.2553 H   0  0  0  0  0  0  0  0  0  0  0  0
  -10.3907    2.6674  -16.8775 H   0  0  0  0  0  0  0  0  0  0  0  0
  -11.1927    4.2724  -16.7079 H   0  0  0  0  0  0  0  0  0  0  0  0
   -8.4461    3.0689  -18.1779 H   0  0  0  0  0  0  0  0  0  0  0  0
   -6.2917    4.1954  -18.5335 H   0  0  0  0  0  0  0  0  0  0  0  0
   -7.1659    6.9480  -15.3628 H   0  0  0  0  0  0  0  0  0  0  0  0
   -7.1303    5.8958  -13.1694 H   0  0  0  0  0  0  0  0  0  0  0  0
   -7.9847    4.3010  -13.1766 H   0  0  0  0  0  0  0  0  0  0  0  0
   -8.3700    3.5819   -7.6226 H   0  0  0  0  0  0  0  0  0  0  0  0
   -9.5223    4.9414   -7.3291 H   0  0  0  0  0  0  0  0  0  0  0  0
  -11.2172    3.9497   -8.7558 H   0  0  0  0  0  0  0  0  0  0  0  0
  -10.6078    2.6116   -7.7157 H   0  0  0  0  0  0  0  0  0  0  0  0
  -10.8522    1.9553  -10.1709 H   0  0  0  0  0  0  0  0  0  0  0  0
   -9.1697    1.7786   -9.5540 H   0  0  0  0  0  0  0  0  0  0  0  0
   -6.9556    7.1823  -10.7590 H   0  0  0  0  0  0  0  0  0  0  0  0
  1  2  1  0
  2  3  2  0
  2  4  1  0
  4  5  2  0
  5  6  1  0
  5  7  1  0
  7  8  2  0
  8  9  1  0
  9 10  1  0
  9 11  2  0
  1 12  1  0
 12 13  1  0
 13 14  2  0
 14 15  1  0
 15 16  1  0
 16 17  1  0
 17 18  1  0
 18 19  1  0
 15 20  1  0
 20 21  2  0
 11  4  1  0
 21 13  1  0
 19 14  1  0
  6 22  1  0
  6 23  1  0
  6 24  1  0
  7 25  1  0
  8 26  1  0
 11 27  1  0
 12 28  1  0
 12 29  1  0
 16 30  1  0
 16 31  1  0
 17 32  1  0
 17 33  1  0
 18 34  1  0
 18 35  1  0
 21 36  1  0
A    1
 O1 
A    2
 C1 
A    3
 O2 
A    4
 C2 
A    5
 C3 
A    6
 C4 
A    7
 C5 
A    8
 C6 
A    9
 C7 
A   10
BR1 
A   11
 C8 
A   12
 C9 
A   13
 C10
A   14
 C11
A   15
 N1 
A   16
 C12
A   17
 C13
A   18
 C14
A   19
 O3 
A   20
 N2 
A   21
 C15
A   22
 H1 
A   23
 H2 
A   24
 H3 
A   25
 H4 
A   26
 H5 
A   27
 H6 
A   28
 H7 
A   29
 H8 
A   30
 H9 
A   31
 H10
A   32
 H11
A   33
 H12
A   34
 H13
A   35
 H14
A   36
 H15
M  END
>  <ref_pdb>  (178) 
x0051_0B

>  <ref_mols>  (178) 
x0969_1B,x0553_0B

>  <original SMILES>  (178) 
[H]c1nn2c(c1C([H])([H])OC(=O)c1c([H])c(Br)c([H])c([H])c1C([H])([H])[H])OC([H])([H])C([H])([H])C2([H])[H]

>  <index>  (178) 
334

>  <∆∆G>  (178) 
-6.36227

>  <∆G_bound>  (178) 
-6.016767

>  <∆G_unbound>  (178) 
0.345502

>  <comRMSD>  (178) 
0.794711

>  <N_constrained_atoms>  (178) 
19.0

>  <N_unconstrained_atoms>  (178) 
3.0

>  <runtime>  (178) 
58.344996

>  <LE>  (178) 
0.289194

>  <percent_hybrid>  (178) 
48.0

>  <dist>  (178) 
6.0

>  <ecfp4>  (178) 
0.303797

>  <daylight>  (178) 
0.378277

>  <topodist>  (178) 
2.0

>  <mces>  (178) 
22.0

>  <tdn>  (178) 
1.0

>  <tup>  (178) 
1.0

>  <rdn>  (178) 
0.0

>  <rup>  (178) 
0.0

>  <ldn>  (178) 
0.0

>  <lup>  (178) 
0.0

>  <mut>  (178) 
3.0

>  <maj>  (178) 
3.0

>  <min>  (178) 
0.0

>  <hyb>  (178) 
1.0

>  <sub>  (178) 
0.0

>  <query_index>  (178) 
376.0

>  <max_hit_Tanimoto>  (178) 
0.237065

>  <largest_ring>  (178) 
6

>  <N_interactions_kept>  (178) 
1.5

>  <N_interactions_lost>  (178) 
1.0

>  <interaction_uniqueness_metric>  (178) 
0.193303

>  <ad_hoc_penalty>  (178) 
-25.319689

>  <N_rotatable_bonds>  (178) 
4

>  <N_HA>  (178) 
21

>  <cluster>  (178) 
5914

>  <N_interactions>  (178) 
5

>  <Enamine>  (178) 
0

>  <Mcule>  (178) 
1

>  <N_PAINS>  (178) 
0

>  <UFF_Gibbs>  (178) 
69.7452

>  <strain_per_HA>  (178) 
3.170236

>  <saltbridge:HIS:51>  (178) 
1

>  <pistack:HIS:51>  (178) 
1

>  <hydroph_interaction:HIS:51>  (178) 
0

>  <hbond:ALA:132>  (178) 
0

>  <hbond:SER:135>  (178) 
1

>  <hydroph_interaction:TYR:150>  (178) 
1

>  <pistack:TYR:161>  (178) 
1

>  <hydroph_interaction:TYR:161>  (178) 
0

>  <hydroph_interaction:ASP:83>  (178) 
0

>  <hbond:TYR:130>  (178) 
0

>  <hydroph_interaction:ALA:132>  (178) 
0

>  <hbond:HIS:51>  (178) 
0

>  <hbond:ASP:129>  (178) 
0

>  <hbond:TYR:150>  (178) 
0

>  <hbond:GLY:151>  (178) 
0

>  <hbond:TYR:161>  (178) 
0

>  <hydroph_interaction:TYR:130>  (178) 
0

>  <hydroph_interaction:PRO:131>  (178) 
0

>  <hydroph_interaction:ASP:129>  (178) 
0

>  <saltbridge:ASP:75>  (178) 
0

>  <saltbridge:ASP:83>  (178) 
0

>  <hydroph_interaction:ASN:152>  (178) 
0

>  <halogenbond:TYR:150>  (178) 
0

>  <hbond:ASP:83>  (178) 
0

>  <hydroph_interaction:VAL:155>  (178) 
0

>  <pication:TYR:161>  (178) 
0

>  <hbond:PRO:131>  (178) 
0

>  <hbond:LEU:128>  (178) 
0

>  <saltbridge:ASP:129>  (178) 
0

>  <hbond:THR:134>  (178) 
0

>  <pication:HIS:51>  (178) 
0

>  <hbond:SER:81>  (178) 
0

>  <hbond:GLY:159>  (178) 
0

>  <hydroph_interaction:PRO:101>  (178) 
0

>  <hydroph_interaction:THR:134>  (178) 
0

>  <hbond:GLY:82>  (178) 
0

>  <hydroph_interaction:GLU:104>  (178) 
0

>  <hydroph_interaction:VAL:36>  (178) 
0

>  <hydroph_interaction:MET:49>  (178) 
0

>  <halogenbond:GLU:104>  (178) 
0

>  <hydroph_interaction:LYS:107>  (178) 
0

$$$$
PV-002557391519
     RDKit          3D

 30 31  0  0  0  0  0  0  0  0999 V2000
   -5.8557    4.7284  -20.5092 C   0  0  0  0  0  0  0  0  0  0  0  0
   -5.5751    6.1662  -20.0386 C   0  0  0  0  0  0  0  0  0  0  0  0
   -6.0499    6.5158  -18.5972 C   0  0  0  0  0  0  0  0  0  0  0  0
   -7.3900    5.9233  -18.2024 C   0  0  0  0  0  0  0  0  0  0  0  0
   -7.6795    5.6488  -16.8746 C   0  0  0  0  0  0  0  0  0  0  0  0
   -6.7082    5.8200  -15.7521 C   0  0  0  0  0  0  0  0  0  0  0  0
   -5.5230    6.6910  -16.2135 C   0  0  0  0  0  0  0  0  0  0  0  0
   -5.0053    6.2865  -17.5486 N   0  0  0  0  0  0  0  0  0  0  0  0
   -4.4238    4.9189  -17.5552 C   0  0  0  0  0  0  0  0  0  0  0  0
   -3.2845    4.7542  -16.5457 C   0  0  0  0  0  0  0  0  0  0  0  0
   -9.2835    5.1728  -16.7408 S   0  0  0  0  0  0  0  0  0  0  0  0
   -9.6521    5.3627  -18.3729 C   0  0  0  0  0  0  0  0  0  0  0  0
   -8.5152    5.8107  -19.0359 C   0  0  0  0  0  0  0  0  0  0  0  0
   -6.8544    4.6640  -20.9871 H   0  0  0  0  0  0  0  0  0  0  0  0
   -5.8260    3.9941  -19.6813 H   0  0  0  0  0  0  0  0  0  0  0  0
   -5.1030    4.4341  -21.2705 H   0  0  0  0  0  0  0  0  0  0  0  0
   -6.0713    6.8553  -20.7574 H   0  0  0  0  0  0  0  0  0  0  0  0
   -4.4868    6.3770  -20.1217 H   0  0  0  0  0  0  0  0  0  0  0  0
   -6.2214    7.6157  -18.6251 H   0  0  0  0  0  0  0  0  0  0  0  0
   -7.2144    6.3113  -14.8940 H   0  0  0  0  0  0  0  0  0  0  0  0
   -6.3509    4.8235  -15.4185 H   0  0  0  0  0  0  0  0  0  0  0  0
   -5.8579    7.7514  -16.2588 H   0  0  0  0  0  0  0  0  0  0  0  0
   -4.7194    6.6781  -15.4493 H   0  0  0  0  0  0  0  0  0  0  0  0
   -3.9610    4.7183  -18.5418 H   0  0  0  0  0  0  0  0  0  0  0  0
   -5.2004    4.1452  -17.3738 H   0  0  0  0  0  0  0  0  0  0  0  0
   -3.6817    4.6501  -15.5146 H   0  0  0  0  0  0  0  0  0  0  0  0
   -2.5928    5.6216  -16.5988 H   0  0  0  0  0  0  0  0  0  0  0  0
   -2.7129    3.8305  -16.7776 H   0  0  0  0  0  0  0  0  0  0  0  0
  -10.6214    5.2024  -18.8250 H   0  0  0  0  0  0  0  0  0  0  0  0
   -8.5173    6.0721  -20.0852 H   0  0  0  0  0  0  0  0  0  0  0  0
  1  2  1  0
  2  3  1  0
  3  4  1  0
  4  5  2  0
  5  6  1  0
  6  7  1  0
  7  8  1  0
  8  9  1  0
  9 10  1  0
  5 11  1  0
 11 12  1  0
 12 13  2  0
  8  3  1  0
 13  4  1  0
  1 14  1  0
  1 15  1  0
  1 16  1  0
  2 17  1  0
  2 18  1  0
  3 19  1  0
  6 20  1  0
  6 21  1  0
  7 22  1  0
  7 23  1  0
  9 24  1  0
  9 25  1  0
 10 26  1  0
 10 27  1  0
 10 28  1  0
 12 29  1  0
 13 30  1  0
A    1
 C1 
A    2
 C2 
A    3
 C3 
A    4
 C4 
A    5
 C5 
A    6
 C6 
A    7
 C7 
A    8
 N1 
A    9
 C8 
A   10
 C9 
A   11
 S1 
A   12
 C10
A   13
 C11
A   14
 H1 
A   15
 H2 
A   16
 H3 
A   17
 H4 
A   18
 H5 
A   19
 H6 
A   20
 H7 
A   21
 H8 
A   22
 H9 
A   23
 H10
A   24
 H11
A   25
 H12
A   26
 H13
A   27
 H14
A   28
 H15
A   29
 H16
A   30
 H17
M  END
>  <ref_pdb>  (179) 
x0051_0B

>  <ref_mols>  (179) 
x0472_0B,x0227_0B

>  <original SMILES>  (179) 
[H]c1sc2c(c1[H])C([H])(C([H])([H])C([H])([H])[H])N(C([H])([H])C([H])([H])[H])C([H])([H])C2([H])[H]

>  <index>  (179) 
271

>  <∆∆G>  (179) 
-6.750431

>  <∆G_bound>  (179) 
-7.316189

>  <∆G_unbound>  (179) 
-0.565757

>  <comRMSD>  (179) 
0.936621

>  <N_constrained_atoms>  (179) 
17.0

>  <N_unconstrained_atoms>  (179) 
0.0

>  <runtime>  (179) 
21.324628

>  <LE>  (179) 
0.397084

>  <percent_hybrid>  (179) 
45.0

>  <dist>  (179) 
3.0

>  <ecfp4>  (179) 
0.456522

>  <daylight>  (179) 
0.806202

>  <topodist>  (179) 
2.0

>  <mces>  (179) 
14.0

>  <tdn>  (179) 
2.0

>  <tup>  (179) 
0.0

>  <rdn>  (179) 
0.0

>  <rup>  (179) 
0.0

>  <ldn>  (179) 
0.0

>  <lup>  (179) 
0.0

>  <mut>  (179) 
1.0

>  <maj>  (179) 
1.0

>  <min>  (179) 
0.0

>  <hyb>  (179) 
0.0

>  <sub>  (179) 
1.0

>  <query_index>  (179) 
78.0

>  <max_hit_Tanimoto>  (179) 
0.606993

>  <largest_ring>  (179) 
6

>  <N_interactions_kept>  (179) 
4.5

>  <N_interactions_lost>  (179) 
0.5

>  <interaction_uniqueness_metric>  (179) 
0.049434

>  <ad_hoc_penalty>  (179) 
-25.300692

>  <N_rotatable_bonds>  (179) 
4

>  <N_HA>  (179) 
13

>  <cluster>  (179) 
5969

>  <N_interactions>  (179) 
4

>  <Enamine>  (179) 
1

>  <Mcule>  (179) 
0

>  <N_PAINS>  (179) 
0

>  <UFF_Gibbs>  (179) 
50.086562

>  <strain_per_HA>  (179) 
2.946268

>  <saltbridge:HIS:51>  (179) 
0

>  <pistack:HIS:51>  (179) 
0

>  <hydroph_interaction:HIS:51>  (179) 
0

>  <hbond:ALA:132>  (179) 
0

>  <hbond:SER:135>  (179) 
0

>  <hydroph_interaction:TYR:150>  (179) 
0

>  <pistack:TYR:161>  (179) 
0

>  <hydroph_interaction:TYR:161>  (179) 
3

>  <hydroph_interaction:ASP:83>  (179) 
0

>  <hbond:TYR:130>  (179) 
0

>  <hydroph_interaction:ALA:132>  (179) 
0

>  <hbond:HIS:51>  (179) 
0

>  <hbond:ASP:129>  (179) 
0

>  <hbond:TYR:150>  (179) 
0

>  <hbond:GLY:151>  (179) 
0

>  <hbond:TYR:161>  (179) 
0

>  <hydroph_interaction:TYR:130>  (179) 
0

>  <hydroph_interaction:PRO:131>  (179) 
0

>  <hydroph_interaction:ASP:129>  (179) 
0

>  <saltbridge:ASP:75>  (179) 
0

>  <saltbridge:ASP:83>  (179) 
0

>  <hydroph_interaction:ASN:152>  (179) 
0

>  <halogenbond:TYR:150>  (179) 
0

>  <hbond:ASP:83>  (179) 
0

>  <hydroph_interaction:VAL:155>  (179) 
1

>  <pication:TYR:161>  (179) 
0

>  <hbond:PRO:131>  (179) 
0

>  <hbond:LEU:128>  (179) 
0

>  <saltbridge:ASP:129>  (179) 
0

>  <hbond:THR:134>  (179) 
0

>  <pication:HIS:51>  (179) 
0

>  <hbond:SER:81>  (179) 
0

>  <hbond:GLY:159>  (179) 
0

>  <hydroph_interaction:PRO:101>  (179) 
0

>  <hydroph_interaction:THR:134>  (179) 
0

>  <hbond:GLY:82>  (179) 
0

>  <hydroph_interaction:GLU:104>  (179) 
0

>  <hydroph_interaction:VAL:36>  (179) 
0

>  <hydroph_interaction:MET:49>  (179) 
0

>  <halogenbond:GLU:104>  (179) 
0

>  <hydroph_interaction:LYS:107>  (179) 
0

$$$$
Z5453069706
     RDKit          3D

 38 40  0  0  0  0  0  0  0  0999 V2000
   -6.8103    5.3020  -13.8899 C   0  0  0  0  0  0  0  0  0  0  0  0
   -7.4783    4.8197  -15.1496 C   0  0  0  0  0  0  0  0  0  0  0  0
   -6.6943    4.5634  -16.2869 C   0  0  0  0  0  0  0  0  0  0  0  0
   -7.2790    4.0713  -17.4562 C   0  0  0  0  0  0  0  0  0  0  0  0
   -8.6552    3.8287  -17.5045 C   0  0  0  0  0  0  0  0  0  0  0  0
   -9.2537    3.3090  -18.7061 C   0  0  0  0  0  0  0  0  0  0  0  0
   -9.7347    2.8912  -19.6721 N   0  0  0  0  0  0  0  0  0  0  0  0
   -9.4498    4.0979  -16.3847 C   0  0  0  0  0  0  0  0  0  0  0  0
   -8.8776    4.6188  -15.2157 C   0  0  0  0  0  0  0  0  0  0  0  0
   -9.7270    4.8965  -14.0948 N   0  0  0  0  0  0  0  0  0  0  0  0
   -9.8779    6.2164  -13.5546 C   0  0  0  0  0  0  0  0  0  0  0  0
   -9.4118    7.2141  -14.1693 O   0  0  0  0  0  0  0  0  0  0  0  0
  -10.5480    6.4124  -12.2310 C   0  0  0  0  0  0  0  0  0  0  0  0
   -9.5462    6.2454  -11.1338 C   0  0  0  0  0  0  0  0  0  0  0  0
   -9.0176    5.0742  -10.6491 C   0  0  0  0  0  0  0  0  0  0  0  0
   -9.3581    3.7678  -10.9898 O   0  0  0  0  0  0  0  0  0  0  0  0
   -8.5318    2.6884  -10.5442 C   0  0  0  0  0  0  0  0  0  0  0  0
   -7.9515    2.9749   -9.1430 C   0  0  0  0  0  0  0  0  0  0  0  0
   -7.2346    4.3406   -9.1087 C   0  0  0  0  0  0  0  0  0  0  0  0
   -8.0586    5.3536   -9.7614 N   0  0  0  0  0  0  0  0  0  0  0  0
   -7.8979    6.6642   -9.6728 N   0  0  0  0  0  0  0  0  0  0  0  0
   -8.8014    7.2343  -10.5046 C   0  0  0  0  0  0  0  0  0  0  0  0
   -5.7369    5.0168  -13.8743 H   0  0  0  0  0  0  0  0  0  0  0  0
   -7.2860    4.8462  -12.9970 H   0  0  0  0  0  0  0  0  0  0  0  0
   -6.8819    6.4070  -13.8248 H   0  0  0  0  0  0  0  0  0  0  0  0
   -5.6245    4.7316  -16.2651 H   0  0  0  0  0  0  0  0  0  0  0  0
   -6.6559    3.8722  -18.3199 H   0  0  0  0  0  0  0  0  0  0  0  0
  -10.5185    3.9203  -16.4235 H   0  0  0  0  0  0  0  0  0  0  0  0
  -10.3533    4.1360  -13.7471 H   0  0  0  0  0  0  0  0  0  0  0  0
  -10.9979    7.4273  -12.1789 H   0  0  0  0  0  0  0  0  0  0  0  0
  -11.3652    5.6705  -12.1055 H   0  0  0  0  0  0  0  0  0  0  0  0
   -9.1295    1.7533  -10.5231 H   0  0  0  0  0  0  0  0  0  0  0  0
   -7.6965    2.5532  -11.2649 H   0  0  0  0  0  0  0  0  0  0  0  0
   -7.2398    2.1705   -8.8585 H   0  0  0  0  0  0  0  0  0  0  0  0
   -8.7827    2.9820   -8.4047 H   0  0  0  0  0  0  0  0  0  0  0  0
   -6.2639    4.2636   -9.6443 H   0  0  0  0  0  0  0  0  0  0  0  0
   -7.0387    4.6352   -8.0556 H   0  0  0  0  0  0  0  0  0  0  0  0
   -8.8916    8.3003  -10.6649 H   0  0  0  0  0  0  0  0  0  0  0  0
  1  2  1  0
  2  3  2  0
  3  4  1  0
  4  5  2  0
  5  6  1  0
  6  7  3  0
  5  8  1  0
  8  9  2  0
  9 10  1  0
 10 11  1  0
 11 12  2  0
 11 13  1  0
 13 14  1  0
 14 15  2  0
 15 16  1  0
 16 17  1  0
 17 18  1  0
 18 19  1  0
 19 20  1  0
 20 21  1  0
 21 22  2  0
  9  2  1  0
 22 14  1  0
 20 15  1  0
  1 23  1  0
  1 24  1  0
  1 25  1  0
  3 26  1  0
  4 27  1  0
  8 28  1  0
 10 29  1  0
 13 30  1  0
 13 31  1  0
 17 32  1  0
 17 33  1  0
 18 34  1  0
 18 35  1  0
 19 36  1  0
 19 37  1  0
 22 38  1  0
A    1
 C1 
A    2
 C2 
A    3
 C3 
A    4
 C4 
A    5
 C5 
A    6
 C6 
A    7
 N1 
A    8
 C7 
A    9
 C8 
A   10
 N2 
A   11
 C9 
A   12
 O1 
A   13
 C10
A   14
 C11
A   15
 C12
A   16
 O2 
A   17
 C13
A   18
 C14
A   19
 C15
A   20
 N3 
A   21
 N4 
A   22
 C16
A   23
 H1 
A   24
 H2 
A   25
 H3 
A   26
 H4 
A   27
 H5 
A   28
 H6 
A   29
 H7 
A   30
 H8 
A   31
 H9 
A   32
 H10
A   33
 H11
A   34
 H12
A   35
 H13
A   36
 H14
A   37
 H15
A   38
 H16
M  END
>  <ref_pdb>  (180) 
x0051_0B

>  <ref_mols>  (180) 
x0553_0B,x0969_1B

>  <original SMILES>  (180) 
[H]c1nn2c(c1C([H])([H])C(=O)N([H])c1c([H])c(C#N)c([H])c([H])c1C([H])([H])[H])OC([H])([H])C([H])([H])C2([H])[H]

>  <index>  (180) 
162

>  <∆∆G>  (180) 
-5.911013

>  <∆G_bound>  (180) 
-5.012307

>  <∆G_unbound>  (180) 
0.898707

>  <comRMSD>  (180) 
0.528172

>  <N_constrained_atoms>  (180) 
19.0

>  <N_unconstrained_atoms>  (180) 
3.0

>  <runtime>  (180) 
49.207972

>  <LE>  (180) 
0.268682

>  <percent_hybrid>  (180) 
48.0

>  <dist>  (180) 
5.0

>  <ecfp4>  (180) 
0.44

>  <daylight>  (180) 
0.333333

>  <topodist>  (180) 
1.0

>  <mces>  (180) 
23.0

>  <tdn>  (180) 
0.0

>  <tup>  (180) 
1.0

>  <rdn>  (180) 
0.0

>  <rup>  (180) 
0.0

>  <ldn>  (180) 
0.0

>  <lup>  (180) 
0.0

>  <mut>  (180) 
3.0

>  <maj>  (180) 
3.0

>  <min>  (180) 
0.0

>  <hyb>  (180) 
1.0

>  <sub>  (180) 
0.0

>  <query_index>  (180) 
375.0

>  <max_hit_Tanimoto>  (180) 
0.255771

>  <largest_ring>  (180) 
6

>  <N_interactions_kept>  (180) 
1.0

>  <N_interactions_lost>  (180) 
1.5

>  <interaction_uniqueness_metric>  (180) 
0.312932

>  <ad_hoc_penalty>  (180) 
-25.225529

>  <N_rotatable_bonds>  (180) 
4

>  <N_HA>  (180) 
22

>  <cluster>  (180) 
6070

>  <N_interactions>  (180) 
7

>  <Enamine>  (180) 
1

>  <Mcule>  (180) 
0

>  <N_PAINS>  (180) 
0

>  <UFF_Gibbs>  (180) 
205.082185

>  <strain_per_HA>  (180) 
9.321918

>  <saltbridge:HIS:51>  (180) 
0

>  <pistack:HIS:51>  (180) 
1

>  <hydroph_interaction:HIS:51>  (180) 
1

>  <hbond:ALA:132>  (180) 
0

>  <hbond:SER:135>  (180) 
0

>  <hydroph_interaction:TYR:150>  (180) 
0

>  <pistack:TYR:161>  (180) 
1

>  <hydroph_interaction:TYR:161>  (180) 
1

>  <hydroph_interaction:ASP:83>  (180) 
0

>  <hbond:TYR:130>  (180) 
1

>  <hydroph_interaction:ALA:132>  (180) 
0

>  <hbond:HIS:51>  (180) 
0

>  <hbond:ASP:129>  (180) 
0

>  <hbond:TYR:150>  (180) 
0

>  <hbond:GLY:151>  (180) 
0

>  <hbond:TYR:161>  (180) 
1

>  <hydroph_interaction:TYR:130>  (180) 
0

>  <hydroph_interaction:PRO:131>  (180) 
0

>  <hydroph_interaction:ASP:129>  (180) 
0

>  <saltbridge:ASP:75>  (180) 
0

>  <saltbridge:ASP:83>  (180) 
0

>  <hydroph_interaction:ASN:152>  (180) 
0

>  <halogenbond:TYR:150>  (180) 
0

>  <hbond:ASP:83>  (180) 
0

>  <hydroph_interaction:VAL:155>  (180) 
0

>  <pication:TYR:161>  (180) 
0

>  <hbond:PRO:131>  (180) 
0

>  <hbond:LEU:128>  (180) 
0

>  <saltbridge:ASP:129>  (180) 
0

>  <hbond:THR:134>  (180) 
1

>  <pication:HIS:51>  (180) 
0

>  <hbond:SER:81>  (180) 
0

>  <hbond:GLY:159>  (180) 
0

>  <hydroph_interaction:PRO:101>  (180) 
0

>  <hydroph_interaction:THR:134>  (180) 
0

>  <hbond:GLY:82>  (180) 
0

>  <hydroph_interaction:GLU:104>  (180) 
0

>  <hydroph_interaction:VAL:36>  (180) 
0

>  <hydroph_interaction:MET:49>  (180) 
0

>  <halogenbond:GLU:104>  (180) 
0

>  <hydroph_interaction:LYS:107>  (180) 
0

$$$$
CSSB00009826571
     RDKit          3D

 26 27  0  0  0  0  0  0  0  0999 V2000
   -3.9109    3.4602  -17.0796 N   0  0  0  0  0  0  0  0  0  0  0  0
   -3.4024    4.8133  -16.8756 C   0  0  0  0  0  0  0  0  0  0  0  0
   -4.0278    5.7874  -17.8773 C   0  0  0  0  0  0  0  0  0  0  0  0
   -5.4744    5.9024  -17.6568 N   0  0  0  0  0  0  0  0  0  0  0  0
   -6.0061    6.9442  -16.7561 C   0  0  0  0  0  0  0  0  0  0  0  0
   -7.1228    6.3885  -15.8470 C   0  0  0  0  0  0  0  0  0  0  0  0
   -8.0747    5.6059  -16.6364 N   0  0  0  0  0  0  0  0  0  0  0  0
   -9.3474    5.2951  -16.3317 C   0  0  0  0  0  0  0  0  0  0  0  0
   -9.8450    4.4174  -17.2811 C   0  0  0  0  0  0  0  0  0  0  0  0
   -8.8221    4.1740  -18.1847 C   0  0  0  0  0  0  0  0  0  0  0  0
   -7.7500    4.9209  -17.7417 C   0  0  0  0  0  0  0  0  0  0  0  0
   -6.4000    4.9999  -18.2935 C   0  0  0  0  0  0  0  0  0  0  0  0
   -6.0552    4.2850  -19.2729 O   0  0  0  0  0  0  0  0  0  0  0  0
   -3.5091    2.8530  -16.3292 H   0  0  0  0  0  0  0  0  0  0  0  0
   -3.5322    3.1021  -17.9866 H   0  0  0  0  0  0  0  0  0  0  0  0
   -3.6406    5.1466  -15.8417 H   0  0  0  0  0  0  0  0  0  0  0  0
   -2.2962    4.8214  -16.9962 H   0  0  0  0  0  0  0  0  0  0  0  0
   -3.8145    5.4603  -18.9180 H   0  0  0  0  0  0  0  0  0  0  0  0
   -3.5482    6.7828  -17.7534 H   0  0  0  0  0  0  0  0  0  0  0  0
   -5.1983    7.3703  -16.1221 H   0  0  0  0  0  0  0  0  0  0  0  0
   -6.4258    7.7668  -17.3742 H   0  0  0  0  0  0  0  0  0  0  0  0
   -6.6724    5.7341  -15.0699 H   0  0  0  0  0  0  0  0  0  0  0  0
   -7.6468    7.2300  -15.3445 H   0  0  0  0  0  0  0  0  0  0  0  0
   -9.8790    5.6630  -15.4637 H   0  0  0  0  0  0  0  0  0  0  0  0
  -10.8364    3.9852  -17.3004 H   0  0  0  0  0  0  0  0  0  0  0  0
   -8.8546    3.5182  -19.0447 H   0  0  0  0  0  0  0  0  0  0  0  0
  1  2  1  0
  2  3  1  0
  3  4  1  0
  4  5  1  0
  5  6  1  0
  6  7  1  0
  7  8  1  0
  8  9  2  0
  9 10  1  0
 10 11  2  0
 11 12  1  0
 12 13  2  0
 12  4  1  0
 11  7  1  0
  1 14  1  0
  1 15  1  0
  2 16  1  0
  2 17  1  0
  3 18  1  0
  3 19  1  0
  5 20  1  0
  5 21  1  0
  6 22  1  0
  6 23  1  0
  8 24  1  0
  9 25  1  0
 10 26  1  0
A    1
 N1 
A    2
 C1 
A    3
 C2 
A    4
 N2 
A    5
 C3 
A    6
 C4 
A    7
 N3 
A    8
 C5 
A    9
 C6 
A   10
 C7 
A   11
 C8 
A   12
 C9 
A   13
 O1 
A   14
 H1 
A   15
 H2 
A   16
 H3 
A   17
 H4 
A   18
 H5 
A   19
 H6 
A   20
 H7 
A   21
 H8 
A   22
 H9 
A   23
 H10
A   24
 H11
A   25
 H12
A   26
 H13
M  END
>  <ref_pdb>  (181) 
x0051_0B

>  <ref_mols>  (181) 
x0472_0B,x0386_0B

>  <original SMILES>  (181) 
[H]c1c([H])c2n(c1[H])C([H])([H])C([H])([H])N(C([H])([H])C([H])([H])N([H])[H])C2=O

>  <index>  (181) 
289

>  <∆∆G>  (181) 
-6.057553

>  <∆G_bound>  (181) 
-5.795887

>  <∆G_unbound>  (181) 
0.261666

>  <comRMSD>  (181) 
0.324228

>  <N_constrained_atoms>  (181) 
14.0

>  <N_unconstrained_atoms>  (181) 
0.0

>  <runtime>  (181) 
23.037153

>  <LE>  (181) 
0.432682

>  <percent_hybrid>  (181) 
13.0

>  <dist>  (181) 
5.0

>  <ecfp4>  (181) 
0.118644

>  <daylight>  (181) 
0.160622

>  <topodist>  (181) 
1.0

>  <mces>  (181) 
14.0

>  <tdn>  (181) 
1.0

>  <tup>  (181) 
0.0

>  <rdn>  (181) 
0.0

>  <rup>  (181) 
0.0

>  <ldn>  (181) 
0.0

>  <lup>  (181) 
0.0

>  <mut>  (181) 
3.0

>  <maj>  (181) 
3.0

>  <min>  (181) 
0.0

>  <hyb>  (181) 
1.0

>  <sub>  (181) 
1.0

>  <query_index>  (181) 
75.0

>  <max_hit_Tanimoto>  (181) 
0.219672

>  <largest_ring>  (181) 
6

>  <N_interactions_kept>  (181) 
3.0

>  <N_interactions_lost>  (181) 
0.0

>  <interaction_uniqueness_metric>  (181) 
0.028804

>  <ad_hoc_penalty>  (181) 
-25.189369

>  <N_rotatable_bonds>  (181) 
3

>  <N_HA>  (181) 
13

>  <cluster>  (181) 
5953

>  <N_interactions>  (181) 
3

>  <Enamine>  (181) 
1

>  <Mcule>  (181) 
0

>  <N_PAINS>  (181) 
0

>  <UFF_Gibbs>  (181) 
36.106579

>  <strain_per_HA>  (181) 
2.579041

>  <saltbridge:HIS:51>  (181) 
0

>  <pistack:HIS:51>  (181) 
0

>  <hydroph_interaction:HIS:51>  (181) 
0

>  <hbond:ALA:132>  (181) 
0

>  <hbond:SER:135>  (181) 
0

>  <hydroph_interaction:TYR:150>  (181) 
1

>  <pistack:TYR:161>  (181) 
0

>  <hydroph_interaction:TYR:161>  (181) 
2

>  <hydroph_interaction:ASP:83>  (181) 
0

>  <hbond:TYR:130>  (181) 
0

>  <hydroph_interaction:ALA:132>  (181) 
0

>  <hbond:HIS:51>  (181) 
0

>  <hbond:ASP:129>  (181) 
0

>  <hbond:TYR:150>  (181) 
0

>  <hbond:GLY:151>  (181) 
0

>  <hbond:TYR:161>  (181) 
0

>  <hydroph_interaction:TYR:130>  (181) 
0

>  <hydroph_interaction:PRO:131>  (181) 
0

>  <hydroph_interaction:ASP:129>  (181) 
0

>  <saltbridge:ASP:75>  (181) 
0

>  <saltbridge:ASP:83>  (181) 
0

>  <hydroph_interaction:ASN:152>  (181) 
0

>  <halogenbond:TYR:150>  (181) 
0

>  <hbond:ASP:83>  (181) 
0

>  <hydroph_interaction:VAL:155>  (181) 
0

>  <pication:TYR:161>  (181) 
0

>  <hbond:PRO:131>  (181) 
0

>  <hbond:LEU:128>  (181) 
0

>  <saltbridge:ASP:129>  (181) 
0

>  <hbond:THR:134>  (181) 
0

>  <pication:HIS:51>  (181) 
0

>  <hbond:SER:81>  (181) 
0

>  <hbond:GLY:159>  (181) 
0

>  <hydroph_interaction:PRO:101>  (181) 
0

>  <hydroph_interaction:THR:134>  (181) 
0

>  <hbond:GLY:82>  (181) 
0

>  <hydroph_interaction:GLU:104>  (181) 
0

>  <hydroph_interaction:VAL:36>  (181) 
0

>  <hydroph_interaction:MET:49>  (181) 
0

>  <halogenbond:GLU:104>  (181) 
0

>  <hydroph_interaction:LYS:107>  (181) 
0

$$$$
CSSB00000600872
     RDKit          3D

 29 30  0  0  0  0  0  0  0  0999 V2000
   -9.5464    5.3843  -13.6238 O   0  0  0  0  0  0  0  0  0  0  0  0
   -8.4360    5.5756  -14.4422 C   0  0  0  0  0  0  0  0  0  0  0  0
   -7.3301    5.8819  -13.9197 O   0  0  0  0  0  0  0  0  0  0  0  0
   -8.5549    5.4204  -15.9090 C   0  0  0  0  0  0  0  0  0  0  0  0
   -9.7890    5.0793  -16.4877 C   0  0  0  0  0  0  0  0  0  0  0  0
   -9.9059    4.9426  -17.8727 C   0  0  0  0  0  0  0  0  0  0  0  0
   -8.7938    5.1340  -18.6950 C   0  0  0  0  0  0  0  0  0  0  0  0
   -7.5456    5.4519  -18.1342 C   0  0  0  0  0  0  0  0  0  0  0  0
   -6.3900    5.6783  -18.9579 N   0  0  0  0  0  0  0  0  0  0  0  0
   -6.0569    4.8906  -20.1136 C   0  0  0  0  0  0  0  0  0  0  0  0
   -6.7998    3.9405  -20.4803 O   0  0  0  0  0  0  0  0  0  0  0  0
   -4.8455    5.1938  -20.8964 C   0  0  0  0  0  0  0  0  0  0  0  0
   -4.9752    5.4474  -22.2719 C   0  0  0  0  0  0  0  0  0  0  0  0
   -3.8525    5.7573  -23.0434 C   0  0  0  0  0  0  0  0  0  0  0  0
   -2.5894    5.8065  -22.4517 C   0  0  0  0  0  0  0  0  0  0  0  0
   -2.4446    5.5348  -21.0894 C   0  0  0  0  0  0  0  0  0  0  0  0
   -3.5626    5.2230  -20.3051 C   0  0  0  0  0  0  0  0  0  0  0  0
   -3.2171    4.7011  -18.2759 I   0  0  0  0  0  0  0  0  0  0  0  0
   -7.4389    5.6130  -16.7443 C   0  0  0  0  0  0  0  0  0  0  0  0
   -9.4760    5.4880  -12.6186 H   0  0  0  0  0  0  0  0  0  0  0  0
  -10.6667    4.9264  -15.8724 H   0  0  0  0  0  0  0  0  0  0  0  0
  -10.8645    4.6966  -18.3112 H   0  0  0  0  0  0  0  0  0  0  0  0
   -8.9183    5.0609  -19.7669 H   0  0  0  0  0  0  0  0  0  0  0  0
   -5.7100    6.4084  -18.6473 H   0  0  0  0  0  0  0  0  0  0  0  0
   -5.9495    5.4200  -22.7448 H   0  0  0  0  0  0  0  0  0  0  0  0
   -3.9623    5.9607  -24.1008 H   0  0  0  0  0  0  0  0  0  0  0  0
   -1.7203    6.0447  -23.0512 H   0  0  0  0  0  0  0  0  0  0  0  0
   -1.4578    5.5534  -20.6450 H   0  0  0  0  0  0  0  0  0  0  0  0
   -6.4784    5.8776  -16.3186 H   0  0  0  0  0  0  0  0  0  0  0  0
  1  2  1  0
  2  3  2  0
  2  4  1  0
  4  5  2  0
  5  6  1  0
  6  7  2  0
  7  8  1  0
  8  9  1  0
  9 10  1  0
 10 11  2  0
 10 12  1  0
 12 13  2  0
 13 14  1  0
 14 15  2  0
 15 16  1  0
 16 17  2  0
 17 18  1  0
  8 19  2  0
 19  4  1  0
 17 12  1  0
  1 20  1  0
  5 21  1  0
  6 22  1  0
  7 23  1  0
  9 24  1  0
 13 25  1  0
 14 26  1  0
 15 27  1  0
 16 28  1  0
 19 29  1  0
A    1
 O1 
A    2
 C1 
A    3
 O2 
A    4
 C2 
A    5
 C3 
A    6
 C4 
A    7
 C5 
A    8
 C6 
A    9
 N1 
A   10
 C7 
A   11
 O3 
A   12
 C8 
A   13
 C9 
A   14
 C10
A   15
 C11
A   16
 C12
A   17
 C13
A   18
 I1 
A   19
 C14
A   20
 H1 
A   21
 H2 
A   22
 H3 
A   23
 H4 
A   24
 H5 
A   25
 H6 
A   26
 H7 
A   27
 H8 
A   28
 H9 
A   29
 H10
M  END
>  <ref_pdb>  (182) 
x0051_0B

>  <ref_mols>  (182) 
x0852_0B,x0951_0B

>  <original SMILES>  (182) 
[H]OC(=O)c1c([H])c([H])c([H])c(N([H])C(=O)c2c([H])c([H])c([H])c([H])c2I)c1[H]

>  <index>  (182) 
344

>  <∆∆G>  (182) 
-5.87515

>  <∆G_bound>  (182) 
-5.3103

>  <∆G_unbound>  (182) 
0.56485

>  <comRMSD>  (182) 
0.572815

>  <N_constrained_atoms>  (182) 
22.0

>  <N_unconstrained_atoms>  (182) 
0.0

>  <runtime>  (182) 
34.088281

>  <LE>  (182) 
0.267052

>  <percent_hybrid>  (182) 
27.0

>  <dist>  (182) 
9.0

>  <ecfp4>  (182) 
0.216216

>  <daylight>  (182) 
0.298077

>  <topodist>  (182) 
5.0

>  <mces>  (182) 
20.0

>  <tdn>  (182) 
4.0

>  <tup>  (182) 
0.0

>  <rdn>  (182) 
1.0

>  <rup>  (182) 
0.0

>  <ldn>  (182) 
0.0

>  <lup>  (182) 
0.0

>  <mut>  (182) 
4.0

>  <maj>  (182) 
3.0

>  <min>  (182) 
1.0

>  <hyb>  (182) 
0.0

>  <sub>  (182) 
2.0

>  <query_index>  (182) 
95.0

>  <max_hit_Tanimoto>  (182) 
0.34402

>  <largest_ring>  (182) 
6

>  <N_interactions_kept>  (182) 
2.0

>  <N_interactions_lost>  (182) 
4.0

>  <interaction_uniqueness_metric>  (182) 
0.279746

>  <ad_hoc_penalty>  (182) 
-25.175407

>  <N_rotatable_bonds>  (182) 
3

>  <N_HA>  (182) 
19

>  <cluster>  (182) 
5904

>  <N_interactions>  (182) 
10

>  <Enamine>  (182) 
1

>  <Mcule>  (182) 
0

>  <N_PAINS>  (182) 
0

>  <UFF_Gibbs>  (182) 
83.357434

>  <strain_per_HA>  (182) 
3.788974

>  <saltbridge:HIS:51>  (182) 
1

>  <pistack:HIS:51>  (182) 
0

>  <hydroph_interaction:HIS:51>  (182) 
0

>  <hbond:ALA:132>  (182) 
0

>  <hbond:SER:135>  (182) 
0

>  <hydroph_interaction:TYR:150>  (182) 
1

>  <pistack:TYR:161>  (182) 
0

>  <hydroph_interaction:TYR:161>  (182) 
3

>  <hydroph_interaction:ASP:83>  (182) 
0

>  <hbond:TYR:130>  (182) 
1

>  <hydroph_interaction:ALA:132>  (182) 
1

>  <hbond:HIS:51>  (182) 
0

>  <hbond:ASP:129>  (182) 
1

>  <hbond:TYR:150>  (182) 
0

>  <hbond:GLY:151>  (182) 
1

>  <hbond:TYR:161>  (182) 
0

>  <hydroph_interaction:TYR:130>  (182) 
0

>  <hydroph_interaction:PRO:131>  (182) 
0

>  <hydroph_interaction:ASP:129>  (182) 
1

>  <saltbridge:ASP:75>  (182) 
0

>  <saltbridge:ASP:83>  (182) 
0

>  <hydroph_interaction:ASN:152>  (182) 
0

>  <halogenbond:TYR:150>  (182) 
0

>  <hbond:ASP:83>  (182) 
0

>  <hydroph_interaction:VAL:155>  (182) 
0

>  <pication:TYR:161>  (182) 
0

>  <hbond:PRO:131>  (182) 
0

>  <hbond:LEU:128>  (182) 
0

>  <saltbridge:ASP:129>  (182) 
0

>  <hbond:THR:134>  (182) 
0

>  <pication:HIS:51>  (182) 
0

>  <hbond:SER:81>  (182) 
0

>  <hbond:GLY:159>  (182) 
0

>  <hydroph_interaction:PRO:101>  (182) 
0

>  <hydroph_interaction:THR:134>  (182) 
0

>  <hbond:GLY:82>  (182) 
0

>  <hydroph_interaction:GLU:104>  (182) 
0

>  <hydroph_interaction:VAL:36>  (182) 
0

>  <hydroph_interaction:MET:49>  (182) 
0

>  <halogenbond:GLU:104>  (182) 
0

>  <hydroph_interaction:LYS:107>  (182) 
0

$$$$
CSSB00005794343
     RDKit          3D

 28 30  0  0  0  0  0  0  0  0999 V2000
   -5.9384    8.1429  -16.5708 O   0  0  0  0  0  0  0  0  0  0  0  0
   -6.2946    7.1871  -17.3126 C   0  0  0  0  0  0  0  0  0  0  0  0
   -7.4335    6.4081  -16.9276 N   0  0  0  0  0  0  0  0  0  0  0  0
   -7.8293    5.1797  -17.5606 C   0  0  0  0  0  0  0  0  0  0  0  0
   -8.2404    4.1165  -16.7393 C   0  0  0  0  0  0  0  0  0  0  0  0
   -8.6986    2.9209  -17.2932 C   0  0  0  0  0  0  0  0  0  0  0  0
   -8.7719    2.7772  -18.6766 C   0  0  0  0  0  0  0  0  0  0  0  0
   -8.3888    3.8292  -19.5095 C   0  0  0  0  0  0  0  0  0  0  0  0
   -7.9099    5.0379  -18.9701 C   0  0  0  0  0  0  0  0  0  0  0  0
   -7.5580    6.1288  -19.9077 C   0  0  0  0  0  0  0  0  0  0  0  0
   -8.2737    6.3078  -20.9312 O   0  0  0  0  0  0  0  0  0  0  0  0
   -6.3849    6.9364  -19.7215 N   0  0  0  0  0  0  0  0  0  0  0  0
   -5.8172    7.7396  -20.7922 C   0  0  0  0  0  0  0  0  0  0  0  0
   -4.3865    8.0350  -20.3677 C   0  0  0  0  0  0  0  0  0  0  0  0
   -4.3559    7.8170  -18.8592 C   0  0  0  0  0  0  0  0  0  0  0  0
   -5.5163    6.8535  -18.5610 C   0  0  1  0  0  0  0  0  0  0  0  0
   -7.8778    6.6447  -16.0111 H   0  0  0  0  0  0  0  0  0  0  0  0
   -8.2022    4.2168  -15.6617 H   0  0  0  0  0  0  0  0  0  0  0  0
   -9.0044    2.1075  -16.6478 H   0  0  0  0  0  0  0  0  0  0  0  0
   -9.1325    1.8511  -19.1055 H   0  0  0  0  0  0  0  0  0  0  0  0
   -8.4609    3.6964  -20.5824 H   0  0  0  0  0  0  0  0  0  0  0  0
   -6.3995    8.6802  -20.8989 H   0  0  0  0  0  0  0  0  0  0  0  0
   -5.8239    7.1786  -21.7524 H   0  0  0  0  0  0  0  0  0  0  0  0
   -4.0881    9.0712  -20.6383 H   0  0  0  0  0  0  0  0  0  0  0  0
   -3.6955    7.3147  -20.8589 H   0  0  0  0  0  0  0  0  0  0  0  0
   -4.4934    8.8062  -18.3716 H   0  0  0  0  0  0  0  0  0  0  0  0
   -3.3826    7.3886  -18.5347 H   0  0  0  0  0  0  0  0  0  0  0  0
   -5.1173    5.8184  -18.4769 H   0  0  0  0  0  0  0  0  0  0  0  0
  1  2  2  0
  2  3  1  0
  3  4  1  0
  4  5  2  0
  5  6  1  0
  6  7  2  0
  7  8  1  0
  8  9  2  0
  9 10  1  0
 10 11  2  0
 10 12  1  0
 12 13  1  0
 13 14  1  0
 14 15  1  0
 15 16  1  0
 16  2  1  0
  9  4  1  0
 16 12  1  0
  3 17  1  0
  5 18  1  0
  6 19  1  0
  7 20  1  0
  8 21  1  0
 13 22  1  0
 13 23  1  0
 14 24  1  0
 14 25  1  0
 15 26  1  0
 15 27  1  0
 16 28  1  1
A    1
 O1 
A    2
 C1 
A    3
 N1 
A    4
 C2 
A    5
 C3 
A    6
 C4 
A    7
 C5 
A    8
 C6 
A    9
 C7 
A   10
 C8 
A   11
 O2 
A   12
 N2 
A   13
 C9 
A   14
 C10
A   15
 C11
A   16
 C12
A   17
 H1 
A   18
 H2 
A   19
 H3 
A   20
 H4 
A   21
 H5 
A   22
 H6 
A   23
 H7 
A   24
 H8 
A   25
 H9 
A   26
 H10
A   27
 H11
A   28
 H12
M  END
>  <ref_pdb>  (183) 
x0051_0B

>  <ref_mols>  (183) 
x0229_0B,x0693_0B

>  <original SMILES>  (183) 
[H]c1c([H])c([H])c2c(c1[H])C(=O)N1C([H])([H])C([H])([H])C([H])([H])[C@@]1([H])C(=O)N2[H]

>  <index>  (183) 
212

>  <∆∆G>  (183) 
-6.565714

>  <∆G_bound>  (183) 
-6.251999

>  <∆G_unbound>  (183) 
0.313714

>  <comRMSD>  (183) 
0.730212

>  <N_constrained_atoms>  (183) 
18.0

>  <N_unconstrained_atoms>  (183) 
0.0

>  <runtime>  (183) 
28.22053

>  <LE>  (183) 
0.364762

>  <percent_hybrid>  (183) 
28.0

>  <dist>  (183) 
6.0

>  <ecfp4>  (183) 
0.15942

>  <daylight>  (183) 
0.399083

>  <topodist>  (183) 
4.0

>  <mces>  (183) 
17.0

>  <tdn>  (183) 
2.0

>  <tup>  (183) 
0.0

>  <rdn>  (183) 
1.0

>  <rup>  (183) 
1.0

>  <ldn>  (183) 
0.0

>  <lup>  (183) 
0.0

>  <mut>  (183) 
0.0

>  <maj>  (183) 
0.0

>  <min>  (183) 
0.0

>  <hyb>  (183) 
2.0

>  <sub>  (183) 
3.0

>  <query_index>  (183) 
241.0

>  <max_hit_Tanimoto>  (183) 
0.475728

>  <largest_ring>  (183) 
7

>  <N_interactions_kept>  (183) 
3.0

>  <N_interactions_lost>  (183) 
1.5

>  <interaction_uniqueness_metric>  (183) 
0.053165

>  <ad_hoc_penalty>  (183) 
-25.157763

>  <N_rotatable_bonds>  (183) 
0

>  <N_HA>  (183) 
16

>  <cluster>  (183) 
6025

>  <N_interactions>  (183) 
4

>  <Enamine>  (183) 
1

>  <Mcule>  (183) 
0

>  <N_PAINS>  (183) 
0

>  <UFF_Gibbs>  (183) 
84.211372

>  <strain_per_HA>  (183) 
4.67841

>  <saltbridge:HIS:51>  (183) 
0

>  <pistack:HIS:51>  (183) 
0

>  <hydroph_interaction:HIS:51>  (183) 
0

>  <hbond:ALA:132>  (183) 
0

>  <hbond:SER:135>  (183) 
0

>  <hydroph_interaction:TYR:150>  (183) 
1

>  <pistack:TYR:161>  (183) 
0

>  <hydroph_interaction:TYR:161>  (183) 
2

>  <hydroph_interaction:ASP:83>  (183) 
0

>  <hbond:TYR:130>  (183) 
1

>  <hydroph_interaction:ALA:132>  (183) 
0

>  <hbond:HIS:51>  (183) 
0

>  <hbond:ASP:129>  (183) 
0

>  <hbond:TYR:150>  (183) 
0

>  <hbond:GLY:151>  (183) 
0

>  <hbond:TYR:161>  (183) 
0

>  <hydroph_interaction:TYR:130>  (183) 
0

>  <hydroph_interaction:PRO:131>  (183) 
0

>  <hydroph_interaction:ASP:129>  (183) 
0

>  <saltbridge:ASP:75>  (183) 
0

>  <saltbridge:ASP:83>  (183) 
0

>  <hydroph_interaction:ASN:152>  (183) 
0

>  <halogenbond:TYR:150>  (183) 
0

>  <hbond:ASP:83>  (183) 
0

>  <hydroph_interaction:VAL:155>  (183) 
0

>  <pication:TYR:161>  (183) 
0

>  <hbond:PRO:131>  (183) 
0

>  <hbond:LEU:128>  (183) 
0

>  <saltbridge:ASP:129>  (183) 
0

>  <hbond:THR:134>  (183) 
0

>  <pication:HIS:51>  (183) 
0

>  <hbond:SER:81>  (183) 
0

>  <hbond:GLY:159>  (183) 
0

>  <hydroph_interaction:PRO:101>  (183) 
0

>  <hydroph_interaction:THR:134>  (183) 
0

>  <hbond:GLY:82>  (183) 
0

>  <hydroph_interaction:GLU:104>  (183) 
0

>  <hydroph_interaction:VAL:36>  (183) 
0

>  <hydroph_interaction:MET:49>  (183) 
0

>  <halogenbond:GLU:104>  (183) 
0

>  <hydroph_interaction:LYS:107>  (183) 
0

$$$$
Z2765507614
     RDKit          3D

 45 48  0  0  0  0  0  0  0  0999 V2000
   -6.7531    6.7080  -12.8622 O   0  0  0  0  0  0  0  0  0  0  0  0
   -7.3823    5.7519  -13.3895 C   0  0  0  0  0  0  0  0  0  0  0  0
   -8.1636    4.8622  -12.5752 N   0  0  0  0  0  0  0  0  0  0  0  0
   -8.5635    5.1555  -11.2275 C   0  0  0  0  0  0  0  0  0  0  0  0
   -9.0793    4.2622  -10.3144 C   0  0  0  0  0  0  0  0  0  0  0  0
   -9.3556    2.7997  -10.4992 C   0  0  0  0  0  0  0  0  0  0  0  0
   -9.6168    2.1295   -9.1407 C   0  0  0  0  0  0  0  0  0  0  0  0
  -10.5697    2.9696   -8.2735 C   0  0  0  0  0  0  0  0  0  0  0  0
   -9.9723    4.3578   -7.9892 C   0  0  0  0  0  0  0  0  0  0  0  0
   -9.4351    4.9482   -9.2137 N   0  0  0  0  0  0  0  0  0  0  0  0
   -9.1472    6.2322   -9.3654 N   0  0  0  0  0  0  0  0  0  0  0  0
   -8.6205    6.3910  -10.5991 C   0  0  0  0  0  0  0  0  0  0  0  0
   -7.2694    5.5445  -14.8437 C   0  0  0  0  0  0  0  0  0  0  0  0
   -7.9497    4.6143  -15.6042 C   0  0  0  0  0  0  0  0  0  0  0  0
   -7.5718    4.7669  -16.8821 N   0  0  0  0  0  0  0  0  0  0  0  0
   -6.6785    5.7773  -16.8734 C   0  0  0  0  0  0  0  0  0  0  0  0
   -5.9939    6.3086  -18.1042 C   0  0  0  0  0  0  0  0  0  0  0  0
   -7.0089    6.9616  -19.0682 C   0  0  0  0  0  0  0  0  0  0  0  0
   -6.4742    7.0373  -20.5111 C   0  0  0  0  0  0  0  0  0  0  0  0
   -5.0069    7.0472  -20.5215 N   0  0  0  0  0  0  0  0  0  0  0  0
   -4.4628    5.7565  -20.0612 C   0  0  0  0  0  0  0  0  0  0  0  0
   -5.1968    5.2050  -18.8174 C   0  0  0  0  0  0  0  0  0  0  0  0
   -6.4697    6.2840  -15.6394 N   0  0  0  0  0  0  0  0  0  0  0  0
   -8.4243    3.9288  -12.9623 H   0  0  0  0  0  0  0  0  0  0  0  0
  -10.2501    2.6847  -11.1482 H   0  0  0  0  0  0  0  0  0  0  0  0
   -8.4904    2.3095  -10.9944 H   0  0  0  0  0  0  0  0  0  0  0  0
  -10.0579    1.1233   -9.3071 H   0  0  0  0  0  0  0  0  0  0  0  0
   -8.6526    1.9946   -8.6024 H   0  0  0  0  0  0  0  0  0  0  0  0
  -10.7586    2.4452   -7.3122 H   0  0  0  0  0  0  0  0  0  0  0  0
  -11.5421    3.0856   -8.8005 H   0  0  0  0  0  0  0  0  0  0  0  0
  -10.7576    5.0202   -7.5658 H   0  0  0  0  0  0  0  0  0  0  0  0
   -9.1524    4.2628   -7.2450 H   0  0  0  0  0  0  0  0  0  0  0  0
   -8.3334    7.3480  -11.0111 H   0  0  0  0  0  0  0  0  0  0  0  0
   -8.6757    3.8876  -15.2657 H   0  0  0  0  0  0  0  0  0  0  0  0
   -7.9106    4.2204  -17.7047 H   0  0  0  0  0  0  0  0  0  0  0  0
   -5.2691    7.0911  -17.7831 H   0  0  0  0  0  0  0  0  0  0  0  0
   -7.2370    7.9871  -18.7031 H   0  0  0  0  0  0  0  0  0  0  0  0
   -7.9652    6.3938  -19.0811 H   0  0  0  0  0  0  0  0  0  0  0  0
   -6.8547    7.9639  -20.9935 H   0  0  0  0  0  0  0  0  0  0  0  0
   -6.8536    6.1729  -21.1030 H   0  0  0  0  0  0  0  0  0  0  0  0
   -4.6891    7.1992  -21.5073 H   0  0  0  0  0  0  0  0  0  0  0  0
   -4.5118    5.0054  -20.8818 H   0  0  0  0  0  0  0  0  0  0  0  0
   -3.3902    5.9032  -19.8105 H   0  0  0  0  0  0  0  0  0  0  0  0
   -5.8901    4.3963  -19.1386 H   0  0  0  0  0  0  0  0  0  0  0  0
   -4.4575    4.7572  -18.1173 H   0  0  0  0  0  0  0  0  0  0  0  0
  1  2  2  0
  2  3  1  0
  3  4  1  0
  4  5  2  0
  5  6  1  0
  6  7  1  0
  7  8  1  0
  8  9  1  0
  9 10  1  0
 10 11  1  0
 11 12  2  0
  2 13  1  0
 13 14  2  0
 14 15  1  0
 15 16  1  0
 16 17  1  0
 17 18  1  0
 18 19  1  0
 19 20  1  0
 20 21  1  0
 21 22  1  0
 16 23  2  0
 12  4  1  0
 10  5  1  0
 23 13  1  0
 22 17  1  0
  3 24  1  0
  6 25  1  0
  6 26  1  0
  7 27  1  0
  7 28  1  0
  8 29  1  0
  8 30  1  0
  9 31  1  0
  9 32  1  0
 12 33  1  0
 14 34  1  0
 15 35  1  0
 17 36  1  0
 18 37  1  0
 18 38  1  0
 19 39  1  0
 19 40  1  0
 20 41  1  0
 21 42  1  0
 21 43  1  0
 22 44  1  0
 22 45  1  0
A    1
 O1 
A    2
 C1 
A    3
 N1 
A    4
 C2 
A    5
 C3 
A    6
 C4 
A    7
 C5 
A    8
 C6 
A    9
 C7 
A   10
 N2 
A   11
 N3 
A   12
 C8 
A   13
 C9 
A   14
 C10
A   15
 N4 
A   16
 C11
A   17
 C12
A   18
 C13
A   19
 C14
A   20
 N5 
A   21
 C15
A   22
 C16
A   23
 N6 
A   24
 H1 
A   25
 H2 
A   26
 H3 
A   27
 H4 
A   28
 H5 
A   29
 H6 
A   30
 H7 
A   31
 H8 
A   32
 H9 
A   33
 H10
A   34
 H11
A   35
 H12
A   36
 H13
A   37
 H14
A   38
 H15
A   39
 H16
A   40
 H17
A   41
 H18
A   42
 H19
A   43
 H20
A   44
 H21
A   45
 H22
M  END
>  <ref_pdb>  (184) 
x0051_0B

>  <ref_mols>  (184) 
x0917_1B,x0969_1B

>  <original SMILES>  (184) 
[H]c1nn2c(c1N([H])C(=O)c1nc(C3([H])C([H])([H])C([H])([H])N([H])C([H])([H])C3([H])[H])n([H])c1[H])C([H])([H])C([H])([H])C([H])([H])C2([H])[H]

>  <index>  (184) 
225

>  <∆∆G>  (184) 
-5.420562

>  <∆G_bound>  (184) 
-3.94455

>  <∆G_unbound>  (184) 
1.476012

>  <comRMSD>  (184) 
0.620954

>  <N_constrained_atoms>  (184) 
25.0

>  <N_unconstrained_atoms>  (184) 
0.0

>  <runtime>  (184) 
76.64133

>  <LE>  (184) 
0.216822

>  <percent_hybrid>  (184) 
38.0

>  <dist>  (184) 
8.0

>  <ecfp4>  (184) 
0.235294

>  <daylight>  (184) 
0.334247

>  <topodist>  (184) 
2.0

>  <mces>  (184) 
26.0

>  <tdn>  (184) 
2.0

>  <tup>  (184) 
0.0

>  <rdn>  (184) 
0.0

>  <rup>  (184) 
0.0

>  <ldn>  (184) 
0.0

>  <lup>  (184) 
0.0

>  <mut>  (184) 
5.0

>  <maj>  (184) 
5.0

>  <min>  (184) 
0.0

>  <hyb>  (184) 
1.0

>  <sub>  (184) 
1.0

>  <query_index>  (184) 
298.0

>  <max_hit_Tanimoto>  (184) 
0.323651

>  <largest_ring>  (184) 
6

>  <N_interactions_kept>  (184) 
2.0

>  <N_interactions_lost>  (184) 
1.0

>  <interaction_uniqueness_metric>  (184) 
0.134556

>  <ad_hoc_penalty>  (184) 
-25.143012

>  <N_rotatable_bonds>  (184) 
3

>  <N_HA>  (184) 
23

>  <cluster>  (184) 
6014

>  <N_interactions>  (184) 
5

>  <Enamine>  (184) 
1

>  <Mcule>  (184) 
0

>  <N_PAINS>  (184) 
0

>  <UFF_Gibbs>  (184) 
128.336036

>  <strain_per_HA>  (184) 
5.133441

>  <saltbridge:HIS:51>  (184) 
0

>  <pistack:HIS:51>  (184) 
1

>  <hydroph_interaction:HIS:51>  (184) 
1

>  <hbond:ALA:132>  (184) 
0

>  <hbond:SER:135>  (184) 
0

>  <hydroph_interaction:TYR:150>  (184) 
0

>  <pistack:TYR:161>  (184) 
0

>  <hydroph_interaction:TYR:161>  (184) 
1

>  <hydroph_interaction:ASP:83>  (184) 
0

>  <hbond:TYR:130>  (184) 
0

>  <hydroph_interaction:ALA:132>  (184) 
1

>  <hbond:HIS:51>  (184) 
0

>  <hbond:ASP:129>  (184) 
0

>  <hbond:TYR:150>  (184) 
0

>  <hbond:GLY:151>  (184) 
1

>  <hbond:TYR:161>  (184) 
0

>  <hydroph_interaction:TYR:130>  (184) 
0

>  <hydroph_interaction:PRO:131>  (184) 
0

>  <hydroph_interaction:ASP:129>  (184) 
0

>  <saltbridge:ASP:75>  (184) 
0

>  <saltbridge:ASP:83>  (184) 
0

>  <hydroph_interaction:ASN:152>  (184) 
0

>  <halogenbond:TYR:150>  (184) 
0

>  <hbond:ASP:83>  (184) 
0

>  <hydroph_interaction:VAL:155>  (184) 
0

>  <pication:TYR:161>  (184) 
0

>  <hbond:PRO:131>  (184) 
0

>  <hbond:LEU:128>  (184) 
0

>  <saltbridge:ASP:129>  (184) 
0

>  <hbond:THR:134>  (184) 
0

>  <pication:HIS:51>  (184) 
0

>  <hbond:SER:81>  (184) 
0

>  <hbond:GLY:159>  (184) 
0

>  <hydroph_interaction:PRO:101>  (184) 
0

>  <hydroph_interaction:THR:134>  (184) 
0

>  <hbond:GLY:82>  (184) 
0

>  <hydroph_interaction:GLU:104>  (184) 
0

>  <hydroph_interaction:VAL:36>  (184) 
0

>  <hydroph_interaction:MET:49>  (184) 
0

>  <halogenbond:GLU:104>  (184) 
0

>  <hydroph_interaction:LYS:107>  (184) 
0

$$$$
DWRSLZLWOONHIZ-UHFFFAOYSA-N
     RDKit          3D

 28 29  0  0  0  0  0  0  0  0999 V2000
   -5.9617    5.7830  -17.5080 N   0  0  0  0  0  0  0  0  0  0  0  0
   -5.0325    5.1429  -16.5474 C   0  0  0  0  0  0  0  0  0  0  0  0
   -5.0221    3.6109  -16.6568 C   0  0  0  0  0  0  0  0  0  0  0  0
   -5.2987    5.6190  -15.1160 C   0  0  0  0  0  0  0  0  0  0  0  0
   -5.5220    6.9977  -18.2160 C   0  0  0  0  0  0  0  0  0  0  0  0
   -5.6549    6.8039  -19.6973 C   0  0  0  0  0  0  0  0  0  0  0  0
   -4.8820    7.4050  -20.4896 O   0  0  0  0  0  0  0  0  0  0  0  0
   -6.7138    5.9879  -20.2066 N   0  0  0  0  0  0  0  0  0  0  0  0
   -7.5669    5.2761  -19.3006 C   0  0  0  0  0  0  0  0  0  0  0  0
   -7.2131    5.1880  -17.9379 C   0  0  0  0  0  0  0  0  0  0  0  0
   -8.0906    4.5458  -17.0451 C   0  0  0  0  0  0  0  0  0  0  0  0
   -9.2712    3.9614  -17.5131 C   0  0  0  0  0  0  0  0  0  0  0  0
   -9.5948    4.0200  -18.8700 C   0  0  0  0  0  0  0  0  0  0  0  0
   -8.7473    4.6786  -19.7629 C   0  0  0  0  0  0  0  0  0  0  0  0
   -3.9929    5.4578  -16.7892 H   0  0  0  0  0  0  0  0  0  0  0  0
   -4.9250    3.3069  -17.7207 H   0  0  0  0  0  0  0  0  0  0  0  0
   -4.1538    3.2010  -16.0980 H   0  0  0  0  0  0  0  0  0  0  0  0
   -5.9402    3.1595  -16.2309 H   0  0  0  0  0  0  0  0  0  0  0  0
   -4.4867    5.2656  -14.4452 H   0  0  0  0  0  0  0  0  0  0  0  0
   -5.3151    6.7291  -15.0854 H   0  0  0  0  0  0  0  0  0  0  0  0
   -6.2591    5.2384  -14.7212 H   0  0  0  0  0  0  0  0  0  0  0  0
   -4.4736    7.2676  -17.9647 H   0  0  0  0  0  0  0  0  0  0  0  0
   -6.1702    7.8464  -17.9114 H   0  0  0  0  0  0  0  0  0  0  0  0
   -6.8846    5.9472  -21.2369 H   0  0  0  0  0  0  0  0  0  0  0  0
   -7.8810    4.4976  -15.9902 H   0  0  0  0  0  0  0  0  0  0  0  0
   -9.9382    3.4636  -16.8211 H   0  0  0  0  0  0  0  0  0  0  0  0
  -10.5092    3.5649  -19.2280 H   0  0  0  0  0  0  0  0  0  0  0  0
   -9.0149    4.7352  -20.8105 H   0  0  0  0  0  0  0  0  0  0  0  0
  1  2  1  0
  2  3  1  0
  2  4  1  0
  1  5  1  0
  5  6  1  0
  6  7  2  0
  6  8  1  0
  8  9  1  0
  9 10  2  0
 10 11  1  0
 11 12  2  0
 12 13  1  0
 13 14  2  0
 10  1  1  0
 14  9  1  0
  2 15  1  0
  3 16  1  0
  3 17  1  0
  3 18  1  0
  4 19  1  0
  4 20  1  0
  4 21  1  0
  5 22  1  0
  5 23  1  0
  8 24  1  0
 11 25  1  0
 12 26  1  0
 13 27  1  0
 14 28  1  0
A    1
 N1 
A    2
 C1 
A    3
 C2 
A    4
 C3 
A    5
 C4 
A    6
 C5 
A    7
 O1 
A    8
 N2 
A    9
 C6 
A   10
 C7 
A   11
 C8 
A   12
 C9 
A   13
 C10
A   14
 C11
A   15
 H1 
A   16
 H2 
A   17
 H3 
A   18
 H4 
A   19
 H5 
A   20
 H6 
A   21
 H7 
A   22
 H8 
A   23
 H9 
A   24
 H10
A   25
 H11
A   26
 H12
A   27
 H13
A   28
 H14
M  END
>  <ref_pdb>  (185) 
x0051_0B

>  <ref_mols>  (185) 
x0443_0B,x0490_0B

>  <original SMILES>  (185) 
[H]c1c([H])c([H])c2c(c1[H])N([H])C(=O)C([H])([H])N2C([H])(C([H])([H])[H])C([H])([H])[H]

>  <index>  (185) 
85

>  <∆∆G>  (185) 
-7.060221

>  <∆G_bound>  (185) 
-7.33934

>  <∆G_unbound>  (185) 
-0.279119

>  <comRMSD>  (185) 
0.515684

>  <N_constrained_atoms>  (185) 
12.0

>  <N_unconstrained_atoms>  (185) 
2.0

>  <runtime>  (185) 
21.121028

>  <LE>  (185) 
0.504301

>  <percent_hybrid>  (185) 
50.0

>  <dist>  (185) 
4.0

>  <ecfp4>  (185) 
0.22

>  <daylight>  (185) 
0.112069

>  <topodist>  (185) 
2.0

>  <mces>  (185) 
13.0

>  <tdn>  (185) 
0.0

>  <tup>  (185) 
1.0

>  <rdn>  (185) 
0.0

>  <rup>  (185) 
0.0

>  <ldn>  (185) 
0.0

>  <lup>  (185) 
1.0

>  <mut>  (185) 
1.0

>  <maj>  (185) 
1.0

>  <min>  (185) 
0.0

>  <hyb>  (185) 
1.0

>  <sub>  (185) 
1.0

>  <query_index>  (185) 
234.0

>  <max_hit_Tanimoto>  (185) 
0.126822

>  <largest_ring>  (185) 
6

>  <N_interactions_kept>  (185) 
2.0

>  <N_interactions_lost>  (185) 
2.0

>  <interaction_uniqueness_metric>  (185) 
0.130907

>  <ad_hoc_penalty>  (185) 
-25.130007

>  <N_rotatable_bonds>  (185) 
3

>  <N_HA>  (185) 
14

>  <cluster>  (185) 
6139

>  <N_interactions>  (185) 
8

>  <Enamine>  (185) 
0

>  <Mcule>  (185) 
1

>  <N_PAINS>  (185) 
0

>  <UFF_Gibbs>  (185) 
156.738771

>  <strain_per_HA>  (185) 
11.195626

>  <saltbridge:HIS:51>  (185) 
0

>  <pistack:HIS:51>  (185) 
0

>  <hydroph_interaction:HIS:51>  (185) 
0

>  <hbond:ALA:132>  (185) 
0

>  <hbond:SER:135>  (185) 
0

>  <hydroph_interaction:TYR:150>  (185) 
1

>  <pistack:TYR:161>  (185) 
0

>  <hydroph_interaction:TYR:161>  (185) 
4

>  <hydroph_interaction:ASP:83>  (185) 
0

>  <hbond:TYR:130>  (185) 
1

>  <hydroph_interaction:ALA:132>  (185) 
0

>  <hbond:HIS:51>  (185) 
0

>  <hbond:ASP:129>  (185) 
1

>  <hbond:TYR:150>  (185) 
0

>  <hbond:GLY:151>  (185) 
0

>  <hbond:TYR:161>  (185) 
0

>  <hydroph_interaction:TYR:130>  (185) 
0

>  <hydroph_interaction:PRO:131>  (185) 
0

>  <hydroph_interaction:ASP:129>  (185) 
0

>  <saltbridge:ASP:75>  (185) 
0

>  <saltbridge:ASP:83>  (185) 
0

>  <hydroph_interaction:ASN:152>  (185) 
0

>  <halogenbond:TYR:150>  (185) 
0

>  <hbond:ASP:83>  (185) 
0

>  <hydroph_interaction:VAL:155>  (185) 
1

>  <pication:TYR:161>  (185) 
0

>  <hbond:PRO:131>  (185) 
0

>  <hbond:LEU:128>  (185) 
0

>  <saltbridge:ASP:129>  (185) 
0

>  <hbond:THR:134>  (185) 
0

>  <pication:HIS:51>  (185) 
0

>  <hbond:SER:81>  (185) 
0

>  <hbond:GLY:159>  (185) 
0

>  <hydroph_interaction:PRO:101>  (185) 
0

>  <hydroph_interaction:THR:134>  (185) 
0

>  <hbond:GLY:82>  (185) 
0

>  <hydroph_interaction:GLU:104>  (185) 
0

>  <hydroph_interaction:VAL:36>  (185) 
0

>  <hydroph_interaction:MET:49>  (185) 
0

>  <halogenbond:GLU:104>  (185) 
0

>  <hydroph_interaction:LYS:107>  (185) 
0

$$$$
CSSB00020653639
     RDKit          3D

 35 37  0  0  0  0  0  0  0  0999 V2000
   -7.6157    2.5214   -9.7999 C   0  0  0  0  0  0  0  0  0  0  0  0
   -8.2272    3.7484   -9.4155 O   0  0  0  0  0  0  0  0  0  0  0  0
   -8.5983    4.7618  -10.3114 C   0  0  0  0  0  0  0  0  0  0  0  0
   -9.1974    5.9300   -9.7869 C   0  0  0  0  0  0  0  0  0  0  0  0
   -9.5955    6.9792  -10.6329 C   0  0  0  0  0  0  0  0  0  0  0  0
   -9.3792    6.8328  -12.0005 C   0  0  0  0  0  0  0  0  0  0  0  0
   -9.6865    7.7130  -12.9677 N   0  0  0  0  0  0  0  0  0  0  0  0
   -9.2921    7.1457  -14.1292 C   0  0  0  0  0  0  0  0  0  0  0  0
   -8.7350    5.8887  -13.8963 C   0  0  0  0  0  0  0  0  0  0  0  0
   -8.1392    4.9854  -14.9053 C   0  0  0  0  0  0  0  0  0  0  0  0
   -7.2407    4.1767  -14.5482 O   0  0  0  0  0  0  0  0  0  0  0  0
   -8.5472    5.0218  -16.3295 C   0  0  0  0  0  0  0  0  0  0  0  0
   -9.8760    5.3013  -16.6951 C   0  0  0  0  0  0  0  0  0  0  0  0
  -10.2483    5.3259  -18.0413 C   0  0  0  0  0  0  0  0  0  0  0  0
   -9.3060    5.0570  -19.0359 C   0  0  0  0  0  0  0  0  0  0  0  0
   -7.9845    4.7416  -18.6886 C   0  0  0  0  0  0  0  0  0  0  0  0
   -6.9639    4.4842  -19.7576 C   0  0  0  0  0  0  0  0  0  0  0  0
   -7.6079    4.7350  -17.3361 C   0  0  0  0  0  0  0  0  0  0  0  0
   -8.7929    5.7088  -12.5234 C   0  0  0  0  0  0  0  0  0  0  0  0
   -8.3926    4.6469  -11.7088 C   0  0  0  0  0  0  0  0  0  0  0  0
   -6.6447    2.7193  -10.3013 H   0  0  0  0  0  0  0  0  0  0  0  0
   -7.4295    1.9095   -8.8937 H   0  0  0  0  0  0  0  0  0  0  0  0
   -8.2883    1.9558  -10.4790 H   0  0  0  0  0  0  0  0  0  0  0  0
   -9.3554    6.0200   -8.7197 H   0  0  0  0  0  0  0  0  0  0  0  0
  -10.0566    7.8726  -10.2321 H   0  0  0  0  0  0  0  0  0  0  0  0
  -10.1299    8.6511  -12.8497 H   0  0  0  0  0  0  0  0  0  0  0  0
   -9.3830    7.6301  -15.0926 H   0  0  0  0  0  0  0  0  0  0  0  0
  -10.6304    5.4870  -15.9413 H   0  0  0  0  0  0  0  0  0  0  0  0
  -11.2713    5.5510  -18.3141 H   0  0  0  0  0  0  0  0  0  0  0  0
   -9.6081    5.0883  -20.0755 H   0  0  0  0  0  0  0  0  0  0  0  0
   -6.4743    5.4401  -20.0381 H   0  0  0  0  0  0  0  0  0  0  0  0
   -6.1906    3.7728  -19.3972 H   0  0  0  0  0  0  0  0  0  0  0  0
   -7.4414    4.0436  -20.6587 H   0  0  0  0  0  0  0  0  0  0  0  0
   -6.5801    4.5174  -17.0697 H   0  0  0  0  0  0  0  0  0  0  0  0
   -7.9474    3.7628  -12.1411 H   0  0  0  0  0  0  0  0  0  0  0  0
  1  2  1  0
  2  3  1  0
  3  4  2  0
  4  5  1  0
  5  6  2  0
  6  7  1  0
  7  8  1  0
  8  9  2  0
  9 10  1  0
 10 11  2  0
 10 12  1  0
 12 13  2  0
 13 14  1  0
 14 15  2  0
 15 16  1  0
 16 17  1  0
 16 18  2  0
  9 19  1  0
 19 20  2  0
 20  3  1  0
 19  6  1  0
 18 12  1  0
  1 21  1  0
  1 22  1  0
  1 23  1  0
  4 24  1  0
  5 25  1  0
  7 26  1  0
  8 27  1  0
 13 28  1  0
 14 29  1  0
 15 30  1  0
 17 31  1  0
 17 32  1  0
 17 33  1  0
 18 34  1  0
 20 35  1  0
A    1
 C1 
A    2
 O1 
A    3
 C2 
A    4
 C3 
A    5
 C4 
A    6
 C5 
A    7
 N1 
A    8
 C6 
A    9
 C7 
A   10
 C8 
A   11
 O2 
A   12
 C9 
A   13
 C10
A   14
 C11
A   15
 C12
A   16
 C13
A   17
 C14
A   18
 C15
A   19
 C16
A   20
 C17
A   21
 H1 
A   22
 H2 
A   23
 H3 
A   24
 H4 
A   25
 H5 
A   26
 H6 
A   27
 H7 
A   28
 H8 
A   29
 H9 
A   30
 H10
A   31
 H11
A   32
 H12
A   33
 H13
A   34
 H14
A   35
 H15
M  END
>  <ref_pdb>  (186) 
x0051_0B

>  <ref_mols>  (186) 
x1098_0B,x0727_0B

>  <original SMILES>  (186) 
[H]c1c([H])c(C(=O)c2c([H])n([H])c3c([H])c([H])c(OC([H])([H])[H])c([H])c23)c([H])c(C([H])([H])[H])c1[H]

>  <index>  (186) 
437

>  <∆∆G>  (186) 
-8.487877

>  <∆G_bound>  (186) 
-8.33782

>  <∆G_unbound>  (186) 
0.150057

>  <comRMSD>  (186) 
0.819406

>  <N_constrained_atoms>  (186) 
18.0

>  <N_unconstrained_atoms>  (186) 
4.0

>  <runtime>  (186) 
64.046641

>  <LE>  (186) 
0.385813

>  <percent_hybrid>  (186) 
10.0

>  <dist>  (186) 
8.0

>  <ecfp4>  (186) 
0.205128

>  <daylight>  (186) 
0.247253

>  <topodist>  (186) 
4.0

>  <mces>  (186) 
21.0

>  <tdn>  (186) 
1.0

>  <tup>  (186) 
0.0

>  <rdn>  (186) 
1.0

>  <rup>  (186) 
1.0

>  <ldn>  (186) 
1.0

>  <lup>  (186) 
0.0

>  <mut>  (186) 
4.0

>  <maj>  (186) 
4.0

>  <min>  (186) 
0.0

>  <hyb>  (186) 
0.0

>  <sub>  (186) 
2.0

>  <query_index>  (186) 
11.0

>  <max_hit_Tanimoto>  (186) 
0.215139

>  <largest_ring>  (186) 
6

>  <N_interactions_kept>  (186) 
4.0

>  <N_interactions_lost>  (186) 
2.0

>  <interaction_uniqueness_metric>  (186) 
0.289756

>  <ad_hoc_penalty>  (186) 
-25.119747

>  <N_rotatable_bonds>  (186) 
5

>  <N_HA>  (186) 
20

>  <cluster>  (186) 
5821

>  <N_interactions>  (186) 
6

>  <Enamine>  (186) 
1

>  <Mcule>  (186) 
0

>  <N_PAINS>  (186) 
0

>  <UFF_Gibbs>  (186) 
64.991366

>  <strain_per_HA>  (186) 
2.954153

>  <saltbridge:HIS:51>  (186) 
0

>  <pistack:HIS:51>  (186) 
0

>  <hydroph_interaction:HIS:51>  (186) 
1

>  <hbond:ALA:132>  (186) 
0

>  <hbond:SER:135>  (186) 
0

>  <hydroph_interaction:TYR:150>  (186) 
1

>  <pistack:TYR:161>  (186) 
0

>  <hydroph_interaction:TYR:161>  (186) 
2

>  <hydroph_interaction:ASP:83>  (186) 
0

>  <hbond:TYR:130>  (186) 
0

>  <hydroph_interaction:ALA:132>  (186) 
0

>  <hbond:HIS:51>  (186) 
0

>  <hbond:ASP:129>  (186) 
0

>  <hbond:TYR:150>  (186) 
0

>  <hbond:GLY:151>  (186) 
0

>  <hbond:TYR:161>  (186) 
0

>  <hydroph_interaction:TYR:130>  (186) 
0

>  <hydroph_interaction:PRO:131>  (186) 
0

>  <hydroph_interaction:ASP:129>  (186) 
0

>  <saltbridge:ASP:75>  (186) 
0

>  <saltbridge:ASP:83>  (186) 
0

>  <hydroph_interaction:ASN:152>  (186) 
0

>  <halogenbond:TYR:150>  (186) 
0

>  <hbond:ASP:83>  (186) 
0

>  <hydroph_interaction:VAL:155>  (186) 
0

>  <pication:TYR:161>  (186) 
0

>  <hbond:PRO:131>  (186) 
0

>  <hbond:LEU:128>  (186) 
0

>  <saltbridge:ASP:129>  (186) 
0

>  <hbond:THR:134>  (186) 
0

>  <pication:HIS:51>  (186) 
2

>  <hbond:SER:81>  (186) 
0

>  <hbond:GLY:159>  (186) 
0

>  <hydroph_interaction:PRO:101>  (186) 
0

>  <hydroph_interaction:THR:134>  (186) 
0

>  <hbond:GLY:82>  (186) 
0

>  <hydroph_interaction:GLU:104>  (186) 
0

>  <hydroph_interaction:VAL:36>  (186) 
0

>  <hydroph_interaction:MET:49>  (186) 
0

>  <halogenbond:GLU:104>  (186) 
0

>  <hydroph_interaction:LYS:107>  (186) 
0

$$$$
Z2782970119
     RDKit          3D

 44 47  0  0  0  0  0  0  0  0999 V2000
   -8.2436    7.1878  -12.1415 O   0  0  0  0  0  0  0  0  0  0  0  0
   -8.7708    6.2998  -12.8640 C   0  0  0  0  0  0  0  0  0  0  0  0
   -9.9658    5.5365  -12.3443 C   0  0  0  0  0  0  0  0  0  0  0  0
   -9.9339    5.4058  -10.8499 C   0  0  0  0  0  0  0  0  0  0  0  0
   -9.1355    4.5784  -10.0867 C   0  0  0  0  0  0  0  0  0  0  0  0
   -8.1534    3.5472  -10.5576 C   0  0  0  0  0  0  0  0  0  0  0  0
   -7.2322    3.1189   -9.4050 C   0  0  0  0  0  0  0  0  0  0  0  0
   -8.0276    2.8685   -8.1130 C   0  0  0  0  0  0  0  0  0  0  0  0
   -8.7557    4.1453   -7.6610 C   0  0  0  0  0  0  0  0  0  0  0  0
   -9.4303    4.7825   -8.7906 N   0  0  0  0  0  0  0  0  0  0  0  0
  -10.3424    5.7362   -8.6795 N   0  0  0  0  0  0  0  0  0  0  0  0
  -10.6713    6.1315   -9.9284 C   0  0  0  0  0  0  0  0  0  0  0  0
   -8.2758    6.1298  -14.1659 O   0  0  0  0  0  0  0  0  0  0  0  0
   -8.7325    5.1551  -15.1063 C   0  0  0  0  0  0  0  0  0  0  0  0
   -8.0691    3.7939  -14.8283 C   0  0  0  0  0  0  0  0  0  0  0  0
   -6.5925    3.8198  -15.2239 C   0  0  0  0  0  0  0  0  0  0  0  0
   -6.4472    4.0517  -16.7299 C   0  0  0  0  0  0  0  0  0  0  0  0
   -7.2979    5.1969  -17.2216 C   0  0  0  0  0  0  0  0  0  0  0  0
   -7.0406    5.7505  -18.4833 C   0  0  0  0  0  0  0  0  0  0  0  0
   -7.8615    6.7589  -18.9876 C   0  0  0  0  0  0  0  0  0  0  0  0
   -8.9432    7.2032  -18.2286 C   0  0  0  0  0  0  0  0  0  0  0  0
   -9.1928    6.6523  -17.0125 N   0  0  0  0  0  0  0  0  0  0  0  0
   -8.4200    5.6578  -16.4939 C   0  0  0  0  0  0  0  0  0  0  0  0
  -10.0054    4.5158  -12.7717 H   0  0  0  0  0  0  0  0  0  0  0  0
  -10.8902    6.0689  -12.6534 H   0  0  0  0  0  0  0  0  0  0  0  0
   -8.7139    2.6655  -10.9353 H   0  0  0  0  0  0  0  0  0  0  0  0
   -7.5381    3.9593  -11.3855 H   0  0  0  0  0  0  0  0  0  0  0  0
   -6.6913    2.1910   -9.6929 H   0  0  0  0  0  0  0  0  0  0  0  0
   -6.4755    3.9139   -9.2218 H   0  0  0  0  0  0  0  0  0  0  0  0
   -7.3374    2.5329   -7.3097 H   0  0  0  0  0  0  0  0  0  0  0  0
   -8.7724    2.0615   -8.2893 H   0  0  0  0  0  0  0  0  0  0  0  0
   -8.0177    4.8580   -7.2319 H   0  0  0  0  0  0  0  0  0  0  0  0
   -9.4991    3.8897   -6.8755 H   0  0  0  0  0  0  0  0  0  0  0  0
  -11.3967    6.9029  -10.1524 H   0  0  0  0  0  0  0  0  0  0  0  0
   -9.8363    5.0445  -15.0335 H   0  0  0  0  0  0  0  0  0  0  0  0
   -8.5960    3.0004  -15.4023 H   0  0  0  0  0  0  0  0  0  0  0  0
   -8.1490    3.5370  -13.7522 H   0  0  0  0  0  0  0  0  0  0  0  0
   -6.1192    2.8506  -14.9538 H   0  0  0  0  0  0  0  0  0  0  0  0
   -6.0663    4.6256  -14.6662 H   0  0  0  0  0  0  0  0  0  0  0  0
   -5.3775    4.2489  -16.9592 H   0  0  0  0  0  0  0  0  0  0  0  0
   -6.7501    3.1296  -17.2719 H   0  0  0  0  0  0  0  0  0  0  0  0
   -6.2074    5.3970  -19.0781 H   0  0  0  0  0  0  0  0  0  0  0  0
   -7.6651    7.1884  -19.9615 H   0  0  0  0  0  0  0  0  0  0  0  0
   -9.5867    7.9863  -18.6065 H   0  0  0  0  0  0  0  0  0  0  0  0
  1  2  2  0
  2  3  1  0
  3  4  1  0
  4  5  2  0
  5  6  1  0
  6  7  1  0
  7  8  1  0
  8  9  1  0
  9 10  1  0
 10 11  1  0
 11 12  2  0
  2 13  1  0
 13 14  1  0
 14 15  1  0
 15 16  1  0
 16 17  1  0
 17 18  1  0
 18 19  2  0
 19 20  1  0
 20 21  2  0
 21 22  1  0
 22 23  2  0
 12  4  1  0
 10  5  1  0
 23 14  1  0
 23 18  1  0
  3 24  1  0
  3 25  1  0
  6 26  1  0
  6 27  1  0
  7 28  1  0
  7 29  1  0
  8 30  1  0
  8 31  1  0
  9 32  1  0
  9 33  1  0
 12 34  1  0
 14 35  1  0
 15 36  1  0
 15 37  1  0
 16 38  1  0
 16 39  1  0
 17 40  1  0
 17 41  1  0
 19 42  1  0
 20 43  1  0
 21 44  1  0
A    1
 O1 
A    2
 C1 
A    3
 C2 
A    4
 C3 
A    5
 C4 
A    6
 C5 
A    7
 C6 
A    8
 C7 
A    9
 C8 
A   10
 N1 
A   11
 N2 
A   12
 C9 
A   13
 O2 
A   14
 C10
A   15
 C11
A   16
 C12
A   17
 C13
A   18
 C14
A   19
 C15
A   20
 C16
A   21
 C17
A   22
 N3 
A   23
 C18
A   24
 H1 
A   25
 H2 
A   26
 H3 
A   27
 H4 
A   28
 H5 
A   29
 H6 
A   30
 H7 
A   31
 H8 
A   32
 H9 
A   33
 H10
A   34
 H11
A   35
 H12
A   36
 H13
A   37
 H14
A   38
 H15
A   39
 H16
A   40
 H17
A   41
 H18
A   42
 H19
A   43
 H20
A   44
 H21
M  END
>  <ref_pdb>  (187) 
x0051_0B

>  <ref_mols>  (187) 
x0969_1B,x0455_0B

>  <original SMILES>  (187) 
[H]c1nc2c(c([H])c1[H])C([H])([H])C([H])([H])C([H])([H])C2([H])OC(=O)C([H])([H])c1c([H])nn2c1C([H])([H])C([H])([H])C([H])([H])C2([H])[H]

>  <index>  (187) 
173

>  <∆∆G>  (187) 
-6.646981

>  <∆G_bound>  (187) 
-5.096464

>  <∆G_unbound>  (187) 
1.550517

>  <comRMSD>  (187) 
0.359987

>  <N_constrained_atoms>  (187) 
20.0

>  <N_unconstrained_atoms>  (187) 
3.0

>  <runtime>  (187) 
49.196815

>  <LE>  (187) 
0.288999

>  <percent_hybrid>  (187) 
50.0

>  <dist>  (187) 
5.0

>  <ecfp4>  (187) 
0.35

>  <daylight>  (187) 
0.340426

>  <topodist>  (187) 
1.0

>  <mces>  (187) 
25.0

>  <tdn>  (187) 
0.0

>  <tup>  (187) 
1.0

>  <rdn>  (187) 
0.0

>  <rup>  (187) 
0.0

>  <ldn>  (187) 
0.0

>  <lup>  (187) 
0.0

>  <mut>  (187) 
4.0

>  <maj>  (187) 
4.0

>  <min>  (187) 
0.0

>  <hyb>  (187) 
0.0

>  <sub>  (187) 
0.0

>  <query_index>  (187) 
204.0

>  <max_hit_Tanimoto>  (187) 
0.282285

>  <largest_ring>  (187) 
6

>  <N_interactions_kept>  (187) 
1.0

>  <N_interactions_lost>  (187) 
1.5

>  <interaction_uniqueness_metric>  (187) 
0.182959

>  <ad_hoc_penalty>  (187) 
-25.074428

>  <N_rotatable_bonds>  (187) 
3

>  <N_HA>  (187) 
23

>  <cluster>  (187) 
6062

>  <N_interactions>  (187) 
6

>  <Enamine>  (187) 
1

>  <Mcule>  (187) 
0

>  <N_PAINS>  (187) 
0

>  <UFF_Gibbs>  (187) 
168.083505

>  <strain_per_HA>  (187) 
7.307978

>  <saltbridge:HIS:51>  (187) 
1

>  <pistack:HIS:51>  (187) 
1

>  <hydroph_interaction:HIS:51>  (187) 
1

>  <hbond:ALA:132>  (187) 
0

>  <hbond:SER:135>  (187) 
0

>  <hydroph_interaction:TYR:150>  (187) 
1

>  <pistack:TYR:161>  (187) 
0

>  <hydroph_interaction:TYR:161>  (187) 
2

>  <hydroph_interaction:ASP:83>  (187) 
0

>  <hbond:TYR:130>  (187) 
0

>  <hydroph_interaction:ALA:132>  (187) 
0

>  <hbond:HIS:51>  (187) 
0

>  <hbond:ASP:129>  (187) 
0

>  <hbond:TYR:150>  (187) 
0

>  <hbond:GLY:151>  (187) 
0

>  <hbond:TYR:161>  (187) 
0

>  <hydroph_interaction:TYR:130>  (187) 
0

>  <hydroph_interaction:PRO:131>  (187) 
0

>  <hydroph_interaction:ASP:129>  (187) 
0

>  <saltbridge:ASP:75>  (187) 
0

>  <saltbridge:ASP:83>  (187) 
0

>  <hydroph_interaction:ASN:152>  (187) 
0

>  <halogenbond:TYR:150>  (187) 
0

>  <hbond:ASP:83>  (187) 
0

>  <hydroph_interaction:VAL:155>  (187) 
0

>  <pication:TYR:161>  (187) 
0

>  <hbond:PRO:131>  (187) 
0

>  <hbond:LEU:128>  (187) 
0

>  <saltbridge:ASP:129>  (187) 
0

>  <hbond:THR:134>  (187) 
0

>  <pication:HIS:51>  (187) 
0

>  <hbond:SER:81>  (187) 
0

>  <hbond:GLY:159>  (187) 
0

>  <hydroph_interaction:PRO:101>  (187) 
0

>  <hydroph_interaction:THR:134>  (187) 
0

>  <hbond:GLY:82>  (187) 
0

>  <hydroph_interaction:GLU:104>  (187) 
0

>  <hydroph_interaction:VAL:36>  (187) 
0

>  <hydroph_interaction:MET:49>  (187) 
0

>  <halogenbond:GLU:104>  (187) 
0

>  <hydroph_interaction:LYS:107>  (187) 
0

$$$$
CSSS00121605657
     RDKit          3D

 42 42  0  0  0  0  0  0  0  0999 V2000
   -8.8616    5.4330   -9.6756 C   0  0  0  0  0  0  0  0  0  0  0  0
   -9.4540    4.1990  -10.3556 C   0  0  0  0  0  0  0  0  0  0  0  0
   -9.1297    4.1369  -11.8557 C   0  0  0  0  0  0  0  0  0  0  0  0
   -9.8815    5.1997  -12.6668 C   0  0  0  0  0  0  0  0  0  0  0  0
   -9.6764    4.9960  -14.0634 O   0  0  0  0  0  0  0  0  0  0  0  0
   -8.4867    5.3253  -14.7259 C   0  0  0  0  0  0  0  0  0  0  0  0
   -7.5467    5.8860  -14.0973 O   0  0  0  0  0  0  0  0  0  0  0  0
   -8.3377    5.0197  -16.1660 C   0  0  0  0  0  0  0  0  0  0  0  0
   -9.3824    4.3966  -16.8694 C   0  0  0  0  0  0  0  0  0  0  0  0
   -9.2475    4.1139  -18.2303 C   0  0  0  0  0  0  0  0  0  0  0  0
   -8.0683    4.4394  -18.9031 C   0  0  0  0  0  0  0  0  0  0  0  0
   -7.0025    5.0421  -18.2134 C   0  0  0  0  0  0  0  0  0  0  0  0
   -5.7863    5.4088  -18.8879 N   0  0  0  0  0  0  0  0  0  0  0  0
   -5.1963    4.6324  -19.9472 C   0  0  0  0  0  0  0  0  0  0  0  0
   -5.5993    3.4582  -20.1659 O   0  0  0  0  0  0  0  0  0  0  0  0
   -4.1342    5.1586  -20.7592 N   0  0  0  0  0  0  0  0  0  0  0  0
   -3.5153    6.4690  -20.5608 C   0  0  0  0  0  0  0  0  0  0  0  0
   -2.4814    6.4263  -19.4280 C   0  0  0  0  0  0  0  0  0  0  0  0
   -1.2847    5.5449  -19.7805 C   0  0  0  0  0  0  0  0  0  0  0  0
   -7.1524    5.3458  -16.8511 C   0  0  0  0  0  0  0  0  0  0  0  0
   -7.7679    5.4913   -9.8603 H   0  0  0  0  0  0  0  0  0  0  0  0
   -9.3494    6.3582  -10.0459 H   0  0  0  0  0  0  0  0  0  0  0  0
   -9.0316    5.3675   -8.5803 H   0  0  0  0  0  0  0  0  0  0  0  0
   -9.0300    3.2950   -9.8672 H   0  0  0  0  0  0  0  0  0  0  0  0
  -10.5546    4.1797  -10.2001 H   0  0  0  0  0  0  0  0  0  0  0  0
   -8.0341    4.2444  -12.0080 H   0  0  0  0  0  0  0  0  0  0  0  0
   -9.4237    3.1339  -12.2345 H   0  0  0  0  0  0  0  0  0  0  0  0
   -9.5549    6.2233  -12.3844 H   0  0  0  0  0  0  0  0  0  0  0  0
  -10.9698    5.1156  -12.4612 H   0  0  0  0  0  0  0  0  0  0  0  0
  -10.3073    4.1338  -16.3715 H   0  0  0  0  0  0  0  0  0  0  0  0
  -10.0636    3.6479  -18.7676 H   0  0  0  0  0  0  0  0  0  0  0  0
   -8.0010    4.2422  -19.9646 H   0  0  0  0  0  0  0  0  0  0  0  0
   -5.2679    6.2336  -18.5155 H   0  0  0  0  0  0  0  0  0  0  0  0
   -3.8061    4.5847  -21.5688 H   0  0  0  0  0  0  0  0  0  0  0  0
   -3.0115    6.7821  -21.5013 H   0  0  0  0  0  0  0  0  0  0  0  0
   -4.2936    7.2321  -20.3476 H   0  0  0  0  0  0  0  0  0  0  0  0
   -2.1190    7.4591  -19.2358 H   0  0  0  0  0  0  0  0  0  0  0  0
   -2.9458    6.0491  -18.4928 H   0  0  0  0  0  0  0  0  0  0  0  0
   -1.6079    4.4932  -19.9322 H   0  0  0  0  0  0  0  0  0  0  0  0
   -0.5483    5.5709  -18.9501 H   0  0  0  0  0  0  0  0  0  0  0  0
   -0.7905    5.9145  -20.7041 H   0  0  0  0  0  0  0  0  0  0  0  0
   -6.3355    5.8272  -16.3272 H   0  0  0  0  0  0  0  0  0  0  0  0
  1  2  1  0
  2  3  1  0
  3  4  1  0
  4  5  1  0
  5  6  1  0
  6  7  2  0
  6  8  1  0
  8  9  2  0
  9 10  1  0
 10 11  2  0
 11 12  1  0
 12 13  1  0
 13 14  1  0
 14 15  2  0
 14 16  1  0
 16 17  1  0
 17 18  1  0
 18 19  1  0
 12 20  2  0
 20  8  1  0
  1 21  1  0
  1 22  1  0
  1 23  1  0
  2 24  1  0
  2 25  1  0
  3 26  1  0
  3 27  1  0
  4 28  1  0
  4 29  1  0
  9 30  1  0
 10 31  1  0
 11 32  1  0
 13 33  1  0
 16 34  1  0
 17 35  1  0
 17 36  1  0
 18 37  1  0
 18 38  1  0
 19 39  1  0
 19 40  1  0
 19 41  1  0
 20 42  1  0
A    1
 C1 
A    2
 C2 
A    3
 C3 
A    4
 C4 
A    5
 O1 
A    6
 C5 
A    7
 O2 
A    8
 C6 
A    9
 C7 
A   10
 C8 
A   11
 C9 
A   12
 C10
A   13
 N1 
A   14
 C11
A   15
 O3 
A   16
 N2 
A   17
 C12
A   18
 C13
A   19
 C14
A   20
 C15
A   21
 H1 
A   22
 H2 
A   23
 H3 
A   24
 H4 
A   25
 H5 
A   26
 H6 
A   27
 H7 
A   28
 H8 
A   29
 H9 
A   30
 H10
A   31
 H11
A   32
 H12
A   33
 H13
A   34
 H14
A   35
 H15
A   36
 H16
A   37
 H17
A   38
 H18
A   39
 H19
A   40
 H20
A   41
 H21
A   42
 H22
M  END
>  <ref_pdb>  (188) 
x0051_0B

>  <ref_mols>  (188) 
x0443_0B,x1098_0B

>  <original SMILES>  (188) 
[H]c1c([H])c(C(=O)OC([H])([H])C([H])([H])C([H])([H])C([H])([H])[H])c([H])c(N([H])C(=O)N([H])C([H])([H])C([H])([H])C([H])([H])[H])c1[H]

>  <index>  (188) 
181

>  <∆∆G>  (188) 
-7.628281

>  <∆G_bound>  (188) 
-7.045885

>  <∆G_unbound>  (188) 
0.582396

>  <comRMSD>  (188) 
0.823203

>  <N_constrained_atoms>  (188) 
19.0

>  <N_unconstrained_atoms>  (188) 
5.0

>  <runtime>  (188) 
53.164015

>  <LE>  (188) 
0.317845

>  <percent_hybrid>  (188) 
19.0

>  <dist>  (188) 
12.0

>  <ecfp4>  (188) 
0.139535

>  <daylight>  (188) 
0.162698

>  <topodist>  (188) 
4.0

>  <mces>  (188) 
20.0

>  <tdn>  (188) 
2.0

>  <tup>  (188) 
0.0

>  <rdn>  (188) 
2.0

>  <rup>  (188) 
0.0

>  <ldn>  (188) 
0.0

>  <lup>  (188) 
0.0

>  <mut>  (188) 
5.0

>  <maj>  (188) 
5.0

>  <min>  (188) 
0.0

>  <hyb>  (188) 
3.0

>  <sub>  (188) 
2.0

>  <query_index>  (188) 
80.0

>  <max_hit_Tanimoto>  (188) 
0.206683

>  <largest_ring>  (188) 
6

>  <N_interactions_kept>  (188) 
4.0

>  <N_interactions_lost>  (188) 
2.0

>  <interaction_uniqueness_metric>  (188) 
0.276099

>  <ad_hoc_penalty>  (188) 
-24.987378

>  <N_rotatable_bonds>  (188) 
9

>  <N_HA>  (188) 
20

>  <cluster>  (188) 
6055

>  <N_interactions>  (188) 
10

>  <Enamine>  (188) 
1

>  <Mcule>  (188) 
0

>  <N_PAINS>  (188) 
0

>  <UFF_Gibbs>  (188) 
190.227216

>  <strain_per_HA>  (188) 
7.926134

>  <saltbridge:HIS:51>  (188) 
1

>  <pistack:HIS:51>  (188) 
0

>  <hydroph_interaction:HIS:51>  (188) 
1

>  <hbond:ALA:132>  (188) 
0

>  <hbond:SER:135>  (188) 
0

>  <hydroph_interaction:TYR:150>  (188) 
1

>  <pistack:TYR:161>  (188) 
0

>  <hydroph_interaction:TYR:161>  (188) 
3

>  <hydroph_interaction:ASP:83>  (188) 
0

>  <hbond:TYR:130>  (188) 
1

>  <hydroph_interaction:ALA:132>  (188) 
1

>  <hbond:HIS:51>  (188) 
0

>  <hbond:ASP:129>  (188) 
1

>  <hbond:TYR:150>  (188) 
0

>  <hbond:GLY:151>  (188) 
0

>  <hbond:TYR:161>  (188) 
0

>  <hydroph_interaction:TYR:130>  (188) 
0

>  <hydroph_interaction:PRO:131>  (188) 
0

>  <hydroph_interaction:ASP:129>  (188) 
0

>  <saltbridge:ASP:75>  (188) 
0

>  <saltbridge:ASP:83>  (188) 
0

>  <hydroph_interaction:ASN:152>  (188) 
0

>  <halogenbond:TYR:150>  (188) 
0

>  <hbond:ASP:83>  (188) 
0

>  <hydroph_interaction:VAL:155>  (188) 
1

>  <pication:TYR:161>  (188) 
0

>  <hbond:PRO:131>  (188) 
0

>  <hbond:LEU:128>  (188) 
0

>  <saltbridge:ASP:129>  (188) 
0

>  <hbond:THR:134>  (188) 
0

>  <pication:HIS:51>  (188) 
0

>  <hbond:SER:81>  (188) 
0

>  <hbond:GLY:159>  (188) 
0

>  <hydroph_interaction:PRO:101>  (188) 
0

>  <hydroph_interaction:THR:134>  (188) 
0

>  <hbond:GLY:82>  (188) 
0

>  <hydroph_interaction:GLU:104>  (188) 
0

>  <hydroph_interaction:VAL:36>  (188) 
0

>  <hydroph_interaction:MET:49>  (188) 
0

>  <halogenbond:GLU:104>  (188) 
0

>  <hydroph_interaction:LYS:107>  (188) 
0

$$$$
Z1083027216
     RDKit          3D

 46 49  0  0  0  0  0  0  0  0999 V2000
   -4.4388    6.7499  -20.9071 O   0  0  0  0  0  0  0  0  0  0  0  0
   -5.5940    7.2295  -21.0741 C   0  0  0  0  0  0  0  0  0  0  0  0
   -6.7012    6.6747  -20.3471 N   0  0  0  0  0  0  0  0  0  0  0  0
   -6.5574    5.4448  -19.5690 C   0  0  0  0  0  0  0  0  0  0  0  0
   -7.8727    5.0499  -18.9538 C   0  0  0  0  0  0  0  0  0  0  0  0
   -8.7947    4.2848  -19.6871 C   0  0  0  0  0  0  0  0  0  0  0  0
  -10.0330    3.9506  -19.1298 C   0  0  0  0  0  0  0  0  0  0  0  0
  -10.3630    4.3868  -17.8436 C   0  0  0  0  0  0  0  0  0  0  0  0
   -9.4570    5.1622  -17.1144 C   0  0  0  0  0  0  0  0  0  0  0  0
   -8.2178    5.4988  -17.6682 C   0  0  0  0  0  0  0  0  0  0  0  0
   -5.7806    8.3666  -22.0077 C   0  0  0  0  0  0  0  0  0  0  0  0
   -7.0266    8.6132  -22.6144 C   0  0  0  0  0  0  0  0  0  0  0  0
   -7.1824    9.6813  -23.5021 C   0  0  0  0  0  0  0  0  0  0  0  0
   -6.0951   10.5056  -23.8101 C   0  0  0  0  0  0  0  0  0  0  0  0
   -6.2947   11.8586  -24.9748 S   0  0  0  0  0  0  0  0  0  0  0  0
   -5.7439   10.9030  -26.4314 C   0  0  0  0  0  0  0  0  0  0  0  0
   -6.7196    9.8160  -26.7528 C   0  0  0  0  0  0  0  0  0  0  0  0
   -6.4662    8.5020  -26.5096 N   0  0  0  0  0  0  0  0  0  0  0  0
   -7.6194    7.9087  -26.8652 C   0  0  0  0  0  0  0  0  0  0  0  0
   -7.9334    6.5531  -26.8072 C   0  0  0  0  0  0  0  0  0  0  0  0
   -9.2238    6.1632  -27.2148 C   0  0  0  0  0  0  0  0  0  0  0  0
  -10.1563    7.1286  -27.6609 C   0  0  0  0  0  0  0  0  0  0  0  0
   -9.8061    8.4916  -27.7028 C   0  0  0  0  0  0  0  0  0  0  0  0
   -8.5198    8.8374  -27.2954 C   0  0  0  0  0  0  0  0  0  0  0  0
   -7.9664   10.0539  -27.2298 N   0  0  0  0  0  0  0  0  0  0  0  0
   -4.8533   10.2695  -23.2130 C   0  0  0  0  0  0  0  0  0  0  0  0
   -4.6941    9.2039  -22.3223 C   0  0  0  0  0  0  0  0  0  0  0  0
   -7.6122    7.1865  -20.3299 H   0  0  0  0  0  0  0  0  0  0  0  0
   -5.7936    5.5955  -18.7752 H   0  0  0  0  0  0  0  0  0  0  0  0
   -6.1962    4.6288  -20.2325 H   0  0  0  0  0  0  0  0  0  0  0  0
   -8.5550    3.9497  -20.6888 H   0  0  0  0  0  0  0  0  0  0  0  0
  -10.7384    3.3568  -19.6967 H   0  0  0  0  0  0  0  0  0  0  0  0
  -11.3223    4.1285  -17.4142 H   0  0  0  0  0  0  0  0  0  0  0  0
   -9.7166    5.5057  -16.1213 H   0  0  0  0  0  0  0  0  0  0  0  0
   -7.5291    6.1089  -17.0969 H   0  0  0  0  0  0  0  0  0  0  0  0
   -7.8761    7.9698  -22.4298 H   0  0  0  0  0  0  0  0  0  0  0  0
   -8.1449    9.8545  -23.9669 H   0  0  0  0  0  0  0  0  0  0  0  0
   -5.6701   11.5907  -27.2992 H   0  0  0  0  0  0  0  0  0  0  0  0
   -4.7361   10.4744  -26.2444 H   0  0  0  0  0  0  0  0  0  0  0  0
   -7.2131    5.8248  -26.4576 H   0  0  0  0  0  0  0  0  0  0  0  0
   -9.5043    5.1185  -27.1837 H   0  0  0  0  0  0  0  0  0  0  0  0
  -11.1461    6.8183  -27.9693 H   0  0  0  0  0  0  0  0  0  0  0  0
  -10.5111    9.2417  -28.0369 H   0  0  0  0  0  0  0  0  0  0  0  0
   -8.4016   10.9733  -27.4668 H   0  0  0  0  0  0  0  0  0  0  0  0
   -4.0081   10.9047  -23.4456 H   0  0  0  0  0  0  0  0  0  0  0  0
   -3.7222    9.0389  -21.8739 H   0  0  0  0  0  0  0  0  0  0  0  0
  1  2  2  0
  2  3  1  0
  3  4  1  0
  4  5  1  0
  5  6  2  0
  6  7  1  0
  7  8  2  0
  8  9  1  0
  9 10  2  0
  2 11  1  0
 11 12  2  0
 12 13  1  0
 13 14  2  0
 14 15  1  0
 15 16  1  0
 16 17  1  0
 17 18  2  0
 18 19  1  0
 19 20  2  0
 20 21  1  0
 21 22  2  0
 22 23  1  0
 23 24  2  0
 24 25  1  0
 14 26  1  0
 26 27  2  0
 10  5  1  0
 27 11  1  0
 25 17  1  0
 24 19  1  0
  3 28  1  0
  4 29  1  0
  4 30  1  0
  6 31  1  0
  7 32  1  0
  8 33  1  0
  9 34  1  0
 10 35  1  0
 12 36  1  0
 13 37  1  0
 16 38  1  0
 16 39  1  0
 20 40  1  0
 21 41  1  0
 22 42  1  0
 23 43  1  0
 25 44  1  0
 26 45  1  0
 27 46  1  0
A    1
 O1 
A    2
 C1 
A    3
 N1 
A    4
 C2 
A    5
 C3 
A    6
 C4 
A    7
 C5 
A    8
 C6 
A    9
 C7 
A   10
 C8 
A   11
 C9 
A   12
 C10
A   13
 C11
A   14
 C12
A   15
 S1 
A   16
 C13
A   17
 C14
A   18
 N2 
A   19
 C15
A   20
 C16
A   21
 C17
A   22
 C18
A   23
 C19
A   24
 C20
A   25
 N3 
A   26
 C21
A   27
 C22
A   28
 H1 
A   29
 H2 
A   30
 H3 
A   31
 H4 
A   32
 H5 
A   33
 H6 
A   34
 H7 
A   35
 H8 
A   36
 H9 
A   37
 H10
A   38
 H11
A   39
 H12
A   40
 H13
A   41
 H14
A   42
 H15
A   43
 H16
A   44
 H17
A   45
 H18
A   46
 H19
M  END
>  <ref_pdb>  (189) 
x0051_0B

>  <ref_mols>  (189) 
x0589_0B,x0846_1B

>  <original SMILES>  (189) 
[H]c1c([H])c([H])c(C([H])([H])N([H])C(=O)c2c([H])c([H])c(SC([H])([H])c3nc4c([H])c([H])c([H])c([H])c4n3[H])c([H])c2[H])c([H])c1[H]

>  <index>  (189) 
288

>  <∆∆G>  (189) 
-9.667995

>  <∆G_bound>  (189) 
-8.972165

>  <∆G_unbound>  (189) 
0.69583

>  <comRMSD>  (189) 
0.612236

>  <N_constrained_atoms>  (189) 
26.0

>  <N_unconstrained_atoms>  (189) 
2.0

>  <runtime>  (189) 
37.391982

>  <LE>  (189) 
0.345286

>  <percent_hybrid>  (189) 
31.0

>  <dist>  (189) 
7.0

>  <ecfp4>  (189) 
0.297297

>  <daylight>  (189) 
0.32967

>  <topodist>  (189) 
3.0

>  <mces>  (189) 
29.0

>  <tdn>  (189) 
2.0

>  <tup>  (189) 
1.0

>  <rdn>  (189) 
0.0

>  <rup>  (189) 
0.0

>  <ldn>  (189) 
0.0

>  <lup>  (189) 
0.0

>  <mut>  (189) 
3.0

>  <maj>  (189) 
3.0

>  <min>  (189) 
0.0

>  <hyb>  (189) 
1.0

>  <sub>  (189) 
2.0

>  <query_index>  (189) 
340.0

>  <max_hit_Tanimoto>  (189) 
0.335821

>  <largest_ring>  (189) 
6

>  <N_interactions_kept>  (189) 
0.0

>  <N_interactions_lost>  (189) 
2.0

>  <interaction_uniqueness_metric>  (189) 
0.197174

>  <ad_hoc_penalty>  (189) 
-24.964677

>  <N_rotatable_bonds>  (189) 
6

>  <N_HA>  (189) 
27

>  <cluster>  (189) 
5954

>  <N_interactions>  (189) 
6

>  <Enamine>  (189) 
1

>  <Mcule>  (189) 
0

>  <N_PAINS>  (189) 
0

>  <UFF_Gibbs>  (189) 
126.520809

>  <strain_per_HA>  (189) 
4.5186

>  <saltbridge:HIS:51>  (189) 
0

>  <pistack:HIS:51>  (189) 
0

>  <hydroph_interaction:HIS:51>  (189) 
0

>  <hbond:ALA:132>  (189) 
0

>  <hbond:SER:135>  (189) 
0

>  <hydroph_interaction:TYR:150>  (189) 
1

>  <pistack:TYR:161>  (189) 
1

>  <hydroph_interaction:TYR:161>  (189) 
0

>  <hydroph_interaction:ASP:83>  (189) 
0

>  <hbond:TYR:130>  (189) 
1

>  <hydroph_interaction:ALA:132>  (189) 
0

>  <hbond:HIS:51>  (189) 
0

>  <hbond:ASP:129>  (189) 
1

>  <hbond:TYR:150>  (189) 
0

>  <hbond:GLY:151>  (189) 
0

>  <hbond:TYR:161>  (189) 
0

>  <hydroph_interaction:TYR:130>  (189) 
1

>  <hydroph_interaction:PRO:131>  (189) 
1

>  <hydroph_interaction:ASP:129>  (189) 
0

>  <saltbridge:ASP:75>  (189) 
0

>  <saltbridge:ASP:83>  (189) 
0

>  <hydroph_interaction:ASN:152>  (189) 
0

>  <halogenbond:TYR:150>  (189) 
0

>  <hbond:ASP:83>  (189) 
0

>  <hydroph_interaction:VAL:155>  (189) 
0

>  <pication:TYR:161>  (189) 
0

>  <hbond:PRO:131>  (189) 
0

>  <hbond:LEU:128>  (189) 
0

>  <saltbridge:ASP:129>  (189) 
0

>  <hbond:THR:134>  (189) 
0

>  <pication:HIS:51>  (189) 
0

>  <hbond:SER:81>  (189) 
0

>  <hbond:GLY:159>  (189) 
0

>  <hydroph_interaction:PRO:101>  (189) 
0

>  <hydroph_interaction:THR:134>  (189) 
0

>  <hbond:GLY:82>  (189) 
0

>  <hydroph_interaction:GLU:104>  (189) 
0

>  <hydroph_interaction:VAL:36>  (189) 
0

>  <hydroph_interaction:MET:49>  (189) 
0

>  <halogenbond:GLU:104>  (189) 
0

>  <hydroph_interaction:LYS:107>  (189) 
0

$$$$
ODCUCTGOMJYTBO-UHFFFAOYSA-N
     RDKit          3D

 39 41  0  0  0  0  0  0  0  0999 V2000
   -8.6624    6.2040  -12.7975 C   0  0  0  0  0  0  0  0  0  0  0  0
   -7.8585    5.3195  -13.5899 N   0  0  0  0  0  0  0  0  0  0  0  0
   -8.0158    5.1774  -15.0146 C   0  0  0  0  0  0  0  0  0  0  0  0
   -6.8966    4.9302  -15.8444 C   0  0  0  0  0  0  0  0  0  0  0  0
   -5.5066    4.8439  -15.2740 C   0  0  0  0  0  0  0  0  0  0  0  0
   -7.0844    4.7617  -17.2262 C   0  0  0  0  0  0  0  0  0  0  0  0
   -8.3610    4.8376  -17.7847 C   0  0  0  0  0  0  0  0  0  0  0  0
   -9.4766    5.0599  -16.9691 C   0  0  0  0  0  0  0  0  0  0  0  0
  -10.8455    5.1675  -17.5738 C   0  0  0  0  0  0  0  0  0  0  0  0
   -9.2985    5.2388  -15.5904 C   0  0  0  0  0  0  0  0  0  0  0  0
   -9.1753    7.2285  -13.3239 O   0  0  0  0  0  0  0  0  0  0  0  0
   -8.8444    5.9708  -11.3544 C   0  0  0  0  0  0  0  0  0  0  0  0
   -8.8917    4.7718  -10.6602 C   0  0  0  0  0  0  0  0  0  0  0  0
   -9.1995    5.0460   -9.3780 N   0  0  0  0  0  0  0  0  0  0  0  0
   -9.3501    4.0561   -8.3136 C   0  0  0  0  0  0  0  0  0  0  0  0
   -9.7057    2.6832   -8.9024 C   0  0  0  0  0  0  0  0  0  0  0  0
   -8.7775    2.3405  -10.0775 C   0  0  0  0  0  0  0  0  0  0  0  0
   -8.8978    3.3715  -11.2114 C   0  0  0  0  0  0  0  0  0  0  0  0
   -9.3154    6.3523   -9.2037 N   0  0  0  0  0  0  0  0  0  0  0  0
   -9.1138    6.9395  -10.4006 C   0  0  0  0  0  0  0  0  0  0  0  0
   -7.0633    4.8383  -13.1154 H   0  0  0  0  0  0  0  0  0  0  0  0
   -5.3060    5.7229  -14.6257 H   0  0  0  0  0  0  0  0  0  0  0  0
   -5.4057    3.9132  -14.6773 H   0  0  0  0  0  0  0  0  0  0  0  0
   -4.7363    4.8313  -16.0743 H   0  0  0  0  0  0  0  0  0  0  0  0
   -6.2393    4.5757  -17.8776 H   0  0  0  0  0  0  0  0  0  0  0  0
   -8.4793    4.7163  -18.8545 H   0  0  0  0  0  0  0  0  0  0  0  0
  -11.6170    4.8019  -16.8630 H   0  0  0  0  0  0  0  0  0  0  0  0
  -10.9162    4.5571  -18.4993 H   0  0  0  0  0  0  0  0  0  0  0  0
  -11.0563    6.2284  -17.8229 H   0  0  0  0  0  0  0  0  0  0  0  0
  -10.1650    5.4034  -14.9619 H   0  0  0  0  0  0  0  0  0  0  0  0
  -10.1503    4.3760   -7.6120 H   0  0  0  0  0  0  0  0  0  0  0  0
   -8.3952    3.9836   -7.7497 H   0  0  0  0  0  0  0  0  0  0  0  0
   -9.6104    1.9068   -8.1132 H   0  0  0  0  0  0  0  0  0  0  0  0
  -10.7606    2.6918   -9.2545 H   0  0  0  0  0  0  0  0  0  0  0  0
   -7.7256    2.3075   -9.7170 H   0  0  0  0  0  0  0  0  0  0  0  0
   -9.0344    1.3330  -10.4697 H   0  0  0  0  0  0  0  0  0  0  0  0
   -9.8510    3.2094  -11.7589 H   0  0  0  0  0  0  0  0  0  0  0  0
   -8.0566    3.2190  -11.9147 H   0  0  0  0  0  0  0  0  0  0  0  0
   -9.1721    8.0066  -10.5701 H   0  0  0  0  0  0  0  0  0  0  0  0
  1  2  1  0
  2  3  1  0
  3  4  2  0
  4  5  1  0
  4  6  1  0
  6  7  2  0
  7  8  1  0
  8  9  1  0
  8 10  2  0
  1 11  2  0
  1 12  1  0
 12 13  2  0
 13 14  1  0
 14 15  1  0
 15 16  1  0
 16 17  1  0
 17 18  1  0
 14 19  1  0
 19 20  2  0
  3 10  1  0
 20 12  1  0
 18 13  1  0
  2 21  1  0
  5 22  1  0
  5 23  1  0
  5 24  1  0
  6 25  1  0
  7 26  1  0
  9 27  1  0
  9 28  1  0
  9 29  1  0
 10 30  1  0
 15 31  1  0
 15 32  1  0
 16 33  1  0
 16 34  1  0
 17 35  1  0
 17 36  1  0
 18 37  1  0
 18 38  1  0
 20 39  1  0
A    1
 C1 
A    2
 N1 
A    3
 C2 
A    4
 C3 
A    5
 C4 
A    6
 C5 
A    7
 C6 
A    8
 C7 
A    9
 C8 
A   10
 C9 
A   11
 O1 
A   12
 C10
A   13
 C11
A   14
 N2 
A   15
 C12
A   16
 C13
A   17
 C14
A   18
 C15
A   19
 N3 
A   20
 C16
A   21
 H1 
A   22
 H2 
A   23
 H3 
A   24
 H4 
A   25
 H5 
A   26
 H6 
A   27
 H7 
A   28
 H8 
A   29
 H9 
A   30
 H10
A   31
 H11
A   32
 H12
A   33
 H13
A   34
 H14
A   35
 H15
A   36
 H16
A   37
 H17
A   38
 H18
A   39
 H19
M  END
>  <ref_pdb>  (190) 
x0051_0B

>  <ref_mols>  (190) 
x0553_0B,x0969_1B

>  <original SMILES>  (190) 
[H]c1nn2c(c1C(=O)N([H])c1c([H])c(C([H])([H])[H])c([H])c([H])c1C([H])([H])[H])C([H])([H])C([H])([H])C([H])([H])C2([H])[H]

>  <index>  (190) 
249

>  <∆∆G>  (190) 
-6.975497

>  <∆G_bound>  (190) 
-6.886459

>  <∆G_unbound>  (190) 
0.089038

>  <comRMSD>  (190) 
0.804472

>  <N_constrained_atoms>  (190) 
19.0

>  <N_unconstrained_atoms>  (190) 
2.0

>  <runtime>  (190) 
46.530649

>  <LE>  (190) 
0.332167

>  <percent_hybrid>  (190) 
48.0

>  <dist>  (190) 
7.0

>  <ecfp4>  (190) 
0.298701

>  <daylight>  (190) 
0.261745

>  <topodist>  (190) 
3.0

>  <mces>  (190) 
21.0

>  <tdn>  (190) 
1.0

>  <tup>  (190) 
1.0

>  <rdn>  (190) 
0.0

>  <rup>  (190) 
0.0

>  <ldn>  (190) 
1.0

>  <lup>  (190) 
0.0

>  <mut>  (190) 
2.0

>  <maj>  (190) 
2.0

>  <min>  (190) 
0.0

>  <hyb>  (190) 
2.0

>  <sub>  (190) 
0.0

>  <query_index>  (190) 
375.0

>  <max_hit_Tanimoto>  (190) 
0.327853

>  <largest_ring>  (190) 
6

>  <N_interactions_kept>  (190) 
1.0

>  <N_interactions_lost>  (190) 
1.5

>  <interaction_uniqueness_metric>  (190) 
0.14598

>  <ad_hoc_penalty>  (190) 
-24.894325

>  <N_rotatable_bonds>  (190) 
4

>  <N_HA>  (190) 
20

>  <cluster>  (190) 
5991

>  <N_interactions>  (190) 
6

>  <Enamine>  (190) 
0

>  <Mcule>  (190) 
1

>  <N_PAINS>  (190) 
0

>  <UFF_Gibbs>  (190) 
106.671844

>  <strain_per_HA>  (190) 
5.079612

>  <saltbridge:HIS:51>  (190) 
0

>  <pistack:HIS:51>  (190) 
1

>  <hydroph_interaction:HIS:51>  (190) 
1

>  <hbond:ALA:132>  (190) 
0

>  <hbond:SER:135>  (190) 
0

>  <hydroph_interaction:TYR:150>  (190) 
1

>  <pistack:TYR:161>  (190) 
1

>  <hydroph_interaction:TYR:161>  (190) 
1

>  <hydroph_interaction:ASP:83>  (190) 
0

>  <hbond:TYR:130>  (190) 
0

>  <hydroph_interaction:ALA:132>  (190) 
0

>  <hbond:HIS:51>  (190) 
0

>  <hbond:ASP:129>  (190) 
0

>  <hbond:TYR:150>  (190) 
0

>  <hbond:GLY:151>  (190) 
0

>  <hbond:TYR:161>  (190) 
1

>  <hydroph_interaction:TYR:130>  (190) 
0

>  <hydroph_interaction:PRO:131>  (190) 
0

>  <hydroph_interaction:ASP:129>  (190) 
0

>  <saltbridge:ASP:75>  (190) 
0

>  <saltbridge:ASP:83>  (190) 
0

>  <hydroph_interaction:ASN:152>  (190) 
0

>  <halogenbond:TYR:150>  (190) 
0

>  <hbond:ASP:83>  (190) 
0

>  <hydroph_interaction:VAL:155>  (190) 
0

>  <pication:TYR:161>  (190) 
0

>  <hbond:PRO:131>  (190) 
0

>  <hbond:LEU:128>  (190) 
0

>  <saltbridge:ASP:129>  (190) 
0

>  <hbond:THR:134>  (190) 
0

>  <pication:HIS:51>  (190) 
0

>  <hbond:SER:81>  (190) 
0

>  <hbond:GLY:159>  (190) 
0

>  <hydroph_interaction:PRO:101>  (190) 
0

>  <hydroph_interaction:THR:134>  (190) 
0

>  <hbond:GLY:82>  (190) 
0

>  <hydroph_interaction:GLU:104>  (190) 
0

>  <hydroph_interaction:VAL:36>  (190) 
0

>  <hydroph_interaction:MET:49>  (190) 
0

>  <halogenbond:GLU:104>  (190) 
0

>  <hydroph_interaction:LYS:107>  (190) 
0

$$$$
CSSB00012224324
     RDKit          3D

 38 38  0  0  0  0  0  0  0  0999 V2000
   -8.2222    6.2499  -14.2118 C   0  0  0  0  0  0  0  0  0  0  0  0
   -8.4099    4.7354  -14.3629 C   0  0  0  0  0  0  0  0  0  0  0  0
   -7.2972    3.9667  -13.6406 C   0  0  0  0  0  0  0  0  0  0  0  0
   -8.4894    4.3361  -15.8247 C   0  0  0  0  0  0  0  0  0  0  0  0
   -9.6436    3.7037  -16.3176 C   0  0  0  0  0  0  0  0  0  0  0  0
   -9.7196    3.3140  -17.6562 C   0  0  0  0  0  0  0  0  0  0  0  0
   -8.6510    3.5582  -18.5206 C   0  0  0  0  0  0  0  0  0  0  0  0
   -7.4988    4.2085  -18.0584 C   0  0  0  0  0  0  0  0  0  0  0  0
   -6.4045    4.4306  -18.9644 N   0  0  0  0  0  0  0  0  0  0  0  0
   -5.5329    5.5678  -18.9131 C   0  0  0  0  0  0  0  0  0  0  0  0
   -5.8205    6.5580  -18.1876 O   0  0  0  0  0  0  0  0  0  0  0  0
   -4.3816    5.5724  -19.7148 O   0  0  0  0  0  0  0  0  0  0  0  0
   -3.4026    6.6198  -19.7909 C   0  0  0  0  0  0  0  0  0  0  0  0
   -2.3246    6.1625  -20.7854 C   0  0  0  0  0  0  0  0  0  0  0  0
   -4.0401    7.9219  -20.3127 C   0  0  0  0  0  0  0  0  0  0  0  0
   -2.7456    6.8496  -18.4162 C   0  0  0  0  0  0  0  0  0  0  0  0
   -7.4147    4.5763  -16.7032 C   0  0  0  0  0  0  0  0  0  0  0  0
   -7.2436    6.5767  -14.6229 H   0  0  0  0  0  0  0  0  0  0  0  0
   -8.2653    6.5326  -13.1383 H   0  0  0  0  0  0  0  0  0  0  0  0
   -9.0342    6.7890  -14.7453 H   0  0  0  0  0  0  0  0  0  0  0  0
   -9.3662    4.4758  -13.8559 H   0  0  0  0  0  0  0  0  0  0  0  0
   -7.4500    2.8729  -13.7616 H   0  0  0  0  0  0  0  0  0  0  0  0
   -7.3163    4.2015  -12.5549 H   0  0  0  0  0  0  0  0  0  0  0  0
   -6.2973    4.2364  -14.0419 H   0  0  0  0  0  0  0  0  0  0  0  0
  -10.4840    3.5035  -15.6648 H   0  0  0  0  0  0  0  0  0  0  0  0
  -10.6094    2.8200  -18.0247 H   0  0  0  0  0  0  0  0  0  0  0  0
   -8.7241    3.2500  -19.5561 H   0  0  0  0  0  0  0  0  0  0  0  0
   -6.2804    3.7688  -19.7635 H   0  0  0  0  0  0  0  0  0  0  0  0
   -1.8569    5.2160  -20.4384 H   0  0  0  0  0  0  0  0  0  0  0  0
   -2.7755    5.9777  -21.7843 H   0  0  0  0  0  0  0  0  0  0  0  0
   -1.5289    6.9313  -20.8933 H   0  0  0  0  0  0  0  0  0  0  0  0
   -4.5789    7.7297  -21.2651 H   0  0  0  0  0  0  0  0  0  0  0  0
   -3.2602    8.6925  -20.4958 H   0  0  0  0  0  0  0  0  0  0  0  0
   -4.7613    8.3415  -19.5823 H   0  0  0  0  0  0  0  0  0  0  0  0
   -1.9021    7.5683  -18.5016 H   0  0  0  0  0  0  0  0  0  0  0  0
   -2.3549    5.8907  -18.0132 H   0  0  0  0  0  0  0  0  0  0  0  0
   -3.4690    7.2655  -17.6858 H   0  0  0  0  0  0  0  0  0  0  0  0
   -6.5068    5.0251  -16.3244 H   0  0  0  0  0  0  0  0  0  0  0  0
  1  2  1  0
  2  3  1  0
  2  4  1  0
  4  5  2  0
  5  6  1  0
  6  7  2  0
  7  8  1  0
  8  9  1  0
  9 10  1  0
 10 11  2  0
 10 12  1  0
 12 13  1  0
 13 14  1  0
 13 15  1  0
 13 16  1  0
  8 17  2  0
 17  4  1  0
  1 18  1  0
  1 19  1  0
  1 20  1  0
  2 21  1  0
  3 22  1  0
  3 23  1  0
  3 24  1  0
  5 25  1  0
  6 26  1  0
  7 27  1  0
  9 28  1  0
 14 29  1  0
 14 30  1  0
 14 31  1  0
 15 32  1  0
 15 33  1  0
 15 34  1  0
 16 35  1  0
 16 36  1  0
 16 37  1  0
 17 38  1  0
A    1
 C1 
A    2
 C2 
A    3
 C3 
A    4
 C4 
A    5
 C5 
A    6
 C6 
A    7
 C7 
A    8
 C8 
A    9
 N1 
A   10
 C9 
A   11
 O1 
A   12
 O2 
A   13
 C10
A   14
 C11
A   15
 C12
A   16
 C13
A   17
 C14
A   18
 H1 
A   19
 H2 
A   20
 H3 
A   21
 H4 
A   22
 H5 
A   23
 H6 
A   24
 H7 
A   25
 H8 
A   26
 H9 
A   27
 H10
A   28
 H11
A   29
 H12
A   30
 H13
A   31
 H14
A   32
 H15
A   33
 H16
A   34
 H17
A   35
 H18
A   36
 H19
A   37
 H20
A   38
 H21
M  END
>  <ref_pdb>  (191) 
x0051_0B

>  <ref_mols>  (191) 
x0089_0B,x0951_0B

>  <original SMILES>  (191) 
[H]c1c([H])c(N([H])C(=O)OC(C([H])([H])[H])(C([H])([H])[H])C([H])([H])[H])c([H])c(C([H])(C([H])([H])[H])C([H])([H])[H])c1[H]

>  <index>  (191) 
40

>  <∆∆G>  (191) 
-8.666693

>  <∆G_bound>  (191) 
-8.587464

>  <∆G_unbound>  (191) 
0.079229

>  <comRMSD>  (191) 
0.774559

>  <N_constrained_atoms>  (191) 
18.0

>  <N_unconstrained_atoms>  (191) 
1.0

>  <runtime>  (191) 
75.085996

>  <LE>  (191) 
0.456142

>  <percent_hybrid>  (191) 
42.0

>  <dist>  (191) 
8.0

>  <ecfp4>  (191) 
0.225806

>  <daylight>  (191) 
0.336207

>  <topodist>  (191) 
4.0

>  <mces>  (191) 
16.0

>  <tdn>  (191) 
3.0

>  <tup>  (191) 
1.0

>  <rdn>  (191) 
0.0

>  <rup>  (191) 
0.0

>  <ldn>  (191) 
0.0

>  <lup>  (191) 
0.0

>  <mut>  (191) 
3.0

>  <maj>  (191) 
3.0

>  <min>  (191) 
0.0

>  <hyb>  (191) 
1.0

>  <sub>  (191) 
2.0

>  <query_index>  (191) 
292.0

>  <max_hit_Tanimoto>  (191) 
0.120075

>  <largest_ring>  (191) 
6

>  <N_interactions_kept>  (191) 
2.0

>  <N_interactions_lost>  (191) 
1.5

>  <interaction_uniqueness_metric>  (191) 
0.091834

>  <ad_hoc_penalty>  (191) 
-24.883446

>  <N_rotatable_bonds>  (191) 
4

>  <N_HA>  (191) 
17

>  <cluster>  (191) 
6179

>  <N_interactions>  (191) 
7

>  <Enamine>  (191) 
1

>  <Mcule>  (191) 
0

>  <N_PAINS>  (191) 
0

>  <UFF_Gibbs>  (191) 
269.294442

>  <strain_per_HA>  (191) 
14.173392

>  <saltbridge:HIS:51>  (191) 
0

>  <pistack:HIS:51>  (191) 
0

>  <hydroph_interaction:HIS:51>  (191) 
0

>  <hbond:ALA:132>  (191) 
0

>  <hbond:SER:135>  (191) 
0

>  <hydroph_interaction:TYR:150>  (191) 
1

>  <pistack:TYR:161>  (191) 
0

>  <hydroph_interaction:TYR:161>  (191) 
4

>  <hydroph_interaction:ASP:83>  (191) 
0

>  <hbond:TYR:130>  (191) 
1

>  <hydroph_interaction:ALA:132>  (191) 
0

>  <hbond:HIS:51>  (191) 
0

>  <hbond:ASP:129>  (191) 
0

>  <hbond:TYR:150>  (191) 
0

>  <hbond:GLY:151>  (191) 
0

>  <hbond:TYR:161>  (191) 
0

>  <hydroph_interaction:TYR:130>  (191) 
0

>  <hydroph_interaction:PRO:131>  (191) 
0

>  <hydroph_interaction:ASP:129>  (191) 
0

>  <saltbridge:ASP:75>  (191) 
0

>  <saltbridge:ASP:83>  (191) 
0

>  <hydroph_interaction:ASN:152>  (191) 
0

>  <halogenbond:TYR:150>  (191) 
0

>  <hbond:ASP:83>  (191) 
0

>  <hydroph_interaction:VAL:155>  (191) 
1

>  <pication:TYR:161>  (191) 
0

>  <hbond:PRO:131>  (191) 
0

>  <hbond:LEU:128>  (191) 
0

>  <saltbridge:ASP:129>  (191) 
0

>  <hbond:THR:134>  (191) 
0

>  <pication:HIS:51>  (191) 
0

>  <hbond:SER:81>  (191) 
0

>  <hbond:GLY:159>  (191) 
0

>  <hydroph_interaction:PRO:101>  (191) 
0

>  <hydroph_interaction:THR:134>  (191) 
0

>  <hbond:GLY:82>  (191) 
0

>  <hydroph_interaction:GLU:104>  (191) 
0

>  <hydroph_interaction:VAL:36>  (191) 
0

>  <hydroph_interaction:MET:49>  (191) 
0

>  <halogenbond:GLU:104>  (191) 
0

>  <hydroph_interaction:LYS:107>  (191) 
0

$$$$
MCULE-1170735799
     RDKit          3D

 34 34  0  0  0  0  0  0  0  0999 V2000
   -6.0404    6.6486  -18.7847 N   0  0  0  0  0  0  0  0  0  0  0  0
   -5.2746    7.2098  -17.6662 C   0  0  0  0  0  0  0  0  0  0  0  0
   -5.5119    6.7361  -20.1596 C   0  0  0  0  0  0  0  0  0  0  0  0
   -4.8753    5.4040  -20.6503 C   0  0  0  0  0  0  0  0  0  0  0  0
   -3.7709    4.9391  -19.6796 C   0  0  0  0  0  0  0  0  0  0  0  0
   -5.9407    4.2962  -20.7858 C   0  0  0  0  0  0  0  0  0  0  0  0
   -4.2448    5.6473  -22.0375 C   0  0  0  0  0  0  0  0  0  0  0  0
   -7.3591    6.1268  -18.5245 C   0  0  0  0  0  0  0  0  0  0  0  0
   -8.4738    6.6034  -19.2360 C   0  0  0  0  0  0  0  0  0  0  0  0
   -9.7478    6.0908  -18.9785 C   0  0  0  0  0  0  0  0  0  0  0  0
   -9.9243    5.1031  -18.0071 C   0  0  0  0  0  0  0  0  0  0  0  0
   -8.8251    4.6244  -17.2823 C   0  0  0  0  0  0  0  0  0  0  0  0
   -9.0051    3.6121  -16.2883 N   0  0  0  0  0  0  0  0  0  0  0  0
   -7.5470    5.1408  -17.5398 C   0  0  0  0  0  0  0  0  0  0  0  0
   -5.0296    6.4148  -16.9325 H   0  0  0  0  0  0  0  0  0  0  0  0
   -5.8711    7.9997  -17.1629 H   0  0  0  0  0  0  0  0  0  0  0  0
   -4.3187    7.6583  -18.0094 H   0  0  0  0  0  0  0  0  0  0  0  0
   -6.3120    7.0496  -20.8622 H   0  0  0  0  0  0  0  0  0  0  0  0
   -4.7485    7.5434  -20.2154 H   0  0  0  0  0  0  0  0  0  0  0  0
   -3.0099    5.7372  -19.5420 H   0  0  0  0  0  0  0  0  0  0  0  0
   -3.2608    4.0330  -20.0725 H   0  0  0  0  0  0  0  0  0  0  0  0
   -4.1969    4.6833  -18.6863 H   0  0  0  0  0  0  0  0  0  0  0  0
   -6.3191    3.9778  -19.7938 H   0  0  0  0  0  0  0  0  0  0  0  0
   -5.5091    3.3964  -21.2752 H   0  0  0  0  0  0  0  0  0  0  0  0
   -6.7984    4.6484  -21.3985 H   0  0  0  0  0  0  0  0  0  0  0  0
   -3.4585    6.4310  -21.9807 H   0  0  0  0  0  0  0  0  0  0  0  0
   -3.7765    4.7181  -22.4286 H   0  0  0  0  0  0  0  0  0  0  0  0
   -5.0167    5.9797  -22.7652 H   0  0  0  0  0  0  0  0  0  0  0  0
   -8.3663    7.3870  -19.9735 H   0  0  0  0  0  0  0  0  0  0  0  0
  -10.6014    6.4643  -19.5293 H   0  0  0  0  0  0  0  0  0  0  0  0
  -10.9165    4.7134  -17.8171 H   0  0  0  0  0  0  0  0  0  0  0  0
   -8.1923    3.2473  -15.7432 H   0  0  0  0  0  0  0  0  0  0  0  0
   -9.9526    3.2199  -16.0901 H   0  0  0  0  0  0  0  0  0  0  0  0
   -6.6973    4.7559  -16.9910 H   0  0  0  0  0  0  0  0  0  0  0  0
  1  2  1  0
  1  3  1  0
  3  4  1  0
  4  5  1  0
  4  6  1  0
  4  7  1  0
  1  8  1  0
  8  9  2  0
  9 10  1  0
 10 11  2  0
 11 12  1  0
 12 13  1  0
 12 14  2  0
 14  8  1  0
  2 15  1  0
  2 16  1  0
  2 17  1  0
  3 18  1  0
  3 19  1  0
  5 20  1  0
  5 21  1  0
  5 22  1  0
  6 23  1  0
  6 24  1  0
  6 25  1  0
  7 26  1  0
  7 27  1  0
  7 28  1  0
  9 29  1  0
 10 30  1  0
 11 31  1  0
 13 32  1  0
 13 33  1  0
 14 34  1  0
A    1
 N1 
A    2
 C1 
A    3
 C2 
A    4
 C3 
A    5
 C4 
A    6
 C5 
A    7
 C6 
A    8
 C7 
A    9
 C8 
A   10
 C9 
A   11
 C10
A   12
 C11
A   13
 N2 
A   14
 C12
A   15
 H1 
A   16
 H2 
A   17
 H3 
A   18
 H4 
A   19
 H5 
A   20
 H6 
A   21
 H7 
A   22
 H8 
A   23
 H9 
A   24
 H10
A   25
 H11
A   26
 H12
A   27
 H13
A   28
 H14
A   29
 H15
A   30
 H16
A   31
 H17
A   32
 H18
A   33
 H19
A   34
 H20
M  END
>  <ref_pdb>  (192) 
x0051_0B

>  <ref_mols>  (192) 
x0101_0B,x0490_0B

>  <original SMILES>  (192) 
[H]c1c([H])c(N([H])[H])c([H])c(N(C([H])([H])[H])C([H])([H])C(C([H])([H])[H])(C([H])([H])[H])C([H])([H])[H])c1[H]

>  <index>  (192) 
135

>  <∆∆G>  (192) 
-8.213341

>  <∆G_bound>  (192) 
-9.101706

>  <∆G_unbound>  (192) 
-0.888365

>  <comRMSD>  (192) 
0.753216

>  <N_constrained_atoms>  (192) 
19.0

>  <N_unconstrained_atoms>  (192) 
1.0

>  <runtime>  (192) 
51.498739

>  <LE>  (192) 
0.410667

>  <percent_hybrid>  (192) 
34.0

>  <dist>  (192) 
4.0

>  <ecfp4>  (192) 
0.232143

>  <daylight>  (192) 
0.392857

>  <topodist>  (192) 
3.0

>  <mces>  (192) 
14.0

>  <tdn>  (192) 
2.0

>  <tup>  (192) 
0.0

>  <rdn>  (192) 
0.0

>  <rup>  (192) 
0.0

>  <ldn>  (192) 
1.0

>  <lup>  (192) 
0.0

>  <mut>  (192) 
1.0

>  <maj>  (192) 
1.0

>  <min>  (192) 
0.0

>  <hyb>  (192) 
0.0

>  <sub>  (192) 
2.0

>  <query_index>  (192) 
245.0

>  <max_hit_Tanimoto>  (192) 
0.097308

>  <largest_ring>  (192) 
6

>  <N_interactions_kept>  (192) 
3.0

>  <N_interactions_lost>  (192) 
1.5

>  <interaction_uniqueness_metric>  (192) 
0.133268

>  <ad_hoc_penalty>  (192) 
-24.866968

>  <N_rotatable_bonds>  (192) 
4

>  <N_HA>  (192) 
14

>  <cluster>  (192) 
6094

>  <N_interactions>  (192) 
6

>  <Enamine>  (192) 
0

>  <Mcule>  (192) 
1

>  <N_PAINS>  (192) 
0

>  <UFF_Gibbs>  (192) 
176.714634

>  <strain_per_HA>  (192) 
8.835732

>  <saltbridge:HIS:51>  (192) 
0

>  <pistack:HIS:51>  (192) 
0

>  <hydroph_interaction:HIS:51>  (192) 
0

>  <hbond:ALA:132>  (192) 
0

>  <hbond:SER:135>  (192) 
2

>  <hydroph_interaction:TYR:150>  (192) 
1

>  <pistack:TYR:161>  (192) 
0

>  <hydroph_interaction:TYR:161>  (192) 
2

>  <hydroph_interaction:ASP:83>  (192) 
0

>  <hbond:TYR:130>  (192) 
0

>  <hydroph_interaction:ALA:132>  (192) 
0

>  <hbond:HIS:51>  (192) 
0

>  <hbond:ASP:129>  (192) 
0

>  <hbond:TYR:150>  (192) 
0

>  <hbond:GLY:151>  (192) 
0

>  <hbond:TYR:161>  (192) 
0

>  <hydroph_interaction:TYR:130>  (192) 
0

>  <hydroph_interaction:PRO:131>  (192) 
0

>  <hydroph_interaction:ASP:129>  (192) 
1

>  <saltbridge:ASP:75>  (192) 
0

>  <saltbridge:ASP:83>  (192) 
0

>  <hydroph_interaction:ASN:152>  (192) 
0

>  <halogenbond:TYR:150>  (192) 
0

>  <hbond:ASP:83>  (192) 
0

>  <hydroph_interaction:VAL:155>  (192) 
0

>  <pication:TYR:161>  (192) 
0

>  <hbond:PRO:131>  (192) 
0

>  <hbond:LEU:128>  (192) 
0

>  <saltbridge:ASP:129>  (192) 
0

>  <hbond:THR:134>  (192) 
0

>  <pication:HIS:51>  (192) 
0

>  <hbond:SER:81>  (192) 
0

>  <hbond:GLY:159>  (192) 
0

>  <hydroph_interaction:PRO:101>  (192) 
0

>  <hydroph_interaction:THR:134>  (192) 
0

>  <hbond:GLY:82>  (192) 
0

>  <hydroph_interaction:GLU:104>  (192) 
0

>  <hydroph_interaction:VAL:36>  (192) 
0

>  <hydroph_interaction:MET:49>  (192) 
0

>  <halogenbond:GLU:104>  (192) 
0

>  <hydroph_interaction:LYS:107>  (192) 
0

$$$$
HRPNTGMNOCOSPB-UHFFFAOYSA-N
     RDKit          3D

 48 52  0  0  0  0  0  0  0  0999 V2000
   -5.5726    5.0784  -20.4865 C   0  0  0  0  0  0  0  0  0  0  0  0
   -5.5370    5.2816  -19.0617 N   0  0  0  0  0  0  0  0  0  0  0  0
   -4.2585    5.1548  -18.3605 C   0  0  0  0  0  0  0  0  0  0  0  0
   -3.8832    6.4714  -17.6796 C   0  0  0  0  0  0  0  0  0  0  0  0
   -4.4685    6.5638  -16.2735 C   0  0  0  0  0  0  0  0  0  0  0  0
   -5.9555    6.7406  -16.2491 C   0  0  0  0  0  0  0  0  0  0  0  0
   -6.9183    6.2081  -17.1029 C   0  0  0  0  0  0  0  0  0  0  0  0
   -8.1338    6.6116  -16.5819 C   0  0  0  0  0  0  0  0  0  0  0  0
   -7.8487    7.3554  -15.4603 C   0  0  0  0  0  0  0  0  0  0  0  0
   -6.5503    7.4091  -15.2868 O   0  0  0  0  0  0  0  0  0  0  0  0
   -6.7784    5.4076  -18.3414 C   0  0  0  0  0  0  0  0  0  0  0  0
   -7.8153    4.8689  -18.8183 O   0  0  0  0  0  0  0  0  0  0  0  0
   -4.9217    4.1225  -20.9900 O   0  0  0  0  0  0  0  0  0  0  0  0
   -6.3538    5.9772  -21.3734 C   0  0  0  0  0  0  0  0  0  0  0  0
   -6.7164    5.5559  -22.6653 C   0  0  0  0  0  0  0  0  0  0  0  0
   -7.4286    6.4067  -23.5149 C   0  0  0  0  0  0  0  0  0  0  0  0
   -7.7945    7.6922  -23.0875 C   0  0  0  0  0  0  0  0  0  0  0  0
   -8.5041    8.6249  -24.0268 C   0  0  0  0  0  0  0  0  0  0  0  0
   -7.2657    9.6222  -24.9278 S   0  0  0  0  0  0  0  0  0  0  0  0
   -8.1731    9.6360  -26.4727 C   0  0  0  0  0  0  0  0  0  0  0  0
   -9.3174   10.8134  -26.9000 S   0  0  0  0  0  0  0  0  0  0  0  0
   -9.5842   10.0993  -28.3974 C   0  0  0  0  0  0  0  0  0  0  0  0
   -8.7756    8.9751  -28.5210 C   0  0  0  0  0  0  0  0  0  0  0  0
   -8.7951    8.2143  -29.6929 C   0  0  0  0  0  0  0  0  0  0  0  0
   -9.6451    8.6134  -30.7413 C   0  0  0  0  0  0  0  0  0  0  0  0
  -10.4612    9.7589  -30.6060 C   0  0  0  0  0  0  0  0  0  0  0  0
  -10.4359   10.5143  -29.4209 C   0  0  0  0  0  0  0  0  0  0  0  0
   -7.9834    8.7120  -27.4481 N   0  0  0  0  0  0  0  0  0  0  0  0
   -7.4226    8.1223  -21.8050 C   0  0  0  0  0  0  0  0  0  0  0  0
   -6.7102    7.2716  -20.9535 C   0  0  0  0  0  0  0  0  0  0  0  0
   -3.4478    4.9034  -19.0795 H   0  0  0  0  0  0  0  0  0  0  0  0
   -4.3083    4.3135  -17.6348 H   0  0  0  0  0  0  0  0  0  0  0  0
   -2.7765    6.5197  -17.5909 H   0  0  0  0  0  0  0  0  0  0  0  0
   -4.2061    7.3418  -18.2944 H   0  0  0  0  0  0  0  0  0  0  0  0
   -4.1997    5.6618  -15.6812 H   0  0  0  0  0  0  0  0  0  0  0  0
   -4.0060    7.4372  -15.7652 H   0  0  0  0  0  0  0  0  0  0  0  0
   -9.1173    6.4016  -16.9808 H   0  0  0  0  0  0  0  0  0  0  0  0
   -8.5729    7.8281  -14.8107 H   0  0  0  0  0  0  0  0  0  0  0  0
   -6.4481    4.5683  -23.0203 H   0  0  0  0  0  0  0  0  0  0  0  0
   -7.6869    6.0667  -24.5103 H   0  0  0  0  0  0  0  0  0  0  0  0
   -9.1481    8.0385  -24.7193 H   0  0  0  0  0  0  0  0  0  0  0  0
   -9.1710    9.3104  -23.4604 H   0  0  0  0  0  0  0  0  0  0  0  0
   -8.1621    7.3395  -29.7968 H   0  0  0  0  0  0  0  0  0  0  0  0
   -9.6671    8.0422  -31.6610 H   0  0  0  0  0  0  0  0  0  0  0  0
  -11.1025   10.0641  -31.4247 H   0  0  0  0  0  0  0  0  0  0  0  0
  -11.0520   11.4009  -29.3118 H   0  0  0  0  0  0  0  0  0  0  0  0
   -7.6703    9.1228  -21.4694 H   0  0  0  0  0  0  0  0  0  0  0  0
   -6.4167    7.6391  -19.9776 H   0  0  0  0  0  0  0  0  0  0  0  0
  1  2  1  0
  2  3  1  0
  3  4  1  0
  4  5  1  0
  5  6  1  0
  6  7  2  0
  7  8  1  0
  8  9  2  0
  9 10  1  0
  7 11  1  0
 11 12  2  0
  1 13  2  0
  1 14  1  0
 14 15  2  0
 15 16  1  0
 16 17  2  0
 17 18  1  0
 18 19  1  0
 19 20  1  0
 20 21  1  0
 21 22  1  0
 22 23  2  0
 23 24  1  0
 24 25  2  0
 25 26  1  0
 26 27  2  0
 23 28  1  0
 17 29  1  0
 29 30  2  0
 11  2  1  0
 10  6  1  0
 30 14  1  0
 20 28  2  0
 27 22  1  0
  3 31  1  0
  3 32  1  0
  4 33  1  0
  4 34  1  0
  5 35  1  0
  5 36  1  0
  8 37  1  0
  9 38  1  0
 15 39  1  0
 16 40  1  0
 18 41  1  0
 18 42  1  0
 24 43  1  0
 25 44  1  0
 26 45  1  0
 27 46  1  0
 29 47  1  0
 30 48  1  0
A    1
 C1 
A    2
 N1 
A    3
 C2 
A    4
 C3 
A    5
 C4 
A    6
 C5 
A    7
 C6 
A    8
 C7 
A    9
 C8 
A   10
 O1 
A   11
 C9 
A   12
 O2 
A   13
 O3 
A   14
 C10
A   15
 C11
A   16
 C12
A   17
 C13
A   18
 C14
A   19
 S1 
A   20
 C15
A   21
 S2 
A   22
 C16
A   23
 C17
A   24
 C18
A   25
 C19
A   26
 C20
A   27
 C21
A   28
 N2 
A   29
 C22
A   30
 C23
A   31
 H1 
A   32
 H2 
A   33
 H3 
A   34
 H4 
A   35
 H5 
A   36
 H6 
A   37
 H7 
A   38
 H8 
A   39
 H9 
A   40
 H10
A   41
 H11
A   42
 H12
A   43
 H13
A   44
 H14
A   45
 H15
A   46
 H16
A   47
 H17
A   48
 H18
M  END
>  <ref_pdb>  (193) 
x0051_0B

>  <ref_mols>  (193) 
x0846_1B,x0969_0B

>  <original SMILES>  (193) 
[H]c1oc2c(c1[H])C(=O)N(C(=O)c1c([H])c([H])c(C([H])([H])Sc3nc4c([H])c([H])c([H])c([H])c4s3)c([H])c1[H])C([H])([H])C([H])([H])C2([H])[H]

>  <index>  (193) 
429

>  <∆∆G>  (193) 
-8.816536

>  <∆G_bound>  (193) 
-8.29851

>  <∆G_unbound>  (193) 
0.518025

>  <comRMSD>  (193) 
0.784323

>  <N_constrained_atoms>  (193) 
28.0

>  <N_unconstrained_atoms>  (193) 
4.0

>  <runtime>  (193) 
28.939655

>  <LE>  (193) 
0.275517

>  <percent_hybrid>  (193) 
36.0

>  <dist>  (193) 
11.0

>  <ecfp4>  (193) 
0.161905

>  <daylight>  (193) 
0.212598

>  <topodist>  (193) 
5.0

>  <mces>  (193) 
31.0

>  <tdn>  (193) 
2.0

>  <tup>  (193) 
2.0

>  <rdn>  (193) 
0.0

>  <rup>  (193) 
0.0

>  <ldn>  (193) 
0.0

>  <lup>  (193) 
1.0

>  <mut>  (193) 
5.0

>  <maj>  (193) 
5.0

>  <min>  (193) 
0.0

>  <hyb>  (193) 
1.0

>  <sub>  (193) 
2.0

>  <query_index>  (193) 
45.0

>  <max_hit_Tanimoto>  (193) 
0.198772

>  <largest_ring>  (193) 
7

>  <N_interactions_kept>  (193) 
0.5

>  <N_interactions_lost>  (193) 
2.0

>  <interaction_uniqueness_metric>  (193) 
0.18165

>  <ad_hoc_penalty>  (193) 
-24.782904

>  <N_rotatable_bonds>  (193) 
4

>  <N_HA>  (193) 
30

>  <cluster>  (193) 
5829

>  <N_interactions>  (193) 
5

>  <Enamine>  (193) 
0

>  <Mcule>  (193) 
1

>  <N_PAINS>  (193) 
0

>  <UFF_Gibbs>  (193) 
67.151539

>  <strain_per_HA>  (193) 
2.098486

>  <saltbridge:HIS:51>  (193) 
0

>  <pistack:HIS:51>  (193) 
0

>  <hydroph_interaction:HIS:51>  (193) 
0

>  <hbond:ALA:132>  (193) 
0

>  <hbond:SER:135>  (193) 
0

>  <hydroph_interaction:TYR:150>  (193) 
0

>  <pistack:TYR:161>  (193) 
1

>  <hydroph_interaction:TYR:161>  (193) 
0

>  <hydroph_interaction:ASP:83>  (193) 
0

>  <hbond:TYR:130>  (193) 
1

>  <hydroph_interaction:ALA:132>  (193) 
0

>  <hbond:HIS:51>  (193) 
0

>  <hbond:ASP:129>  (193) 
1

>  <hbond:TYR:150>  (193) 
0

>  <hbond:GLY:151>  (193) 
0

>  <hbond:TYR:161>  (193) 
0

>  <hydroph_interaction:TYR:130>  (193) 
1

>  <hydroph_interaction:PRO:131>  (193) 
1

>  <hydroph_interaction:ASP:129>  (193) 
0

>  <saltbridge:ASP:75>  (193) 
0

>  <saltbridge:ASP:83>  (193) 
0

>  <hydroph_interaction:ASN:152>  (193) 
0

>  <halogenbond:TYR:150>  (193) 
0

>  <hbond:ASP:83>  (193) 
0

>  <hydroph_interaction:VAL:155>  (193) 
0

>  <pication:TYR:161>  (193) 
0

>  <hbond:PRO:131>  (193) 
0

>  <hbond:LEU:128>  (193) 
0

>  <saltbridge:ASP:129>  (193) 
0

>  <hbond:THR:134>  (193) 
0

>  <pication:HIS:51>  (193) 
0

>  <hbond:SER:81>  (193) 
0

>  <hbond:GLY:159>  (193) 
0

>  <hydroph_interaction:PRO:101>  (193) 
0

>  <hydroph_interaction:THR:134>  (193) 
0

>  <hbond:GLY:82>  (193) 
0

>  <hydroph_interaction:GLU:104>  (193) 
0

>  <hydroph_interaction:VAL:36>  (193) 
0

>  <hydroph_interaction:MET:49>  (193) 
0

>  <halogenbond:GLU:104>  (193) 
0

>  <hydroph_interaction:LYS:107>  (193) 
0

$$$$
KDXUSFXWLFKAQB-UHFFFAOYSA-N
     RDKit          3D

 45 49  0  0  0  0  0  0  0  0999 V2000
   -6.8109    8.8580  -24.2177 C   0  0  0  0  0  0  0  0  0  0  0  0
   -6.9552    8.2482  -25.5114 N   0  0  0  0  0  0  0  0  0  0  0  0
   -7.9185    8.6612  -26.4905 C   0  0  0  0  0  0  0  0  0  0  0  0
   -9.2408    9.6878  -26.2019 S   0  0  0  0  0  0  0  0  0  0  0  0
   -9.7872    9.5385  -27.7812 C   0  0  0  0  0  0  0  0  0  0  0  0
   -8.9377    8.6948  -28.4801 C   0  0  0  0  0  0  0  0  0  0  0  0
   -9.1836    8.4010  -29.8228 C   0  0  0  0  0  0  0  0  0  0  0  0
  -10.3034    8.9786  -30.4465 C   0  0  0  0  0  0  0  0  0  0  0  0
  -11.1594    9.8357  -29.7256 C   0  0  0  0  0  0  0  0  0  0  0  0
  -10.9043   10.1211  -28.3749 C   0  0  0  0  0  0  0  0  0  0  0  0
   -7.8975    8.1965  -27.7640 N   0  0  0  0  0  0  0  0  0  0  0  0
   -7.2285   10.0328  -24.0268 O   0  0  0  0  0  0  0  0  0  0  0  0
   -6.1345    8.1389  -23.1111 C   0  0  0  0  0  0  0  0  0  0  0  0
   -6.0479    6.7349  -23.1073 C   0  0  0  0  0  0  0  0  0  0  0  0
   -5.4201    6.0657  -22.0529 C   0  0  0  0  0  0  0  0  0  0  0  0
   -4.8635    6.7862  -20.9863 C   0  0  0  0  0  0  0  0  0  0  0  0
   -4.2313    6.0627  -19.8286 C   0  0  0  0  0  0  0  0  0  0  0  0
   -5.2317    5.7873  -18.8006 N   0  0  0  0  0  0  0  0  0  0  0  0
   -6.2088    4.7431  -18.8293 C   0  0  0  0  0  0  0  0  0  0  0  0
   -6.1596    3.7469  -19.5984 O   0  0  0  0  0  0  0  0  0  0  0  0
   -7.2671    5.0194  -17.8649 C   0  0  0  0  0  0  0  0  0  0  0  0
   -6.9757    6.2231  -17.2588 C   0  0  0  0  0  0  0  0  0  0  0  0
   -7.8134    6.7746  -16.2910 C   0  0  0  0  0  0  0  0  0  0  0  0
   -8.9753    6.0632  -15.9415 C   0  0  0  0  0  0  0  0  0  0  0  0
   -9.2738    4.8304  -16.5622 C   0  0  0  0  0  0  0  0  0  0  0  0
   -8.4133    4.2968  -17.5386 C   0  0  0  0  0  0  0  0  0  0  0  0
   -5.7312    6.7180  -17.8356 C   0  0  0  0  0  0  0  0  0  0  0  0
   -5.1752    7.8117  -17.5507 O   0  0  0  0  0  0  0  0  0  0  0  0
   -4.9638    8.1849  -20.9766 C   0  0  0  0  0  0  0  0  0  0  0  0
   -5.5934    8.8555  -22.0288 C   0  0  0  0  0  0  0  0  0  0  0  0
   -6.2982    7.4824  -25.7809 H   0  0  0  0  0  0  0  0  0  0  0  0
   -8.5255    7.7429  -30.3753 H   0  0  0  0  0  0  0  0  0  0  0  0
  -10.5081    8.7654  -31.4872 H   0  0  0  0  0  0  0  0  0  0  0  0
  -12.0194   10.2740  -30.2153 H   0  0  0  0  0  0  0  0  0  0  0  0
  -11.5582   10.7737  -27.8118 H   0  0  0  0  0  0  0  0  0  0  0  0
   -6.4857    6.1478  -23.9038 H   0  0  0  0  0  0  0  0  0  0  0  0
   -5.3747    4.9838  -22.0653 H   0  0  0  0  0  0  0  0  0  0  0  0
   -3.4101    6.6735  -19.3951 H   0  0  0  0  0  0  0  0  0  0  0  0
   -3.7775    5.1075  -20.1713 H   0  0  0  0  0  0  0  0  0  0  0  0
   -7.5789    7.7221  -15.8232 H   0  0  0  0  0  0  0  0  0  0  0  0
   -9.6455    6.4640  -15.1922 H   0  0  0  0  0  0  0  0  0  0  0  0
  -10.1718    4.2930  -16.2862 H   0  0  0  0  0  0  0  0  0  0  0  0
   -8.6363    3.3546  -18.0221 H   0  0  0  0  0  0  0  0  0  0  0  0
   -4.5555    8.7576  -20.1535 H   0  0  0  0  0  0  0  0  0  0  0  0
   -5.6511    9.9364  -21.9982 H   0  0  0  0  0  0  0  0  0  0  0  0
  1  2  1  0
  2  3  1  0
  3  4  1  0
  4  5  1  0
  5  6  2  0
  6  7  1  0
  7  8  2  0
  8  9  1  0
  9 10  2  0
  6 11  1  0
  1 12  2  0
  1 13  1  0
 13 14  2  0
 14 15  1  0
 15 16  2  0
 16 17  1  0
 17 18  1  0
 18 19  1  0
 19 20  2  0
 19 21  1  0
 21 22  2  0
 22 23  1  0
 23 24  2  0
 24 25  1  0
 25 26  2  0
 22 27  1  0
 27 28  2  0
 16 29  1  0
 29 30  2  0
  3 11  2  0
 10  5  1  0
 30 13  1  0
 27 18  1  0
 26 21  1  0
  2 31  1  0
  7 32  1  0
  8 33  1  0
  9 34  1  0
 10 35  1  0
 14 36  1  0
 15 37  1  0
 17 38  1  0
 17 39  1  0
 23 40  1  0
 24 41  1  0
 25 42  1  0
 26 43  1  0
 29 44  1  0
 30 45  1  0
A    1
 C1 
A    2
 N1 
A    3
 C2 
A    4
 S1 
A    5
 C3 
A    6
 C4 
A    7
 C5 
A    8
 C6 
A    9
 C7 
A   10
 C8 
A   11
 N2 
A   12
 O1 
A   13
 C9 
A   14
 C10
A   15
 C11
A   16
 C12
A   17
 C13
A   18
 N3 
A   19
 C14
A   20
 O2 
A   21
 C15
A   22
 C16
A   23
 C17
A   24
 C18
A   25
 C19
A   26
 C20
A   27
 C21
A   28
 O3 
A   29
 C22
A   30
 C23
A   31
 H1 
A   32
 H2 
A   33
 H3 
A   34
 H4 
A   35
 H5 
A   36
 H6 
A   37
 H7 
A   38
 H8 
A   39
 H9 
A   40
 H10
A   41
 H11
A   42
 H12
A   43
 H13
A   44
 H14
A   45
 H15
M  END
>  <ref_pdb>  (194) 
x0051_0B

>  <ref_mols>  (194) 
x0727_0B,x0846_1B

>  <original SMILES>  (194) 
[H]c1c([H])c([H])c2c(c1[H])C(=O)N(C([H])([H])c1c([H])c([H])c(C(=O)N([H])c3nc4c([H])c([H])c([H])c([H])c4s3)c([H])c1[H])C2=O

>  <index>  (194) 
188

>  <∆∆G>  (194) 
-10.156923

>  <∆G_bound>  (194) 
-9.522553

>  <∆G_unbound>  (194) 
0.63437

>  <comRMSD>  (194) 
0.634654

>  <N_constrained_atoms>  (194) 
29.0

>  <N_unconstrained_atoms>  (194) 
2.0

>  <runtime>  (194) 
59.375527

>  <LE>  (194) 
0.327643

>  <percent_hybrid>  (194) 
38.0

>  <dist>  (194) 
10.0

>  <ecfp4>  (194) 
0.153846

>  <daylight>  (194) 
0.25

>  <topodist>  (194) 
6.0

>  <mces>  (194) 
32.0

>  <tdn>  (194) 
2.0

>  <tup>  (194) 
2.0

>  <rdn>  (194) 
0.0

>  <rup>  (194) 
0.0

>  <ldn>  (194) 
2.0

>  <lup>  (194) 
0.0

>  <mut>  (194) 
3.0

>  <maj>  (194) 
3.0

>  <min>  (194) 
0.0

>  <hyb>  (194) 
1.0

>  <sub>  (194) 
2.0

>  <query_index>  (194) 
15.0

>  <max_hit_Tanimoto>  (194) 
0.265222

>  <largest_ring>  (194) 
6

>  <N_interactions_kept>  (194) 
1.0

>  <N_interactions_lost>  (194) 
2.0

>  <interaction_uniqueness_metric>  (194) 
0.143335

>  <ad_hoc_penalty>  (194) 
-24.750483

>  <N_rotatable_bonds>  (194) 
4

>  <N_HA>  (194) 
30

>  <cluster>  (194) 
6048

>  <N_interactions>  (194) 
5

>  <Enamine>  (194) 
0

>  <Mcule>  (194) 
1

>  <N_PAINS>  (194) 
0

>  <UFF_Gibbs>  (194) 
206.218646

>  <strain_per_HA>  (194) 
6.652214

>  <saltbridge:HIS:51>  (194) 
0

>  <pistack:HIS:51>  (194) 
0

>  <hydroph_interaction:HIS:51>  (194) 
0

>  <hbond:ALA:132>  (194) 
0

>  <hbond:SER:135>  (194) 
0

>  <hydroph_interaction:TYR:150>  (194) 
1

>  <pistack:TYR:161>  (194) 
1

>  <hydroph_interaction:TYR:161>  (194) 
0

>  <hydroph_interaction:ASP:83>  (194) 
0

>  <hbond:TYR:130>  (194) 
1

>  <hydroph_interaction:ALA:132>  (194) 
0

>  <hbond:HIS:51>  (194) 
0

>  <hbond:ASP:129>  (194) 
1

>  <hbond:TYR:150>  (194) 
0

>  <hbond:GLY:151>  (194) 
0

>  <hbond:TYR:161>  (194) 
0

>  <hydroph_interaction:TYR:130>  (194) 
1

>  <hydroph_interaction:PRO:131>  (194) 
0

>  <hydroph_interaction:ASP:129>  (194) 
0

>  <saltbridge:ASP:75>  (194) 
0

>  <saltbridge:ASP:83>  (194) 
0

>  <hydroph_interaction:ASN:152>  (194) 
0

>  <halogenbond:TYR:150>  (194) 
0

>  <hbond:ASP:83>  (194) 
0

>  <hydroph_interaction:VAL:155>  (194) 
0

>  <pication:TYR:161>  (194) 
0

>  <hbond:PRO:131>  (194) 
0

>  <hbond:LEU:128>  (194) 
0

>  <saltbridge:ASP:129>  (194) 
0

>  <hbond:THR:134>  (194) 
0

>  <pication:HIS:51>  (194) 
0

>  <hbond:SER:81>  (194) 
0

>  <hbond:GLY:159>  (194) 
0

>  <hydroph_interaction:PRO:101>  (194) 
0

>  <hydroph_interaction:THR:134>  (194) 
0

>  <hbond:GLY:82>  (194) 
0

>  <hydroph_interaction:GLU:104>  (194) 
0

>  <hydroph_interaction:VAL:36>  (194) 
0

>  <hydroph_interaction:MET:49>  (194) 
0

>  <halogenbond:GLU:104>  (194) 
0

>  <hydroph_interaction:LYS:107>  (194) 
0

$$$$
LSLTWAPCGDNIFV-UHFFFAOYSA-N
     RDKit          3D

 38 41  0  0  0  0  0  0  0  0999 V2000
   -8.6466    5.6452  -12.6666 O   0  0  0  0  0  0  0  0  0  0  0  0
   -8.8289    5.8187  -14.0441 C   0  0  0  0  0  0  0  0  0  0  0  0
   -9.7345    6.6056  -14.4324 O   0  0  0  0  0  0  0  0  0  0  0  0
   -7.9270    5.1487  -15.0602 C   0  0  0  0  0  0  0  0  0  0  0  0
   -8.5672    5.0356  -16.4046 C   0  0  0  0  0  0  0  0  0  0  0  0
   -7.8239    5.7117  -17.3303 C   0  0  0  0  0  0  0  0  0  0  0  0
   -8.1931    5.7616  -18.6734 C   0  0  0  0  0  0  0  0  0  0  0  0
   -9.3605    5.0860  -19.0671 C   0  0  0  0  0  0  0  0  0  0  0  0
  -10.1249    4.3783  -18.1177 C   0  0  0  0  0  0  0  0  0  0  0  0
   -9.7260    4.3460  -16.7708 C   0  0  0  0  0  0  0  0  0  0  0  0
   -6.7139    6.2959  -16.7601 O   0  0  0  0  0  0  0  0  0  0  0  0
   -6.6661    6.0094  -15.3624 C   0  0  0  0  0  0  0  0  0  0  0  0
   -7.6128    4.8516  -12.0930 C   0  0  0  0  0  0  0  0  0  0  0  0
   -7.6805    4.9594  -10.6061 C   0  0  0  0  0  0  0  0  0  0  0  0
   -8.4538    4.2247   -9.7419 C   0  0  0  0  0  0  0  0  0  0  0  0
   -8.3110    4.7055   -8.5031 N   0  0  0  0  0  0  0  0  0  0  0  0
   -8.9727    4.1432   -7.3299 C   0  0  0  0  0  0  0  0  0  0  0  0
  -10.2157    3.3373   -7.7621 C   0  0  0  0  0  0  0  0  0  0  0  0
   -9.8932    2.4197   -8.9610 C   0  0  0  0  0  0  0  0  0  0  0  0
   -9.3042    3.1610  -10.0334 O   0  0  0  0  0  0  0  0  0  0  0  0
   -7.4686    5.7260   -8.5104 N   0  0  0  0  0  0  0  0  0  0  0  0
   -7.0767    5.9094   -9.7933 C   0  0  0  0  0  0  0  0  0  0  0  0
   -7.6343    4.1314  -14.7238 H   0  0  0  0  0  0  0  0  0  0  0  0
   -7.5943    6.3041  -19.3939 H   0  0  0  0  0  0  0  0  0  0  0  0
   -9.6718    5.1069  -20.1032 H   0  0  0  0  0  0  0  0  0  0  0  0
  -11.0212    3.8569  -18.4270 H   0  0  0  0  0  0  0  0  0  0  0  0
  -10.3046    3.8033  -16.0349 H   0  0  0  0  0  0  0  0  0  0  0  0
   -5.7421    5.4354  -15.1342 H   0  0  0  0  0  0  0  0  0  0  0  0
   -6.6539    6.9630  -14.7897 H   0  0  0  0  0  0  0  0  0  0  0  0
   -7.7420    3.7889  -12.3885 H   0  0  0  0  0  0  0  0  0  0  0  0
   -6.6211    5.2108  -12.4428 H   0  0  0  0  0  0  0  0  0  0  0  0
   -9.2772    4.9599   -6.6404 H   0  0  0  0  0  0  0  0  0  0  0  0
   -8.2617    3.4747   -6.7990 H   0  0  0  0  0  0  0  0  0  0  0  0
  -11.0218    4.0436   -8.0572 H   0  0  0  0  0  0  0  0  0  0  0  0
  -10.5832    2.7274   -6.9093 H   0  0  0  0  0  0  0  0  0  0  0  0
  -10.8207    1.9271   -9.3214 H   0  0  0  0  0  0  0  0  0  0  0  0
   -9.1821    1.6301   -8.6355 H   0  0  0  0  0  0  0  0  0  0  0  0
   -6.4043    6.6919  -10.1174 H   0  0  0  0  0  0  0  0  0  0  0  0
  1  2  1  0
  2  3  2  0
  2  4  1  0
  4  5  1  0
  5  6  1  0
  6  7  2  0
  7  8  1  0
  8  9  2  0
  9 10  1  0
  6 11  1  0
 11 12  1  0
  1 13  1  0
 13 14  1  0
 14 15  2  0
 15 16  1  0
 16 17  1  0
 17 18  1  0
 18 19  1  0
 19 20  1  0
 16 21  1  0
 21 22  2  0
 12  4  1  0
 10  5  2  0
 22 14  1  0
 20 15  1  0
  4 23  1  0
  7 24  1  0
  8 25  1  0
  9 26  1  0
 10 27  1  0
 12 28  1  0
 12 29  1  0
 13 30  1  0
 13 31  1  0
 17 32  1  0
 17 33  1  0
 18 34  1  0
 18 35  1  0
 19 36  1  0
 19 37  1  0
 22 38  1  0
A    1
 O1 
A    2
 C1 
A    3
 O2 
A    4
 C2 
A    5
 C3 
A    6
 C4 
A    7
 C5 
A    8
 C6 
A    9
 C7 
A   10
 C8 
A   11
 O3 
A   12
 C9 
A   13
 C10
A   14
 C11
A   15
 C12
A   16
 N1 
A   17
 C13
A   18
 C14
A   19
 C15
A   20
 O4 
A   21
 N2 
A   22
 C16
A   23
 H1 
A   24
 H2 
A   25
 H3 
A   26
 H4 
A   27
 H5 
A   28
 H6 
A   29
 H7 
A   30
 H8 
A   31
 H9 
A   32
 H10
A   33
 H11
A   34
 H12
A   35
 H13
A   36
 H14
A   37
 H15
A   38
 H16
M  END
>  <ref_pdb>  (195) 
x0051_0B

>  <ref_mols>  (195) 
x0969_1B,x0455_0B

>  <original SMILES>  (195) 
[H]c1nn2c(c1C([H])([H])OC(=O)C1([H])c3c([H])c([H])c([H])c([H])c3OC1([H])[H])OC([H])([H])C([H])([H])C2([H])[H]

>  <index>  (195) 
327

>  <∆∆G>  (195) 
-7.200223

>  <∆G_bound>  (195) 
-6.532919

>  <∆G_unbound>  (195) 
0.667305

>  <comRMSD>  (195) 
0.39556

>  <N_constrained_atoms>  (195) 
19.0

>  <N_unconstrained_atoms>  (195) 
3.0

>  <runtime>  (195) 
58.830484

>  <LE>  (195) 
0.327283

>  <percent_hybrid>  (195) 
48.0

>  <dist>  (195) 
7.0

>  <ecfp4>  (195) 
0.256098

>  <daylight>  (195) 
0.310541

>  <topodist>  (195) 
2.0

>  <mces>  (195) 
24.0

>  <tdn>  (195) 
0.0

>  <tup>  (195) 
1.0

>  <rdn>  (195) 
0.0

>  <rup>  (195) 
0.0

>  <ldn>  (195) 
1.0

>  <lup>  (195) 
0.0

>  <mut>  (195) 
4.0

>  <maj>  (195) 
4.0

>  <min>  (195) 
0.0

>  <hyb>  (195) 
1.0

>  <sub>  (195) 
0.0

>  <query_index>  (195) 
204.0

>  <max_hit_Tanimoto>  (195) 
0.252377

>  <largest_ring>  (195) 
6

>  <N_interactions_kept>  (195) 
1.0

>  <N_interactions_lost>  (195) 
1.5

>  <interaction_uniqueness_metric>  (195) 
0.154538

>  <ad_hoc_penalty>  (195) 
-24.706919

>  <N_rotatable_bonds>  (195) 
3

>  <N_HA>  (195) 
22

>  <cluster>  (195) 
5921

>  <N_interactions>  (195) 
5

>  <Enamine>  (195) 
0

>  <Mcule>  (195) 
1

>  <N_PAINS>  (195) 
0

>  <UFF_Gibbs>  (195) 
77.811506

>  <strain_per_HA>  (195) 
3.536887

>  <saltbridge:HIS:51>  (195) 
1

>  <pistack:HIS:51>  (195) 
0

>  <hydroph_interaction:HIS:51>  (195) 
1

>  <hbond:ALA:132>  (195) 
0

>  <hbond:SER:135>  (195) 
0

>  <hydroph_interaction:TYR:150>  (195) 
1

>  <pistack:TYR:161>  (195) 
0

>  <hydroph_interaction:TYR:161>  (195) 
2

>  <hydroph_interaction:ASP:83>  (195) 
0

>  <hbond:TYR:130>  (195) 
0

>  <hydroph_interaction:ALA:132>  (195) 
0

>  <hbond:HIS:51>  (195) 
0

>  <hbond:ASP:129>  (195) 
0

>  <hbond:TYR:150>  (195) 
0

>  <hbond:GLY:151>  (195) 
0

>  <hbond:TYR:161>  (195) 
0

>  <hydroph_interaction:TYR:130>  (195) 
0

>  <hydroph_interaction:PRO:131>  (195) 
0

>  <hydroph_interaction:ASP:129>  (195) 
0

>  <saltbridge:ASP:75>  (195) 
0

>  <saltbridge:ASP:83>  (195) 
0

>  <hydroph_interaction:ASN:152>  (195) 
0

>  <halogenbond:TYR:150>  (195) 
0

>  <hbond:ASP:83>  (195) 
0

>  <hydroph_interaction:VAL:155>  (195) 
0

>  <pication:TYR:161>  (195) 
0

>  <hbond:PRO:131>  (195) 
0

>  <hbond:LEU:128>  (195) 
0

>  <saltbridge:ASP:129>  (195) 
0

>  <hbond:THR:134>  (195) 
0

>  <pication:HIS:51>  (195) 
0

>  <hbond:SER:81>  (195) 
0

>  <hbond:GLY:159>  (195) 
0

>  <hydroph_interaction:PRO:101>  (195) 
0

>  <hydroph_interaction:THR:134>  (195) 
0

>  <hbond:GLY:82>  (195) 
0

>  <hydroph_interaction:GLU:104>  (195) 
0

>  <hydroph_interaction:VAL:36>  (195) 
0

>  <hydroph_interaction:MET:49>  (195) 
0

>  <halogenbond:GLU:104>  (195) 
0

>  <hydroph_interaction:LYS:107>  (195) 
0

$$$$
PV-004245494497
     RDKit          3D

 53 56  0  0  0  0  0  0  0  0999 V2000
   -2.9163    4.5526  -15.7352 C   0  0  0  0  0  0  0  0  0  0  0  0
   -2.9536    5.5526  -16.8870 C   0  0  0  0  0  0  0  0  0  0  0  0
   -4.2039    5.3895  -17.7120 C   0  0  0  0  0  0  0  0  0  0  0  0
   -4.0776    5.0220  -18.9122 O   0  0  0  0  0  0  0  0  0  0  0  0
   -5.5283    5.5923  -17.1652 N   0  0  0  0  0  0  0  0  0  0  0  0
   -6.6844    5.0780  -17.9072 C   0  0  0  0  0  0  0  0  0  0  0  0
   -7.8953    4.8764  -17.0277 C   0  0  0  0  0  0  0  0  0  0  0  0
   -9.0197    4.2517  -17.5919 C   0  0  0  0  0  0  0  0  0  0  0  0
  -10.1641    4.0254  -16.8291 C   0  0  0  0  0  0  0  0  0  0  0  0
  -10.1986    4.4176  -15.4940 C   0  0  0  0  0  0  0  0  0  0  0  0
   -9.0945    5.0488  -14.9198 C   0  0  0  0  0  0  0  0  0  0  0  0
   -7.9353    5.3178  -15.6793 C   0  0  0  0  0  0  0  0  0  0  0  0
   -6.7014    5.9473  -15.0342 C   0  0  0  0  0  0  0  0  0  0  0  0
   -7.0378    7.0216  -13.9661 C   0  0  0  0  0  0  0  0  0  0  0  0
   -7.2678    6.4084  -12.6572 N   0  0  0  0  0  0  0  0  0  0  0  0
   -8.1950    6.9546  -11.7103 C   0  0  0  0  0  0  0  0  0  0  0  0
   -8.6804    8.1035  -11.8941 O   0  0  0  0  0  0  0  0  0  0  0  0
   -8.5559    6.2110  -10.4906 C   0  0  0  0  0  0  0  0  0  0  0  0
   -8.6806    4.8429  -10.2981 C   0  0  0  0  0  0  0  0  0  0  0  0
   -8.6299    3.7421  -11.3225 C   0  0  0  0  0  0  0  0  0  0  0  0
   -8.5867    2.3695  -10.6344 C   0  0  0  0  0  0  0  0  0  0  0  0
   -9.6340    2.2721   -9.5149 C   0  0  0  0  0  0  0  0  0  0  0  0
   -9.3773    3.3339   -8.4351 C   0  0  0  0  0  0  0  0  0  0  0  0
   -9.1276    4.6392   -9.0440 N   0  0  0  0  0  0  0  0  0  0  0  0
   -9.2615    5.7937   -8.4120 N   0  0  0  0  0  0  0  0  0  0  0  0
   -8.9300    6.7710   -9.2796 C   0  0  0  0  0  0  0  0  0  0  0  0
   -5.7897    6.5687  -16.1038 C   0  0  0  0  0  0  0  0  0  0  0  0
   -3.7485    4.7376  -15.0259 H   0  0  0  0  0  0  0  0  0  0  0  0
   -2.9918    3.5147  -16.1242 H   0  0  0  0  0  0  0  0  0  0  0  0
   -1.9579    4.6569  -15.1843 H   0  0  0  0  0  0  0  0  0  0  0  0
   -2.8649    6.5900  -16.5049 H   0  0  0  0  0  0  0  0  0  0  0  0
   -2.0624    5.3757  -17.5285 H   0  0  0  0  0  0  0  0  0  0  0  0
   -6.9403    5.7923  -18.7191 H   0  0  0  0  0  0  0  0  0  0  0  0
   -6.4264    4.0993  -18.3690 H   0  0  0  0  0  0  0  0  0  0  0  0
   -9.0050    3.9316  -18.6267 H   0  0  0  0  0  0  0  0  0  0  0  0
  -11.0225    3.5373  -17.2720 H   0  0  0  0  0  0  0  0  0  0  0  0
  -11.0828    4.2284  -14.8988 H   0  0  0  0  0  0  0  0  0  0  0  0
   -9.1619    5.3242  -13.8808 H   0  0  0  0  0  0  0  0  0  0  0  0
   -6.1261    5.1265  -14.5528 H   0  0  0  0  0  0  0  0  0  0  0  0
   -7.9261    7.6066  -14.2920 H   0  0  0  0  0  0  0  0  0  0  0  0
   -6.1966    7.7399  -13.8529 H   0  0  0  0  0  0  0  0  0  0  0  0
   -6.5705    5.7119  -12.3123 H   0  0  0  0  0  0  0  0  0  0  0  0
   -7.7399    3.8394  -11.9727 H   0  0  0  0  0  0  0  0  0  0  0  0
   -9.5405    3.8045  -11.9553 H   0  0  0  0  0  0  0  0  0  0  0  0
   -8.7761    1.5752  -11.3882 H   0  0  0  0  0  0  0  0  0  0  0  0
   -7.5737    2.2003  -10.2070 H   0  0  0  0  0  0  0  0  0  0  0  0
   -9.5945    1.2612   -9.0546 H   0  0  0  0  0  0  0  0  0  0  0  0
  -10.6496    2.4172   -9.9443 H   0  0  0  0  0  0  0  0  0  0  0  0
   -8.4918    3.0425   -7.8305 H   0  0  0  0  0  0  0  0  0  0  0  0
  -10.2583    3.3957   -7.7610 H   0  0  0  0  0  0  0  0  0  0  0  0
   -8.9651    7.8270   -9.0457 H   0  0  0  0  0  0  0  0  0  0  0  0
   -4.8540    6.9086  -15.6199 H   0  0  0  0  0  0  0  0  0  0  0  0
   -6.2780    7.4644  -16.5485 H   0  0  0  0  0  0  0  0  0  0  0  0
  1  2  1  0
  2  3  1  0
  3  4  2  0
  3  5  1  0
  5  6  1  0
  6  7  1  0
  7  8  2  0
  8  9  1  0
  9 10  2  0
 10 11  1  0
 11 12  2  0
 12 13  1  0
 13 14  1  0
 14 15  1  0
 15 16  1  0
 16 17  2  0
 16 18  1  0
 18 19  2  0
 19 20  1  0
 20 21  1  0
 21 22  1  0
 22 23  1  0
 23 24  1  0
 24 25  1  0
 25 26  2  0
 13 27  1  0
 27  5  1  0
 12  7  1  0
 26 18  1  0
 24 19  1  0
  1 28  1  0
  1 29  1  0
  1 30  1  0
  2 31  1  0
  2 32  1  0
  6 33  1  0
  6 34  1  0
  8 35  1  0
  9 36  1  0
 10 37  1  0
 11 38  1  0
 13 39  1  0
 14 40  1  0
 14 41  1  0
 15 42  1  0
 20 43  1  0
 20 44  1  0
 21 45  1  0
 21 46  1  0
 22 47  1  0
 22 48  1  0
 23 49  1  0
 23 50  1  0
 26 51  1  0
 27 52  1  0
 27 53  1  0
A    1
 C1 
A    2
 C2 
A    3
 C3 
A    4
 O1 
A    5
 N1 
A    6
 C4 
A    7
 C5 
A    8
 C6 
A    9
 C7 
A   10
 C8 
A   11
 C9 
A   12
 C10
A   13
 C11
A   14
 C12
A   15
 N2 
A   16
 C13
A   17
 O2 
A   18
 C14
A   19
 C15
A   20
 C16
A   21
 C17
A   22
 C18
A   23
 C19
A   24
 N3 
A   25
 N4 
A   26
 C20
A   27
 C21
A   28
 H1 
A   29
 H2 
A   30
 H3 
A   31
 H4 
A   32
 H5 
A   33
 H6 
A   34
 H7 
A   35
 H8 
A   36
 H9 
A   37
 H10
A   38
 H11
A   39
 H12
A   40
 H13
A   41
 H14
A   42
 H15
A   43
 H16
A   44
 H17
A   45
 H18
A   46
 H19
A   47
 H20
A   48
 H21
A   49
 H22
A   50
 H23
A   51
 H24
A   52
 H25
A   53
 H26
M  END
>  <ref_pdb>  (196) 
x0051_0B

>  <ref_mols>  (196) 
x0472_0B,x0969_1B

>  <original SMILES>  (196) 
[H]c1nn2c(c1C(=O)N([H])C([H])([H])C1([H])c3c([H])c([H])c([H])c([H])c3C([H])([H])N(C(=O)C([H])([H])C([H])([H])[H])C1([H])[H])C([H])([H])C([H])([H])C([H])([H])C2([H])[H]

>  <index>  (196) 
256

>  <∆∆G>  (196) 
-7.994727

>  <∆G_bound>  (196) 
-7.026151

>  <∆G_unbound>  (196) 
0.968576

>  <comRMSD>  (196) 
0.463645

>  <N_constrained_atoms>  (196) 
23.0

>  <N_unconstrained_atoms>  (196) 
4.0

>  <runtime>  (196) 
48.678771

>  <LE>  (196) 
0.296101

>  <percent_hybrid>  (196) 
44.0

>  <dist>  (196) 
10.0

>  <ecfp4>  (196) 
0.165049

>  <daylight>  (196) 
0.295455

>  <topodist>  (196) 
2.0

>  <mces>  (196) 
28.0

>  <tdn>  (196) 
0.0

>  <tup>  (196) 
1.0

>  <rdn>  (196) 
0.0

>  <rup>  (196) 
0.0

>  <ldn>  (196) 
0.0

>  <lup>  (196) 
1.0

>  <mut>  (196) 
6.0

>  <maj>  (196) 
6.0

>  <min>  (196) 
0.0

>  <hyb>  (196) 
2.0

>  <sub>  (196) 
0.0

>  <query_index>  (196) 
24.0

>  <max_hit_Tanimoto>  (196) 
0.310463

>  <largest_ring>  (196) 
6

>  <N_interactions_kept>  (196) 
2.0

>  <N_interactions_lost>  (196) 
1.5

>  <interaction_uniqueness_metric>  (196) 
0.136928

>  <ad_hoc_penalty>  (196) 
-24.667514

>  <N_rotatable_bonds>  (196) 
5

>  <N_HA>  (196) 
27

>  <cluster>  (196) 
5984

>  <N_interactions>  (196) 
6

>  <Enamine>  (196) 
1

>  <Mcule>  (196) 
0

>  <N_PAINS>  (196) 
0

>  <UFF_Gibbs>  (196) 
134.073329

>  <strain_per_HA>  (196) 
4.965679

>  <saltbridge:HIS:51>  (196) 
0

>  <pistack:HIS:51>  (196) 
1

>  <hydroph_interaction:HIS:51>  (196) 
1

>  <hbond:ALA:132>  (196) 
0

>  <hbond:SER:135>  (196) 
0

>  <hydroph_interaction:TYR:150>  (196) 
1

>  <pistack:TYR:161>  (196) 
1

>  <hydroph_interaction:TYR:161>  (196) 
1

>  <hydroph_interaction:ASP:83>  (196) 
0

>  <hbond:TYR:130>  (196) 
0

>  <hydroph_interaction:ALA:132>  (196) 
0

>  <hbond:HIS:51>  (196) 
0

>  <hbond:ASP:129>  (196) 
0

>  <hbond:TYR:150>  (196) 
0

>  <hbond:GLY:151>  (196) 
0

>  <hbond:TYR:161>  (196) 
0

>  <hydroph_interaction:TYR:130>  (196) 
0

>  <hydroph_interaction:PRO:131>  (196) 
0

>  <hydroph_interaction:ASP:129>  (196) 
0

>  <saltbridge:ASP:75>  (196) 
0

>  <saltbridge:ASP:83>  (196) 
0

>  <hydroph_interaction:ASN:152>  (196) 
0

>  <halogenbond:TYR:150>  (196) 
0

>  <hbond:ASP:83>  (196) 
0

>  <hydroph_interaction:VAL:155>  (196) 
1

>  <pication:TYR:161>  (196) 
0

>  <hbond:PRO:131>  (196) 
0

>  <hbond:LEU:128>  (196) 
0

>  <saltbridge:ASP:129>  (196) 
0

>  <hbond:THR:134>  (196) 
0

>  <pication:HIS:51>  (196) 
0

>  <hbond:SER:81>  (196) 
0

>  <hbond:GLY:159>  (196) 
0

>  <hydroph_interaction:PRO:101>  (196) 
0

>  <hydroph_interaction:THR:134>  (196) 
0

>  <hbond:GLY:82>  (196) 
0

>  <hydroph_interaction:GLU:104>  (196) 
0

>  <hydroph_interaction:VAL:36>  (196) 
0

>  <hydroph_interaction:MET:49>  (196) 
0

>  <halogenbond:GLU:104>  (196) 
0

>  <hydroph_interaction:LYS:107>  (196) 
0

$$$$
PV-002401566930
     RDKit          3D

 28 30  0  0  0  0  0  0  0  0999 V2000
   -9.8357    4.4828  -18.3690 C   0  0  0  0  0  0  0  0  0  0  0  0
   -9.2174    4.3305  -17.1067 C   0  0  0  0  0  0  0  0  0  0  0  0
   -7.9523    4.8955  -16.8597 C   0  0  0  0  0  0  0  0  0  0  0  0
   -7.3474    5.6029  -17.9002 C   0  0  0  0  0  0  0  0  0  0  0  0
   -7.9427    5.7479  -19.1191 C   0  0  0  0  0  0  0  0  0  0  0  0
   -9.1934    5.2006  -19.3958 C   0  0  0  0  0  0  0  0  0  0  0  0
   -7.1529    6.4537  -19.9503 N   0  0  0  0  0  0  0  0  0  0  0  0
   -6.0649    6.7254  -19.1828 C   0  0  0  0  0  0  0  0  0  0  0  0
   -6.1581    6.2249  -17.9259 N   0  0  0  0  0  0  0  0  0  0  0  0
   -5.1443    6.2905  -16.8740 C   0  0  0  0  0  0  0  0  0  0  0  0
   -4.3577    4.9717  -16.8068 C   0  0  0  0  0  0  0  0  0  0  0  0
   -3.3689    4.7756  -17.9552 C   0  0  0  0  0  0  0  0  0  0  0  0
   -2.2139    4.8045  -16.9636 C   0  0  0  0  0  0  0  0  0  0  0  0
   -3.1953    5.0073  -15.8171 C   0  0  0  0  0  0  0  0  0  0  0  0
  -10.8083    4.0433  -18.5480 H   0  0  0  0  0  0  0  0  0  0  0  0
   -9.7196    3.7751  -16.3254 H   0  0  0  0  0  0  0  0  0  0  0  0
   -7.4721    4.7814  -15.8969 H   0  0  0  0  0  0  0  0  0  0  0  0
   -9.6553    5.3202  -20.3672 H   0  0  0  0  0  0  0  0  0  0  0  0
   -5.2091    7.2801  -19.5454 H   0  0  0  0  0  0  0  0  0  0  0  0
   -5.6391    6.4720  -15.8958 H   0  0  0  0  0  0  0  0  0  0  0  0
   -4.4597    7.1473  -17.0632 H   0  0  0  0  0  0  0  0  0  0  0  0
   -5.0103    4.0837  -16.6519 H   0  0  0  0  0  0  0  0  0  0  0  0
   -3.4819    3.7836  -18.4446 H   0  0  0  0  0  0  0  0  0  0  0  0
   -3.3261    5.6234  -18.6737 H   0  0  0  0  0  0  0  0  0  0  0  0
   -1.5459    5.6809  -17.1128 H   0  0  0  0  0  0  0  0  0  0  0  0
   -1.6794    3.8314  -16.9017 H   0  0  0  0  0  0  0  0  0  0  0  0
   -3.0563    5.9885  -15.3110 H   0  0  0  0  0  0  0  0  0  0  0  0
   -3.2100    4.1442  -15.1162 H   0  0  0  0  0  0  0  0  0  0  0  0
  1  2  2  0
  2  3  1  0
  3  4  2  0
  4  5  1  0
  5  6  2  0
  5  7  1  0
  7  8  2  0
  8  9  1  0
  9 10  1  0
 10 11  1  0
 11 12  1  0
 12 13  1  0
 13 14  1  0
  6  1  1  0
  9  4  1  0
 14 11  1  0
  1 15  1  0
  2 16  1  0
  3 17  1  0
  6 18  1  0
  8 19  1  0
 10 20  1  0
 10 21  1  0
 11 22  1  0
 12 23  1  0
 12 24  1  0
 13 25  1  0
 13 26  1  0
 14 27  1  0
 14 28  1  0
A    1
 C1 
A    2
 C2 
A    3
 C3 
A    4
 C4 
A    5
 C5 
A    6
 C6 
A    7
 N1 
A    8
 C7 
A    9
 N2 
A   10
 C8 
A   11
 C9 
A   12
 C10
A   13
 C11
A   14
 C12
A   15
 H1 
A   16
 H2 
A   17
 H3 
A   18
 H4 
A   19
 H5 
A   20
 H6 
A   21
 H7 
A   22
 H8 
A   23
 H9 
A   24
 H10
A   25
 H11
A   26
 H12
A   27
 H13
A   28
 H14
M  END
>  <ref_pdb>  (197) 
x0051_0B

>  <ref_mols>  (197) 
x0490_0B,x0472_0B

>  <original SMILES>  (197) 
[H]c1c([H])c([H])c2c(nc([H])n2C([H])([H])C2([H])C([H])([H])C([H])([H])C2([H])[H])c1[H]

>  <index>  (197) 
237

>  <∆∆G>  (197) 
-5.044708

>  <∆G_bound>  (197) 
-4.842594

>  <∆G_unbound>  (197) 
0.202114

>  <comRMSD>  (197) 
0.825161

>  <N_constrained_atoms>  (197) 
16.0

>  <N_unconstrained_atoms>  (197) 
0.0

>  <runtime>  (197) 
23.5976

>  <LE>  (197) 
0.315294

>  <percent_hybrid>  (197) 
38.0

>  <dist>  (197) 
2.0

>  <ecfp4>  (197) 
0.560976

>  <daylight>  (197) 
0.776471

>  <topodist>  (197) 
1.0

>  <mces>  (197) 
15.0

>  <tdn>  (197) 
0.0

>  <tup>  (197) 
0.0

>  <rdn>  (197) 
0.0

>  <rup>  (197) 
1.0

>  <ldn>  (197) 
0.0

>  <lup>  (197) 
0.0

>  <mut>  (197) 
1.0

>  <maj>  (197) 
1.0

>  <min>  (197) 
0.0

>  <hyb>  (197) 
0.0

>  <sub>  (197) 
1.0

>  <query_index>  (197) 
228.0

>  <max_hit_Tanimoto>  (197) 
0.759709

>  <largest_ring>  (197) 
6

>  <N_interactions_kept>  (197) 
3.0

>  <N_interactions_lost>  (197) 
1.0

>  <interaction_uniqueness_metric>  (197) 
0.053763

>  <ad_hoc_penalty>  (197) 
-24.617016

>  <N_rotatable_bonds>  (197) 
2

>  <N_HA>  (197) 
14

>  <cluster>  (197) 
6003

>  <N_interactions>  (197) 
5

>  <Enamine>  (197) 
1

>  <Mcule>  (197) 
0

>  <N_PAINS>  (197) 
0

>  <UFF_Gibbs>  (197) 
72.833143

>  <strain_per_HA>  (197) 
4.552071

>  <saltbridge:HIS:51>  (197) 
0

>  <pistack:HIS:51>  (197) 
0

>  <hydroph_interaction:HIS:51>  (197) 
0

>  <hbond:ALA:132>  (197) 
0

>  <hbond:SER:135>  (197) 
0

>  <hydroph_interaction:TYR:150>  (197) 
1

>  <pistack:TYR:161>  (197) 
0

>  <hydroph_interaction:TYR:161>  (197) 
3

>  <hydroph_interaction:ASP:83>  (197) 
0

>  <hbond:TYR:130>  (197) 
0

>  <hydroph_interaction:ALA:132>  (197) 
1

>  <hbond:HIS:51>  (197) 
0

>  <hbond:ASP:129>  (197) 
0

>  <hbond:TYR:150>  (197) 
0

>  <hbond:GLY:151>  (197) 
0

>  <hbond:TYR:161>  (197) 
0

>  <hydroph_interaction:TYR:130>  (197) 
0

>  <hydroph_interaction:PRO:131>  (197) 
0

>  <hydroph_interaction:ASP:129>  (197) 
0

>  <saltbridge:ASP:75>  (197) 
0

>  <saltbridge:ASP:83>  (197) 
0

>  <hydroph_interaction:ASN:152>  (197) 
0

>  <halogenbond:TYR:150>  (197) 
0

>  <hbond:ASP:83>  (197) 
0

>  <hydroph_interaction:VAL:155>  (197) 
0

>  <pication:TYR:161>  (197) 
0

>  <hbond:PRO:131>  (197) 
0

>  <hbond:LEU:128>  (197) 
0

>  <saltbridge:ASP:129>  (197) 
0

>  <hbond:THR:134>  (197) 
0

>  <pication:HIS:51>  (197) 
0

>  <hbond:SER:81>  (197) 
0

>  <hbond:GLY:159>  (197) 
0

>  <hydroph_interaction:PRO:101>  (197) 
0

>  <hydroph_interaction:THR:134>  (197) 
0

>  <hbond:GLY:82>  (197) 
0

>  <hydroph_interaction:GLU:104>  (197) 
0

>  <hydroph_interaction:VAL:36>  (197) 
0

>  <hydroph_interaction:MET:49>  (197) 
0

>  <halogenbond:GLU:104>  (197) 
0

>  <hydroph_interaction:LYS:107>  (197) 
0

$$$$
MCULE-7754967700
     RDKit          3D

 26 27  0  0  0  0  0  0  0  0999 V2000
   -7.3974    4.4849  -21.3214 O   0  0  0  0  0  0  0  0  0  0  0  0
   -6.9584    5.2459  -20.2284 C   0  0  0  0  0  0  0  0  0  0  0  0
   -7.8958    5.0938  -19.0462 C   0  0  0  0  0  0  0  0  0  0  0  0
   -7.4468    5.2835  -17.7089 C   0  0  0  0  0  0  0  0  0  0  0  0
   -5.9856    5.5928  -17.4247 C   0  0  0  0  0  0  0  0  0  0  0  0
   -5.7346    6.1039  -16.0037 C   0  0  0  0  0  0  0  0  0  0  0  0
   -6.4462    5.2176  -14.9876 C   0  0  0  0  0  0  0  0  0  0  0  0
   -7.9582    5.2989  -15.1938 C   0  0  0  0  0  0  0  0  0  0  0  0
   -8.3620    5.1002  -16.6370 C   0  0  0  0  0  0  0  0  0  0  0  0
   -9.7082    4.8241  -16.9107 C   0  0  0  0  0  0  0  0  0  0  0  0
  -10.1536    4.7031  -18.2227 C   0  0  0  0  0  0  0  0  0  0  0  0
   -9.2607    4.8432  -19.2814 C   0  0  0  0  0  0  0  0  0  0  0  0
   -6.7681    4.6782  -22.0642 H   0  0  0  0  0  0  0  0  0  0  0  0
   -5.9352    4.9037  -19.9625 H   0  0  0  0  0  0  0  0  0  0  0  0
   -6.9157    6.3213  -20.5103 H   0  0  0  0  0  0  0  0  0  0  0  0
   -5.3914    4.6665  -17.5829 H   0  0  0  0  0  0  0  0  0  0  0  0
   -5.6167    6.3693  -18.1290 H   0  0  0  0  0  0  0  0  0  0  0  0
   -6.0969    7.1517  -15.9101 H   0  0  0  0  0  0  0  0  0  0  0  0
   -4.6422    6.0990  -15.7989 H   0  0  0  0  0  0  0  0  0  0  0  0
   -6.1961    5.5567  -13.9592 H   0  0  0  0  0  0  0  0  0  0  0  0
   -6.1048    4.1644  -15.0975 H   0  0  0  0  0  0  0  0  0  0  0  0
   -8.3194    6.2960  -14.8598 H   0  0  0  0  0  0  0  0  0  0  0  0
   -8.4434    4.5285  -14.5553 H   0  0  0  0  0  0  0  0  0  0  0  0
  -10.4204    4.7162  -16.1015 H   0  0  0  0  0  0  0  0  0  0  0  0
  -11.1987    4.5025  -18.4210 H   0  0  0  0  0  0  0  0  0  0  0  0
   -9.6423    4.7512  -20.2905 H   0  0  0  0  0  0  0  0  0  0  0  0
  1  2  1  0
  2  3  1  0
  3  4  2  0
  4  5  1  0
  5  6  1  0
  6  7  1  0
  7  8  1  0
  8  9  1  0
  9 10  2  0
 10 11  1  0
 11 12  2  0
  3 12  1  0
  4  9  1  0
  1 13  1  0
  2 14  1  0
  2 15  1  0
  5 16  1  0
  5 17  1  0
  6 18  1  0
  6 19  1  0
  7 20  1  0
  7 21  1  0
  8 22  1  0
  8 23  1  0
 10 24  1  0
 11 25  1  0
 12 26  1  0
A    1
 O1 
A    2
 C1 
A    3
 C2 
A    4
 C3 
A    5
 C4 
A    6
 C5 
A    7
 C6 
A    8
 C7 
A    9
 C8 
A   10
 C9 
A   11
 C10
A   12
 C11
A   13
 H1 
A   14
 H2 
A   15
 H3 
A   16
 H4 
A   17
 H5 
A   18
 H6 
A   19
 H7 
A   20
 H8 
A   21
 H9 
A   22
 H10
A   23
 H11
A   24
 H12
A   25
 H13
A   26
 H14
M  END
>  <ref_pdb>  (198) 
x0051_0B

>  <ref_mols>  (198) 
x0455_0B,x0382_0B

>  <original SMILES>  (198) 
[H]OC([H])([H])c1c([H])c([H])c([H])c2c1C([H])([H])C([H])([H])C([H])([H])C2([H])[H]

>  <index>  (198) 
218

>  <∆∆G>  (198) 
-5.674627

>  <∆G_bound>  (198) 
-5.371998

>  <∆G_unbound>  (198) 
0.302629

>  <comRMSD>  (198) 
0.694391

>  <N_constrained_atoms>  (198) 
12.0

>  <N_unconstrained_atoms>  (198) 
1.0

>  <runtime>  (198) 
17.700958

>  <LE>  (198) 
0.43651

>  <percent_hybrid>  (198) 
29.0

>  <dist>  (198) 
2.0

>  <ecfp4>  (198) 
0.3

>  <daylight>  (198) 
0.215686

>  <topodist>  (198) 
0.0

>  <mces>  (198) 
13.0

>  <tdn>  (198) 
0.0

>  <tup>  (198) 
0.0

>  <rdn>  (198) 
0.0

>  <rup>  (198) 
0.0

>  <ldn>  (198) 
0.0

>  <lup>  (198) 
0.0

>  <mut>  (198) 
2.0

>  <maj>  (198) 
2.0

>  <min>  (198) 
0.0

>  <hyb>  (198) 
0.0

>  <sub>  (198) 
0.0

>  <query_index>  (198) 
293.0

>  <max_hit_Tanimoto>  (198) 
0.136986

>  <largest_ring>  (198) 
6

>  <N_interactions_kept>  (198) 
0.0

>  <N_interactions_lost>  (198) 
1.5

>  <interaction_uniqueness_metric>  (198) 
0.108423

>  <ad_hoc_penalty>  (198) 
-24.500235

>  <N_rotatable_bonds>  (198) 
2

>  <N_HA>  (198) 
12

>  <cluster>  (198) 
6020

>  <N_interactions>  (198) 
6

>  <Enamine>  (198) 
0

>  <Mcule>  (198) 
1

>  <N_PAINS>  (198) 
0

>  <UFF_Gibbs>  (198) 
74.478216

>  <strain_per_HA>  (198) 
5.729094

>  <saltbridge:HIS:51>  (198) 
0

>  <pistack:HIS:51>  (198) 
0

>  <hydroph_interaction:HIS:51>  (198) 
0

>  <hbond:ALA:132>  (198) 
0

>  <hbond:SER:135>  (198) 
0

>  <hydroph_interaction:TYR:150>  (198) 
1

>  <pistack:TYR:161>  (198) 
0

>  <hydroph_interaction:TYR:161>  (198) 
2

>  <hydroph_interaction:ASP:83>  (198) 
0

>  <hbond:TYR:130>  (198) 
1

>  <hydroph_interaction:ALA:132>  (198) 
0

>  <hbond:HIS:51>  (198) 
0

>  <hbond:ASP:129>  (198) 
2

>  <hbond:TYR:150>  (198) 
0

>  <hbond:GLY:151>  (198) 
0

>  <hbond:TYR:161>  (198) 
0

>  <hydroph_interaction:TYR:130>  (198) 
0

>  <hydroph_interaction:PRO:131>  (198) 
0

>  <hydroph_interaction:ASP:129>  (198) 
0

>  <saltbridge:ASP:75>  (198) 
0

>  <saltbridge:ASP:83>  (198) 
0

>  <hydroph_interaction:ASN:152>  (198) 
0

>  <halogenbond:TYR:150>  (198) 
0

>  <hbond:ASP:83>  (198) 
0

>  <hydroph_interaction:VAL:155>  (198) 
0

>  <pication:TYR:161>  (198) 
0

>  <hbond:PRO:131>  (198) 
0

>  <hbond:LEU:128>  (198) 
0

>  <saltbridge:ASP:129>  (198) 
0

>  <hbond:THR:134>  (198) 
0

>  <pication:HIS:51>  (198) 
0

>  <hbond:SER:81>  (198) 
0

>  <hbond:GLY:159>  (198) 
0

>  <hydroph_interaction:PRO:101>  (198) 
0

>  <hydroph_interaction:THR:134>  (198) 
0

>  <hbond:GLY:82>  (198) 
0

>  <hydroph_interaction:GLU:104>  (198) 
0

>  <hydroph_interaction:VAL:36>  (198) 
0

>  <hydroph_interaction:MET:49>  (198) 
0

>  <halogenbond:GLU:104>  (198) 
0

>  <hydroph_interaction:LYS:107>  (198) 
0

$$$$
AZDXECMPUOCIKL-UHFFFAOYSA-N
     RDKit          3D

 36 39  0  0  0  0  0  0  0  0999 V2000
   -9.2221    6.0961  -12.8665 C   0  0  0  0  0  0  0  0  0  0  0  0
   -8.2138    5.4727  -13.6729 N   0  0  0  0  0  0  0  0  0  0  0  0
   -8.3990    5.1524  -15.0624 C   0  0  0  0  0  0  0  0  0  0  0  0
   -7.3107    5.0850  -15.9424 C   0  0  0  0  0  0  0  0  0  0  0  0
   -7.4652    4.7517  -17.2581 C   0  0  0  0  0  0  0  0  0  0  0  0
   -6.2033    4.8020  -17.8065 C   0  0  0  0  0  0  0  0  0  0  0  0
   -5.3331    5.1606  -16.8324 N   0  0  0  0  0  0  0  0  0  0  0  0
   -6.0109    5.3320  -15.7024 N   0  0  0  0  0  0  0  0  0  0  0  0
   -8.7055    4.4491  -17.8092 C   0  0  0  0  0  0  0  0  0  0  0  0
   -9.8226    4.4915  -16.9562 C   0  0  0  0  0  0  0  0  0  0  0  0
   -9.6735    4.8351  -15.5930 C   0  0  0  0  0  0  0  0  0  0  0  0
  -10.0719    6.8590  -13.4009 O   0  0  0  0  0  0  0  0  0  0  0  0
   -9.2378    5.9167  -11.4042 C   0  0  0  0  0  0  0  0  0  0  0  0
   -8.8309    4.8264  -10.6507 C   0  0  0  0  0  0  0  0  0  0  0  0
   -9.1480    5.0687   -9.3644 N   0  0  0  0  0  0  0  0  0  0  0  0
   -8.8911    4.1653   -8.2447 C   0  0  0  0  0  0  0  0  0  0  0  0
   -8.7780    2.7157   -8.7386 C   0  0  0  0  0  0  0  0  0  0  0  0
   -7.8496    2.6301   -9.9594 C   0  0  0  0  0  0  0  0  0  0  0  0
   -8.3773    3.4742  -11.1308 C   0  0  0  0  0  0  0  0  0  0  0  0
   -9.6998    6.2653   -9.2458 N   0  0  0  0  0  0  0  0  0  0  0  0
   -9.7759    6.7997  -10.4814 C   0  0  0  0  0  0  0  0  0  0  0  0
   -7.2712    5.3368  -13.2465 H   0  0  0  0  0  0  0  0  0  0  0  0
   -5.9310    4.5987  -18.8335 H   0  0  0  0  0  0  0  0  0  0  0  0
   -5.5770    5.6203  -14.7983 H   0  0  0  0  0  0  0  0  0  0  0  0
   -8.8080    4.1868  -18.8543 H   0  0  0  0  0  0  0  0  0  0  0  0
  -10.8035    4.2517  -17.3454 H   0  0  0  0  0  0  0  0  0  0  0  0
  -10.5483    4.8301  -14.9565 H   0  0  0  0  0  0  0  0  0  0  0  0
   -7.9429    4.4650   -7.7488 H   0  0  0  0  0  0  0  0  0  0  0  0
   -9.7157    4.2400   -7.5035 H   0  0  0  0  0  0  0  0  0  0  0  0
   -9.7868    2.3370   -9.0136 H   0  0  0  0  0  0  0  0  0  0  0  0
   -8.3793    2.0771   -7.9213 H   0  0  0  0  0  0  0  0  0  0  0  0
   -7.7604    1.5705  -10.2822 H   0  0  0  0  0  0  0  0  0  0  0  0
   -6.8346    2.9856   -9.6744 H   0  0  0  0  0  0  0  0  0  0  0  0
   -7.5715    3.5714  -11.8836 H   0  0  0  0  0  0  0  0  0  0  0  0
   -9.2406    2.9559  -11.6005 H   0  0  0  0  0  0  0  0  0  0  0  0
  -10.2085    7.7676  -10.6977 H   0  0  0  0  0  0  0  0  0  0  0  0
  1  2  1  0
  2  3  1  0
  3  4  1  0
  4  5  2  0
  5  6  1  0
  6  7  2  0
  7  8  1  0
  5  9  1  0
  9 10  2  0
 10 11  1  0
  1 12  2  0
  1 13  1  0
 13 14  2  0
 14 15  1  0
 15 16  1  0
 16 17  1  0
 17 18  1  0
 18 19  1  0
 15 20  1  0
 20 21  2  0
  3 11  2  0
  8  4  1  0
 21 13  1  0
 19 14  1  0
  2 22  1  0
  6 23  1  0
  8 24  1  0
  9 25  1  0
 10 26  1  0
 11 27  1  0
 16 28  1  0
 16 29  1  0
 17 30  1  0
 17 31  1  0
 18 32  1  0
 18 33  1  0
 19 34  1  0
 19 35  1  0
 21 36  1  0
A    1
 C1 
A    2
 N1 
A    3
 C2 
A    4
 C3 
A    5
 C4 
A    6
 C5 
A    7
 N2 
A    8
 N3 
A    9
 C6 
A   10
 C7 
A   11
 C8 
A   12
 O1 
A   13
 C9 
A   14
 C10
A   15
 N4 
A   16
 C11
A   17
 C12
A   18
 C13
A   19
 C14
A   20
 N5 
A   21
 C15
A   22
 H1 
A   23
 H2 
A   24
 H3 
A   25
 H4 
A   26
 H5 
A   27
 H6 
A   28
 H7 
A   29
 H8 
A   30
 H9 
A   31
 H10
A   32
 H11
A   33
 H12
A   34
 H13
A   35
 H14
A   36
 H15
M  END
>  <ref_pdb>  (199) 
x0051_0B

>  <ref_mols>  (199) 
x0435_0B,x0969_1B

>  <original SMILES>  (199) 
[H]c1nn2c(c1C(=O)N([H])c1c([H])c([H])c([H])c3c([H])nn([H])c13)C([H])([H])C([H])([H])C([H])([H])C2([H])[H]

>  <index>  (199) 
235

>  <∆∆G>  (199) 
-6.640153

>  <∆G_bound>  (199) 
-6.124794

>  <∆G_unbound>  (199) 
0.515359

>  <comRMSD>  (199) 
0.718397

>  <N_constrained_atoms>  (199) 
20.0

>  <N_unconstrained_atoms>  (199) 
2.0

>  <runtime>  (199) 
45.930848

>  <LE>  (199) 
0.301825

>  <percent_hybrid>  (199) 
50.0

>  <dist>  (199) 
8.0

>  <ecfp4>  (199) 
0.162791

>  <daylight>  (199) 
0.264535

>  <topodist>  (199) 
3.0

>  <mces>  (199) 
23.0

>  <tdn>  (199) 
1.0

>  <tup>  (199) 
1.0

>  <rdn>  (199) 
0.0

>  <rup>  (199) 
0.0

>  <ldn>  (199) 
1.0

>  <lup>  (199) 
0.0

>  <mut>  (199) 
3.0

>  <maj>  (199) 
3.0

>  <min>  (199) 
0.0

>  <hyb>  (199) 
2.0

>  <sub>  (199) 
1.0

>  <query_index>  (199) 
311.0

>  <max_hit_Tanimoto>  (199) 
0.312445

>  <largest_ring>  (199) 
6

>  <N_interactions_kept>  (199) 
2.5

>  <N_interactions_lost>  (199) 
1.0

>  <interaction_uniqueness_metric>  (199) 
0.135106

>  <ad_hoc_penalty>  (199) 
-24.468939

>  <N_rotatable_bonds>  (199) 
2

>  <N_HA>  (199) 
21

>  <cluster>  (199) 
6005

>  <N_interactions>  (199) 
4

>  <Enamine>  (199) 
0

>  <Mcule>  (199) 
1

>  <N_PAINS>  (199) 
0

>  <UFF_Gibbs>  (199) 
120.253908

>  <strain_per_HA>  (199) 
5.466087

>  <saltbridge:HIS:51>  (199) 
0

>  <pistack:HIS:51>  (199) 
1

>  <hydroph_interaction:HIS:51>  (199) 
0

>  <hbond:ALA:132>  (199) 
0

>  <hbond:SER:135>  (199) 
0

>  <hydroph_interaction:TYR:150>  (199) 
0

>  <pistack:TYR:161>  (199) 
1

>  <hydroph_interaction:TYR:161>  (199) 
1

>  <hydroph_interaction:ASP:83>  (199) 
1

>  <hbond:TYR:130>  (199) 
0

>  <hydroph_interaction:ALA:132>  (199) 
0

>  <hbond:HIS:51>  (199) 
0

>  <hbond:ASP:129>  (199) 
0

>  <hbond:TYR:150>  (199) 
0

>  <hbond:GLY:151>  (199) 
0

>  <hbond:TYR:161>  (199) 
0

>  <hydroph_interaction:TYR:130>  (199) 
0

>  <hydroph_interaction:PRO:131>  (199) 
0

>  <hydroph_interaction:ASP:129>  (199) 
0

>  <saltbridge:ASP:75>  (199) 
0

>  <saltbridge:ASP:83>  (199) 
0

>  <hydroph_interaction:ASN:152>  (199) 
0

>  <halogenbond:TYR:150>  (199) 
0

>  <hbond:ASP:83>  (199) 
0

>  <hydroph_interaction:VAL:155>  (199) 
0

>  <pication:TYR:161>  (199) 
0

>  <hbond:PRO:131>  (199) 
0

>  <hbond:LEU:128>  (199) 
0

>  <saltbridge:ASP:129>  (199) 
0

>  <hbond:THR:134>  (199) 
0

>  <pication:HIS:51>  (199) 
0

>  <hbond:SER:81>  (199) 
0

>  <hbond:GLY:159>  (199) 
0

>  <hydroph_interaction:PRO:101>  (199) 
0

>  <hydroph_interaction:THR:134>  (199) 
0

>  <hbond:GLY:82>  (199) 
0

>  <hydroph_interaction:GLU:104>  (199) 
0

>  <hydroph_interaction:VAL:36>  (199) 
0

>  <hydroph_interaction:MET:49>  (199) 
0

>  <halogenbond:GLU:104>  (199) 
0

>  <hydroph_interaction:LYS:107>  (199) 
0

$$$$
MCULE-9832526847
     RDKit          3D

 38 40  0  0  0  0  0  0  0  0999 V2000
   -7.8074    6.5399  -14.5900 O   0  0  0  0  0  0  0  0  0  0  0  0
   -8.3553    5.4566  -14.9342 C   0  0  0  0  0  0  0  0  0  0  0  0
   -8.9382    4.6251  -13.9727 O   0  0  0  0  0  0  0  0  0  0  0  0
   -8.9106    4.9230  -12.5809 C   0  0  0  0  0  0  0  0  0  0  0  0
   -9.6249    3.8240  -11.8109 C   0  0  0  0  0  0  0  0  0  0  0  0
   -8.4529    5.0943  -16.3635 C   0  0  0  0  0  0  0  0  0  0  0  0
   -7.4018    5.3142  -17.2984 C   0  0  0  0  0  0  0  0  0  0  0  0
   -6.0163    5.6800  -16.9115 C   0  0  0  0  0  0  0  0  0  0  0  0
   -5.6190    5.5647  -15.7217 O   0  0  0  0  0  0  0  0  0  0  0  0
   -5.0812    6.0842  -17.9168 N   0  0  0  0  0  0  0  0  0  0  0  0
   -5.4780    6.2499  -19.3200 C   0  0  0  0  0  0  0  0  0  0  0  0
   -4.3102    5.9439  -20.2611 C   0  0  0  0  0  0  0  0  0  0  0  0
   -4.5285    6.8170  -21.4929 C   0  0  0  0  0  0  0  0  0  0  0  0
   -5.5113    7.9166  -21.0898 C   0  0  0  0  0  0  0  0  0  0  0  0
   -5.8269    7.7065  -19.6139 C   0  0  0  0  0  0  0  0  0  0  0  0
   -6.6234    5.3845  -19.6393 N   0  0  0  0  0  0  0  0  0  0  0  0
   -7.6428    5.0956  -18.6701 C   0  0  0  0  0  0  0  0  0  0  0  0
   -8.8747    4.5827  -19.0951 C   0  0  0  0  0  0  0  0  0  0  0  0
   -9.8778    4.3047  -18.1703 C   0  0  0  0  0  0  0  0  0  0  0  0
   -9.6727    4.5646  -16.8165 C   0  0  0  0  0  0  0  0  0  0  0  0
   -7.8571    4.9908  -12.2324 H   0  0  0  0  0  0  0  0  0  0  0  0
   -9.4205    5.8930  -12.3943 H   0  0  0  0  0  0  0  0  0  0  0  0
   -9.6056    4.0536  -10.7247 H   0  0  0  0  0  0  0  0  0  0  0  0
  -10.6813    3.7513  -12.1460 H   0  0  0  0  0  0  0  0  0  0  0  0
   -9.1195    2.8501  -11.9832 H   0  0  0  0  0  0  0  0  0  0  0  0
   -4.1343    6.4029  -17.6082 H   0  0  0  0  0  0  0  0  0  0  0  0
   -3.3428    6.2286  -19.7906 H   0  0  0  0  0  0  0  0  0  0  0  0
   -4.2652    4.8654  -20.5291 H   0  0  0  0  0  0  0  0  0  0  0  0
   -3.5657    7.2535  -21.8379 H   0  0  0  0  0  0  0  0  0  0  0  0
   -4.9593    6.2076  -22.3176 H   0  0  0  0  0  0  0  0  0  0  0  0
   -6.4441    7.8266  -21.6891 H   0  0  0  0  0  0  0  0  0  0  0  0
   -5.0736    8.9248  -21.2580 H   0  0  0  0  0  0  0  0  0  0  0  0
   -5.1843    8.3830  -19.0067 H   0  0  0  0  0  0  0  0  0  0  0  0
   -6.8923    7.9337  -19.3892 H   0  0  0  0  0  0  0  0  0  0  0  0
   -6.8102    5.1518  -20.6421 H   0  0  0  0  0  0  0  0  0  0  0  0
   -9.0571    4.3985  -20.1464 H   0  0  0  0  0  0  0  0  0  0  0  0
  -10.8270    3.9077  -18.5064 H   0  0  0  0  0  0  0  0  0  0  0  0
  -10.4841    4.3799  -16.1226 H   0  0  0  0  0  0  0  0  0  0  0  0
  1  2  2  0
  2  3  1  0
  3  4  1  0
  4  5  1  0
  2  6  1  0
  6  7  2  0
  7  8  1  0
  8  9  2  0
  8 10  1  0
 10 11  1  0
 11 12  1  0
 12 13  1  0
 13 14  1  0
 14 15  1  0
 11 16  1  0
 16 17  1  0
 17 18  2  0
 18 19  1  0
 19 20  2  0
  6 20  1  0
  7 17  1  0
 15 11  1  0
  4 21  1  0
  4 22  1  0
  5 23  1  0
  5 24  1  0
  5 25  1  0
 10 26  1  0
 12 27  1  0
 12 28  1  0
 13 29  1  0
 13 30  1  0
 14 31  1  0
 14 32  1  0
 15 33  1  0
 15 34  1  0
 16 35  1  0
 18 36  1  0
 19 37  1  0
 20 38  1  0
A    1
 O1 
A    2
 C1 
A    3
 O2 
A    4
 C2 
A    5
 C3 
A    6
 C4 
A    7
 C5 
A    8
 C6 
A    9
 O3 
A   10
 N1 
A   11
 C7 
A   12
 C8 
A   13
 C9 
A   14
 C10
A   15
 C11
A   16
 N2 
A   17
 C12
A   18
 C13
A   19
 C14
A   20
 C15
A   21
 H1 
A   22
 H2 
A   23
 H3 
A   24
 H4 
A   25
 H5 
A   26
 H6 
A   27
 H7 
A   28
 H8 
A   29
 H9 
A   30
 H10
A   31
 H11
A   32
 H12
A   33
 H13
A   34
 H14
A   35
 H15
A   36
 H16
A   37
 H17
A   38
 H18
M  END
>  <ref_pdb>  (200) 
x0051_0B

>  <ref_mols>  (200) 
x1098_0B,x0229_0B

>  <original SMILES>  (200) 
[H]c1c([H])c(C(=O)OC([H])([H])C([H])([H])[H])c2c(c1[H])N([H])C1(N([H])C2=O)C([H])([H])C([H])([H])C([H])([H])C1([H])[H]

>  <index>  (200) 
457

>  <∆∆G>  (200) 
-7.150362

>  <∆G_bound>  (200) 
-5.67163

>  <∆G_unbound>  (200) 
1.478732

>  <comRMSD>  (200) 
0.790781

>  <N_constrained_atoms>  (200) 
25.0

>  <N_unconstrained_atoms>  (200) 
0.0

>  <runtime>  (200) 
43.330963

>  <LE>  (200) 
0.286014

>  <percent_hybrid>  (200) 
45.0

>  <dist>  (200) 
12.0

>  <ecfp4>  (200) 
0.214286

>  <daylight>  (200) 
0.317726

>  <topodist>  (200) 
5.0

>  <mces>  (200) 
22.0

>  <tdn>  (200) 
2.0

>  <tup>  (200) 
0.0

>  <rdn>  (200) 
1.0

>  <rup>  (200) 
0.0

>  <ldn>  (200) 
2.0

>  <lup>  (200) 
0.0

>  <mut>  (200) 
6.0

>  <maj>  (200) 
6.0

>  <min>  (200) 
0.0

>  <hyb>  (200) 
1.0

>  <sub>  (200) 
0.0

>  <query_index>  (200) 
28.0

>  <max_hit_Tanimoto>  (200) 
0.356044

>  <largest_ring>  (200) 
6

>  <N_interactions_kept>  (200) 
3.0

>  <N_interactions_lost>  (200) 
2.5

>  <interaction_uniqueness_metric>  (200) 
0.172717

>  <ad_hoc_penalty>  (200) 
-24.462766

>  <N_rotatable_bonds>  (200) 
3

>  <N_HA>  (200) 
20

>  <cluster>  (200) 
5803

>  <N_interactions>  (200) 
6

>  <Enamine>  (200) 
0

>  <Mcule>  (200) 
1

>  <N_PAINS>  (200) 
0

>  <UFF_Gibbs>  (200) 
44.967381

>  <strain_per_HA>  (200) 
1.798695

>  <saltbridge:HIS:51>  (200) 
1

>  <pistack:HIS:51>  (200) 
0

>  <hydroph_interaction:HIS:51>  (200) 
0

>  <hbond:ALA:132>  (200) 
0

>  <hbond:SER:135>  (200) 
0

>  <hydroph_interaction:TYR:150>  (200) 
1

>  <pistack:TYR:161>  (200) 
1

>  <hydroph_interaction:TYR:161>  (200) 
1

>  <hydroph_interaction:ASP:83>  (200) 
0

>  <hbond:TYR:130>  (200) 
1

>  <hydroph_interaction:ALA:132>  (200) 
1

>  <hbond:HIS:51>  (200) 
0

>  <hbond:ASP:129>  (200) 
0

>  <hbond:TYR:150>  (200) 
0

>  <hbond:GLY:151>  (200) 
0

>  <hbond:TYR:161>  (200) 
0

>  <hydroph_interaction:TYR:130>  (200) 
0

>  <hydroph_interaction:PRO:131>  (200) 
0

>  <hydroph_interaction:ASP:129>  (200) 
0

>  <saltbridge:ASP:75>  (200) 
0

>  <saltbridge:ASP:83>  (200) 
0

>  <hydroph_interaction:ASN:152>  (200) 
0

>  <halogenbond:TYR:150>  (200) 
0

>  <hbond:ASP:83>  (200) 
0

>  <hydroph_interaction:VAL:155>  (200) 
0

>  <pication:TYR:161>  (200) 
0

>  <hbond:PRO:131>  (200) 
0

>  <hbond:LEU:128>  (200) 
0

>  <saltbridge:ASP:129>  (200) 
0

>  <hbond:THR:134>  (200) 
0

>  <pication:HIS:51>  (200) 
0

>  <hbond:SER:81>  (200) 
0

>  <hbond:GLY:159>  (200) 
0

>  <hydroph_interaction:PRO:101>  (200) 
0

>  <hydroph_interaction:THR:134>  (200) 
0

>  <hbond:GLY:82>  (200) 
0

>  <hydroph_interaction:GLU:104>  (200) 
0

>  <hydroph_interaction:VAL:36>  (200) 
0

>  <hydroph_interaction:MET:49>  (200) 
0

>  <halogenbond:GLU:104>  (200) 
0

>  <hydroph_interaction:LYS:107>  (200) 
0

$$$$
CSSS00000155548
     RDKit          3D

 27 27  0  0  0  0  0  0  0  0999 V2000
   -9.6681    7.8801  -13.3018 C   0  0  0  0  0  0  0  0  0  0  0  0
   -9.7636    6.3706  -13.1142 C   0  0  0  0  0  0  0  0  0  0  0  0
   -9.0962    5.6564  -14.2503 C   0  0  0  0  0  0  0  0  0  0  0  0
   -7.9306    5.2015  -14.0950 O   0  0  0  0  0  0  0  0  0  0  0  0
   -9.7862    5.4934  -15.4998 N   0  0  0  0  0  0  0  0  0  0  0  0
   -9.1599    5.0392  -16.7117 C   0  0  0  0  0  0  0  0  0  0  0  0
   -9.8970    4.2609  -17.6135 C   0  0  0  0  0  0  0  0  0  0  0  0
   -9.3189    3.8251  -18.8059 C   0  0  0  0  0  0  0  0  0  0  0  0
   -8.0035    4.1740  -19.1179 C   0  0  0  0  0  0  0  0  0  0  0  0
   -7.2483    4.9758  -18.2418 C   0  0  0  0  0  0  0  0  0  0  0  0
   -7.8432    5.4114  -17.0400 C   0  0  0  0  0  0  0  0  0  0  0  0
   -5.8533    5.3539  -18.5970 C   0  0  0  0  0  0  0  0  0  0  0  0
   -4.9965    6.1767  -17.6817 C   0  0  0  0  0  0  0  0  0  0  0  0
   -5.3649    4.9802  -19.6982 O   0  0  0  0  0  0  0  0  0  0  0  0
  -10.1627    8.3926  -12.4500 H   0  0  0  0  0  0  0  0  0  0  0  0
  -10.1745    8.1852  -14.2426 H   0  0  0  0  0  0  0  0  0  0  0  0
   -8.6038    8.1972  -13.3387 H   0  0  0  0  0  0  0  0  0  0  0  0
   -9.2804    6.0888  -12.1535 H   0  0  0  0  0  0  0  0  0  0  0  0
  -10.8321    6.0708  -13.0608 H   0  0  0  0  0  0  0  0  0  0  0  0
  -10.8214    5.6381  -15.5066 H   0  0  0  0  0  0  0  0  0  0  0  0
  -10.9185    3.9832  -17.3853 H   0  0  0  0  0  0  0  0  0  0  0  0
   -9.8926    3.2151  -19.4918 H   0  0  0  0  0  0  0  0  0  0  0  0
   -7.5809    3.8206  -20.0501 H   0  0  0  0  0  0  0  0  0  0  0  0
   -7.2993    6.0622  -16.3706 H   0  0  0  0  0  0  0  0  0  0  0  0
   -4.8943    5.6675  -16.7005 H   0  0  0  0  0  0  0  0  0  0  0  0
   -3.9818    6.3110  -18.1135 H   0  0  0  0  0  0  0  0  0  0  0  0
   -5.4524    7.1786  -17.5385 H   0  0  0  0  0  0  0  0  0  0  0  0
  1  2  1  0
  2  3  1  0
  3  4  2  0
  3  5  1  0
  5  6  1  0
  6  7  2  0
  7  8  1  0
  8  9  2  0
  9 10  1  0
 10 11  2  0
 10 12  1  0
 12 13  1  0
 12 14  2  0
 11  6  1  0
  1 15  1  0
  1 16  1  0
  1 17  1  0
  2 18  1  0
  2 19  1  0
  5 20  1  0
  7 21  1  0
  8 22  1  0
  9 23  1  0
 11 24  1  0
 13 25  1  0
 13 26  1  0
 13 27  1  0
A    1
 C1 
A    2
 C2 
A    3
 C3 
A    4
 O1 
A    5
 N1 
A    6
 C4 
A    7
 C5 
A    8
 C6 
A    9
 C7 
A   10
 C8 
A   11
 C9 
A   12
 C10
A   13
 C11
A   14
 O2 
A   15
 H1 
A   16
 H2 
A   17
 H3 
A   18
 H4 
A   19
 H5 
A   20
 H6 
A   21
 H7 
A   22
 H8 
A   23
 H9 
A   24
 H10
A   25
 H11
A   26
 H12
A   27
 H13
M  END
>  <ref_pdb>  (201) 
x0051_0B

>  <ref_mols>  (201) 
x0490_0B,x0951_0B

>  <original SMILES>  (201) 
[H]c1c([H])c(C(=O)C([H])([H])[H])c([H])c(N([H])C(=O)C([H])([H])C([H])([H])[H])c1[H]

>  <index>  (201) 
378

>  <∆∆G>  (201) 
-7.278072

>  <∆G_bound>  (201) 
-6.998173

>  <∆G_unbound>  (201) 
0.279898

>  <comRMSD>  (201) 
0.91986

>  <N_constrained_atoms>  (201) 
17.0

>  <N_unconstrained_atoms>  (201) 
1.0

>  <runtime>  (201) 
45.282682

>  <LE>  (201) 
0.404337

>  <percent_hybrid>  (201) 
46.0

>  <dist>  (201) 
8.0

>  <ecfp4>  (201) 
0.183333

>  <daylight>  (201) 
0.362069

>  <topodist>  (201) 
5.0

>  <mces>  (201) 
13.0

>  <tdn>  (201) 
3.0

>  <tup>  (201) 
1.0

>  <rdn>  (201) 
0.0

>  <rup>  (201) 
0.0

>  <ldn>  (201) 
1.0

>  <lup>  (201) 
0.0

>  <mut>  (201) 
1.0

>  <maj>  (201) 
1.0

>  <min>  (201) 
0.0

>  <hyb>  (201) 
2.0

>  <sub>  (201) 
1.0

>  <query_index>  (201) 
300.0

>  <max_hit_Tanimoto>  (201) 
0.101449

>  <largest_ring>  (201) 
6

>  <N_interactions_kept>  (201) 
2.0

>  <N_interactions_lost>  (201) 
1.5

>  <interaction_uniqueness_metric>  (201) 
0.099517

>  <ad_hoc_penalty>  (201) 
-24.445459

>  <N_rotatable_bonds>  (201) 
5

>  <N_HA>  (201) 
14

>  <cluster>  (201) 
5871

>  <N_interactions>  (201) 
6

>  <Enamine>  (201) 
1

>  <Mcule>  (201) 
0

>  <N_PAINS>  (201) 
0

>  <UFF_Gibbs>  (201) 
42.849909

>  <strain_per_HA>  (201) 
2.38055

>  <saltbridge:HIS:51>  (201) 
0

>  <pistack:HIS:51>  (201) 
0

>  <hydroph_interaction:HIS:51>  (201) 
0

>  <hbond:ALA:132>  (201) 
0

>  <hbond:SER:135>  (201) 
2

>  <hydroph_interaction:TYR:150>  (201) 
1

>  <pistack:TYR:161>  (201) 
0

>  <hydroph_interaction:TYR:161>  (201) 
3

>  <hydroph_interaction:ASP:83>  (201) 
0

>  <hbond:TYR:130>  (201) 
0

>  <hydroph_interaction:ALA:132>  (201) 
0

>  <hbond:HIS:51>  (201) 
0

>  <hbond:ASP:129>  (201) 
0

>  <hbond:TYR:150>  (201) 
0

>  <hbond:GLY:151>  (201) 
0

>  <hbond:TYR:161>  (201) 
0

>  <hydroph_interaction:TYR:130>  (201) 
0

>  <hydroph_interaction:PRO:131>  (201) 
0

>  <hydroph_interaction:ASP:129>  (201) 
0

>  <saltbridge:ASP:75>  (201) 
0

>  <saltbridge:ASP:83>  (201) 
0

>  <hydroph_interaction:ASN:152>  (201) 
0

>  <halogenbond:TYR:150>  (201) 
0

>  <hbond:ASP:83>  (201) 
0

>  <hydroph_interaction:VAL:155>  (201) 
0

>  <pication:TYR:161>  (201) 
0

>  <hbond:PRO:131>  (201) 
0

>  <hbond:LEU:128>  (201) 
0

>  <saltbridge:ASP:129>  (201) 
0

>  <hbond:THR:134>  (201) 
0

>  <pication:HIS:51>  (201) 
0

>  <hbond:SER:81>  (201) 
0

>  <hbond:GLY:159>  (201) 
0

>  <hydroph_interaction:PRO:101>  (201) 
0

>  <hydroph_interaction:THR:134>  (201) 
0

>  <hbond:GLY:82>  (201) 
0

>  <hydroph_interaction:GLU:104>  (201) 
0

>  <hydroph_interaction:VAL:36>  (201) 
0

>  <hydroph_interaction:MET:49>  (201) 
0

>  <halogenbond:GLU:104>  (201) 
0

>  <hydroph_interaction:LYS:107>  (201) 
0

$$$$
MCULE-9736029837
     RDKit          3D

 41 43  0  0  0  0  0  0  0  0999 V2000
   -8.2191    5.7906   -8.5706 O   0  0  0  0  0  0  0  0  0  0  0  0
   -8.8805    4.6656   -8.4379 C   0  0  0  0  0  0  0  0  0  0  0  0
   -9.4407    4.1393   -7.2757 C   0  0  0  0  0  0  0  0  0  0  0  0
  -10.1202    2.9108   -7.3714 C   0  0  0  0  0  0  0  0  0  0  0  0
  -10.2245    2.2451   -8.6138 C   0  0  0  0  0  0  0  0  0  0  0  0
   -9.6462    2.7999   -9.7706 C   0  0  0  0  0  0  0  0  0  0  0  0
   -8.9768    4.0167   -9.6407 C   0  0  0  0  0  0  0  0  0  0  0  0
   -8.3169    4.8038  -10.5593 C   0  0  0  0  0  0  0  0  0  0  0  0
   -8.1703    4.5707  -12.0327 C   0  0  0  0  0  0  0  0  0  0  0  0
   -9.4229    5.0331  -12.7802 C   0  0  0  0  0  0  0  0  0  0  0  0
   -9.2862    4.7738  -14.2120 N   0  0  0  0  0  0  0  0  0  0  0  0
   -8.4869    5.6042  -15.0717 C   0  0  0  0  0  0  0  0  0  0  0  0
   -7.8213    6.5546  -14.5762 O   0  0  0  0  0  0  0  0  0  0  0  0
   -8.4155    5.3549  -16.5320 C   0  0  0  0  0  0  0  0  0  0  0  0
   -9.4723    4.7291  -17.2172 C   0  0  0  0  0  0  0  0  0  0  0  0
   -9.3845    4.4988  -18.5921 C   0  0  0  0  0  0  0  0  0  0  0  0
   -8.2519    4.9014  -19.3026 C   0  0  0  0  0  0  0  0  0  0  0  0
   -7.1988    5.5574  -18.6411 C   0  0  0  0  0  0  0  0  0  0  0  0
   -7.2842    5.7685  -17.2592 C   0  0  0  0  0  0  0  0  0  0  0  0
   -6.0384    5.9769  -19.3095 O   0  0  0  0  0  0  0  0  0  0  0  0
   -5.9694    6.3501  -20.6581 C   0  0  0  0  0  0  0  0  0  0  0  0
   -4.6341    6.5116  -21.3009 C   0  0  0  0  0  0  0  0  0  0  0  0
   -7.0096    6.6482  -21.3053 O   0  0  0  0  0  0  0  0  0  0  0  0
   -7.8699    5.9070   -9.8399 C   0  0  0  0  0  0  0  0  0  0  0  0
   -9.3571    4.6600   -6.3302 H   0  0  0  0  0  0  0  0  0  0  0  0
  -10.5687    2.4741   -6.4880 H   0  0  0  0  0  0  0  0  0  0  0  0
  -10.7510    1.3018   -8.6759 H   0  0  0  0  0  0  0  0  0  0  0  0
   -9.7228    2.2975  -10.7263 H   0  0  0  0  0  0  0  0  0  0  0  0
   -8.0013    3.4886  -12.2202 H   0  0  0  0  0  0  0  0  0  0  0  0
   -7.2807    5.1235  -12.4022 H   0  0  0  0  0  0  0  0  0  0  0  0
   -9.6034    6.1170  -12.6078 H   0  0  0  0  0  0  0  0  0  0  0  0
  -10.3047    4.4754  -12.3951 H   0  0  0  0  0  0  0  0  0  0  0  0
   -9.7718    3.9344  -14.5984 H   0  0  0  0  0  0  0  0  0  0  0  0
  -10.3758    4.4323  -16.7024 H   0  0  0  0  0  0  0  0  0  0  0  0
  -10.1975    4.0048  -19.1090 H   0  0  0  0  0  0  0  0  0  0  0  0
   -8.1934    4.6768  -20.3586 H   0  0  0  0  0  0  0  0  0  0  0  0
   -6.4591    6.2560  -16.7539 H   0  0  0  0  0  0  0  0  0  0  0  0
   -4.2702    7.5489  -21.1403 H   0  0  0  0  0  0  0  0  0  0  0  0
   -4.7047    6.3114  -22.3922 H   0  0  0  0  0  0  0  0  0  0  0  0
   -3.9106    5.8000  -20.8506 H   0  0  0  0  0  0  0  0  0  0  0  0
   -7.3181    6.7454  -10.2441 H   0  0  0  0  0  0  0  0  0  0  0  0
  1  2  1  0
  2  3  2  0
  3  4  1  0
  4  5  2  0
  5  6  1  0
  6  7  2  0
  7  8  1  0
  8  9  1  0
  9 10  1  0
 10 11  1  0
 11 12  1  0
 12 13  2  0
 12 14  1  0
 14 15  2  0
 15 16  1  0
 16 17  2  0
 17 18  1  0
 18 19  2  0
 18 20  1  0
 20 21  1  0
 21 22  1  0
 21 23  2  0
  8 24  2  0
 24  1  1  0
  7  2  1  0
 19 14  1  0
  3 25  1  0
  4 26  1  0
  5 27  1  0
  6 28  1  0
  9 29  1  0
  9 30  1  0
 10 31  1  0
 10 32  1  0
 11 33  1  0
 15 34  1  0
 16 35  1  0
 17 36  1  0
 19 37  1  0
 22 38  1  0
 22 39  1  0
 22 40  1  0
 24 41  1  0
A    1
 O1 
A    2
 C1 
A    3
 C2 
A    4
 C3 
A    5
 C4 
A    6
 C5 
A    7
 C6 
A    8
 C7 
A    9
 C8 
A   10
 C9 
A   11
 N1 
A   12
 C10
A   13
 O2 
A   14
 C11
A   15
 C12
A   16
 C13
A   17
 C14
A   18
 C15
A   19
 C16
A   20
 O3 
A   21
 C17
A   22
 C18
A   23
 O4 
A   24
 C19
A   25
 H1 
A   26
 H2 
A   27
 H3 
A   28
 H4 
A   29
 H5 
A   30
 H6 
A   31
 H7 
A   32
 H8 
A   33
 H9 
A   34
 H10
A   35
 H11
A   36
 H12
A   37
 H13
A   38
 H14
A   39
 H15
A   40
 H16
A   41
 H17
M  END
>  <ref_pdb>  (202) 
x0051_0B

>  <ref_mols>  (202) 
x0904_0B,x0969_1B

>  <original SMILES>  (202) 
[H]c1oc2c([H])c([H])c([H])c([H])c2c1C([H])([H])C([H])([H])N([H])C(=O)c1c([H])c([H])c([H])c(OC(=O)C([H])([H])[H])c1[H]

>  <index>  (202) 
394

>  <∆∆G>  (202) 
-8.12409

>  <∆G_bound>  (202) 
-7.155925

>  <∆G_unbound>  (202) 
0.968165

>  <comRMSD>  (202) 
0.842594

>  <N_constrained_atoms>  (202) 
23.0

>  <N_unconstrained_atoms>  (202) 
4.0

>  <runtime>  (202) 
68.31266

>  <LE>  (202) 
0.300892

>  <percent_hybrid>  (202) 
44.0

>  <dist>  (202) 
12.0

>  <ecfp4>  (202) 
0.197674

>  <daylight>  (202) 
0.222628

>  <topodist>  (202) 
4.0

>  <mces>  (202) 
25.0

>  <tdn>  (202) 
1.0

>  <tup>  (202) 
1.0

>  <rdn>  (202) 
0.0

>  <rup>  (202) 
0.0

>  <ldn>  (202) 
2.0

>  <lup>  (202) 
0.0

>  <mut>  (202) 
5.0

>  <maj>  (202) 
5.0

>  <min>  (202) 
0.0

>  <hyb>  (202) 
3.0

>  <sub>  (202) 
0.0

>  <query_index>  (202) 
266.0

>  <max_hit_Tanimoto>  (202) 
0.175711

>  <largest_ring>  (202) 
6

>  <N_interactions_kept>  (202) 
1.5

>  <N_interactions_lost>  (202) 
2.0

>  <interaction_uniqueness_metric>  (202) 
0.14238

>  <ad_hoc_penalty>  (202) 
-24.42854

>  <N_rotatable_bonds>  (202) 
6

>  <N_HA>  (202) 
24

>  <cluster>  (202) 
5857

>  <N_interactions>  (202) 
7

>  <Enamine>  (202) 
0

>  <Mcule>  (202) 
1

>  <N_PAINS>  (202) 
0

>  <UFF_Gibbs>  (202) 
69.310299

>  <strain_per_HA>  (202) 
2.567048

>  <saltbridge:HIS:51>  (202) 
0

>  <pistack:HIS:51>  (202) 
2

>  <hydroph_interaction:HIS:51>  (202) 
0

>  <hbond:ALA:132>  (202) 
0

>  <hbond:SER:135>  (202) 
0

>  <hydroph_interaction:TYR:150>  (202) 
1

>  <pistack:TYR:161>  (202) 
1

>  <hydroph_interaction:TYR:161>  (202) 
1

>  <hydroph_interaction:ASP:83>  (202) 
0

>  <hbond:TYR:130>  (202) 
0

>  <hydroph_interaction:ALA:132>  (202) 
1

>  <hbond:HIS:51>  (202) 
0

>  <hbond:ASP:129>  (202) 
0

>  <hbond:TYR:150>  (202) 
0

>  <hbond:GLY:151>  (202) 
0

>  <hbond:TYR:161>  (202) 
1

>  <hydroph_interaction:TYR:130>  (202) 
0

>  <hydroph_interaction:PRO:131>  (202) 
0

>  <hydroph_interaction:ASP:129>  (202) 
0

>  <saltbridge:ASP:75>  (202) 
0

>  <saltbridge:ASP:83>  (202) 
0

>  <hydroph_interaction:ASN:152>  (202) 
0

>  <halogenbond:TYR:150>  (202) 
0

>  <hbond:ASP:83>  (202) 
0

>  <hydroph_interaction:VAL:155>  (202) 
0

>  <pication:TYR:161>  (202) 
0

>  <hbond:PRO:131>  (202) 
0

>  <hbond:LEU:128>  (202) 
0

>  <saltbridge:ASP:129>  (202) 
0

>  <hbond:THR:134>  (202) 
0

>  <pication:HIS:51>  (202) 
0

>  <hbond:SER:81>  (202) 
0

>  <hbond:GLY:159>  (202) 
0

>  <hydroph_interaction:PRO:101>  (202) 
0

>  <hydroph_interaction:THR:134>  (202) 
0

>  <hbond:GLY:82>  (202) 
0

>  <hydroph_interaction:GLU:104>  (202) 
0

>  <hydroph_interaction:VAL:36>  (202) 
0

>  <hydroph_interaction:MET:49>  (202) 
0

>  <halogenbond:GLU:104>  (202) 
0

>  <hydroph_interaction:LYS:107>  (202) 
0

$$$$
Z27666324
     RDKit          3D

 46 50  0  0  0  0  0  0  0  0999 V2000
   -4.6280   11.0071  -24.5146 O   0  0  0  0  0  0  0  0  0  0  0  0
   -5.0127    9.8248  -24.7167 C   0  0  0  0  0  0  0  0  0  0  0  0
   -5.4084    9.4396  -26.0415 N   0  0  0  0  0  0  0  0  0  0  0  0
   -6.4505    8.4943  -26.3180 C   0  0  0  0  0  0  0  0  0  0  0  0
   -6.5866    7.8973  -27.5315 N   0  0  0  0  0  0  0  0  0  0  0  0
   -7.6694    7.1177  -27.3533 C   0  0  0  0  0  0  0  0  0  0  0  0
   -8.2527    6.2457  -28.2701 C   0  0  0  0  0  0  0  0  0  0  0  0
   -9.3717    5.5039  -27.8471 C   0  0  0  0  0  0  0  0  0  0  0  0
   -9.8796    5.6575  -26.5337 C   0  0  0  0  0  0  0  0  0  0  0  0
   -9.2644    6.5470  -25.6334 C   0  0  0  0  0  0  0  0  0  0  0  0
   -8.1562    7.2584  -26.0875 C   0  0  0  0  0  0  0  0  0  0  0  0
   -7.4004    8.1337  -25.4157 N   0  0  0  0  0  0  0  0  0  0  0  0
   -5.0017    8.8564  -23.5971 C   0  0  0  0  0  0  0  0  0  0  0  0
   -4.6947    7.5045  -23.8243 C   0  0  0  0  0  0  0  0  0  0  0  0
   -4.7280    6.5846  -22.7729 C   0  0  0  0  0  0  0  0  0  0  0  0
   -5.0730    6.9993  -21.4770 C   0  0  0  0  0  0  0  0  0  0  0  0
   -5.1447    6.0124  -20.3762 C   0  0  0  0  0  0  0  0  0  0  0  0
   -4.3924    5.0018  -20.4005 O   0  0  0  0  0  0  0  0  0  0  0  0
   -6.0245    6.1927  -19.2577 N   0  0  0  0  0  0  0  0  0  0  0  0
   -7.3629    6.6948  -19.3707 C   0  0  0  0  0  0  0  0  0  0  0  0
   -8.0785    7.0957  -18.2871 N   0  0  0  0  0  0  0  0  0  0  0  0
   -9.2609    7.4394  -18.8277 C   0  0  0  0  0  0  0  0  0  0  0  0
  -10.3904    7.9227  -18.1700 C   0  0  0  0  0  0  0  0  0  0  0  0
  -11.5304    8.2029  -18.9482 C   0  0  0  0  0  0  0  0  0  0  0  0
  -11.5125    7.9952  -20.3473 C   0  0  0  0  0  0  0  0  0  0  0  0
  -10.3537    7.5048  -20.9794 C   0  0  0  0  0  0  0  0  0  0  0  0
   -9.2455    7.2415  -20.1767 C   0  0  0  0  0  0  0  0  0  0  0  0
   -8.0505    6.7627  -20.5405 N   0  0  0  0  0  0  0  0  0  0  0  0
   -5.3429    8.3587  -21.2431 C   0  0  0  0  0  0  0  0  0  0  0  0
   -5.3045    9.2795  -22.2944 C   0  0  0  0  0  0  0  0  0  0  0  0
   -4.9562    9.9198  -26.8515 H   0  0  0  0  0  0  0  0  0  0  0  0
   -7.8516    6.1324  -29.2703 H   0  0  0  0  0  0  0  0  0  0  0  0
   -9.8463    4.8116  -28.5309 H   0  0  0  0  0  0  0  0  0  0  0  0
  -10.7370    5.0786  -26.2171 H   0  0  0  0  0  0  0  0  0  0  0  0
   -9.6290    6.6583  -24.6197 H   0  0  0  0  0  0  0  0  0  0  0  0
   -7.5355    8.4685  -24.4358 H   0  0  0  0  0  0  0  0  0  0  0  0
   -4.4362    7.1576  -24.8177 H   0  0  0  0  0  0  0  0  0  0  0  0
   -4.5073    5.5441  -22.9780 H   0  0  0  0  0  0  0  0  0  0  0  0
   -5.7137    5.8422  -18.3246 H   0  0  0  0  0  0  0  0  0  0  0  0
  -10.3926    8.0742  -17.0976 H   0  0  0  0  0  0  0  0  0  0  0  0
  -12.4268    8.5751  -18.4705 H   0  0  0  0  0  0  0  0  0  0  0  0
  -12.3956    8.2111  -20.9353 H   0  0  0  0  0  0  0  0  0  0  0  0
  -10.3260    7.3370  -22.0485 H   0  0  0  0  0  0  0  0  0  0  0  0
   -7.7452    6.4841  -21.4972 H   0  0  0  0  0  0  0  0  0  0  0  0
   -5.5842    8.7100  -20.2477 H   0  0  0  0  0  0  0  0  0  0  0  0
   -5.5355   10.3188  -22.0938 H   0  0  0  0  0  0  0  0  0  0  0  0
  1  2  2  0
  2  3  1  0
  3  4  1  0
  4  5  2  0
  5  6  1  0
  6  7  2  0
  7  8  1  0
  8  9  2  0
  9 10  1  0
 10 11  2  0
 11 12  1  0
  2 13  1  0
 13 14  2  0
 14 15  1  0
 15 16  2  0
 16 17  1  0
 17 18  2  0
 17 19  1  0
 19 20  1  0
 20 21  2  0
 21 22  1  0
 22 23  2  0
 23 24  1  0
 24 25  2  0
 25 26  1  0
 26 27  2  0
 27 28  1  0
 16 29  1  0
 29 30  2  0
 12  4  1  0
 11  6  1  0
 30 13  1  0
 28 20  1  0
 27 22  1  0
  3 31  1  0
  7 32  1  0
  8 33  1  0
  9 34  1  0
 10 35  1  0
 12 36  1  0
 14 37  1  0
 15 38  1  0
 19 39  1  0
 23 40  1  0
 24 41  1  0
 25 42  1  0
 26 43  1  0
 28 44  1  0
 29 45  1  0
 30 46  1  0
A    1
 O1 
A    2
 C1 
A    3
 N1 
A    4
 C2 
A    5
 N2 
A    6
 C3 
A    7
 C4 
A    8
 C5 
A    9
 C6 
A   10
 C7 
A   11
 C8 
A   12
 N3 
A   13
 C9 
A   14
 C10
A   15
 C11
A   16
 C12
A   17
 C13
A   18
 O2 
A   19
 N4 
A   20
 C14
A   21
 N5 
A   22
 C15
A   23
 C16
A   24
 C17
A   25
 C18
A   26
 C19
A   27
 C20
A   28
 N6 
A   29
 C21
A   30
 C22
A   31
 H1 
A   32
 H2 
A   33
 H3 
A   34
 H4 
A   35
 H5 
A   36
 H6 
A   37
 H7 
A   38
 H8 
A   39
 H9 
A   40
 H10
A   41
 H11
A   42
 H12
A   43
 H13
A   44
 H14
A   45
 H15
A   46
 H16
M  END
>  <ref_pdb>  (203) 
x0051_0B

>  <ref_mols>  (203) 
x0846_1B,x0490_0B

>  <original SMILES>  (203) 
[H]c1c([H])c(C(=O)N([H])c2nc3c([H])c([H])c([H])c([H])c3n2[H])c([H])c([H])c1C(=O)N([H])c1nc2c([H])c([H])c([H])c([H])c2n1[H]

>  <index>  (203) 
426

>  <∆∆G>  (203) 
-8.768263

>  <∆G_bound>  (203) 
-7.721695

>  <∆G_unbound>  (203) 
1.046569

>  <comRMSD>  (203) 
0.379557

>  <N_constrained_atoms>  (203) 
27.0

>  <N_unconstrained_atoms>  (203) 
4.0

>  <runtime>  (203) 
78.929773

>  <LE>  (203) 
0.282847

>  <percent_hybrid>  (203) 
34.0

>  <dist>  (203) 
8.0

>  <ecfp4>  (203) 
0.279412

>  <daylight>  (203) 
0.428571

>  <topodist>  (203) 
5.0

>  <mces>  (203) 
32.0

>  <tdn>  (203) 
3.0

>  <tup>  (203) 
2.0

>  <rdn>  (203) 
0.0

>  <rup>  (203) 
0.0

>  <ldn>  (203) 
0.0

>  <lup>  (203) 
0.0

>  <mut>  (203) 
2.0

>  <maj>  (203) 
2.0

>  <min>  (203) 
0.0

>  <hyb>  (203) 
1.0

>  <sub>  (203) 
2.0

>  <query_index>  (203) 
51.0

>  <max_hit_Tanimoto>  (203) 
0.648221

>  <largest_ring>  (203) 
6

>  <N_interactions_kept>  (203) 
0.5

>  <N_interactions_lost>  (203) 
2.5

>  <interaction_uniqueness_metric>  (203) 
0.17823

>  <ad_hoc_penalty>  (203) 
-24.426019

>  <N_rotatable_bonds>  (203) 
4

>  <N_HA>  (203) 
30

>  <cluster>  (203) 
5832

>  <N_interactions>  (203) 
6

>  <Enamine>  (203) 
1

>  <Mcule>  (203) 
0

>  <N_PAINS>  (203) 
0

>  <UFF_Gibbs>  (203) 
77.239153

>  <strain_per_HA>  (203) 
2.491586

>  <saltbridge:HIS:51>  (203) 
0

>  <pistack:HIS:51>  (203) 
0

>  <hydroph_interaction:HIS:51>  (203) 
0

>  <hbond:ALA:132>  (203) 
0

>  <hbond:SER:135>  (203) 
0

>  <hydroph_interaction:TYR:150>  (203) 
1

>  <pistack:TYR:161>  (203) 
2

>  <hydroph_interaction:TYR:161>  (203) 
0

>  <hydroph_interaction:ASP:83>  (203) 
0

>  <hbond:TYR:130>  (203) 
0

>  <hydroph_interaction:ALA:132>  (203) 
0

>  <hbond:HIS:51>  (203) 
0

>  <hbond:ASP:129>  (203) 
1

>  <hbond:TYR:150>  (203) 
0

>  <hbond:GLY:151>  (203) 
0

>  <hbond:TYR:161>  (203) 
0

>  <hydroph_interaction:TYR:130>  (203) 
1

>  <hydroph_interaction:PRO:131>  (203) 
1

>  <hydroph_interaction:ASP:129>  (203) 
0

>  <saltbridge:ASP:75>  (203) 
0

>  <saltbridge:ASP:83>  (203) 
0

>  <hydroph_interaction:ASN:152>  (203) 
0

>  <halogenbond:TYR:150>  (203) 
0

>  <hbond:ASP:83>  (203) 
0

>  <hydroph_interaction:VAL:155>  (203) 
0

>  <pication:TYR:161>  (203) 
0

>  <hbond:PRO:131>  (203) 
0

>  <hbond:LEU:128>  (203) 
0

>  <saltbridge:ASP:129>  (203) 
0

>  <hbond:THR:134>  (203) 
0

>  <pication:HIS:51>  (203) 
0

>  <hbond:SER:81>  (203) 
0

>  <hbond:GLY:159>  (203) 
0

>  <hydroph_interaction:PRO:101>  (203) 
0

>  <hydroph_interaction:THR:134>  (203) 
0

>  <hbond:GLY:82>  (203) 
0

>  <hydroph_interaction:GLU:104>  (203) 
0

>  <hydroph_interaction:VAL:36>  (203) 
0

>  <hydroph_interaction:MET:49>  (203) 
0

>  <halogenbond:GLU:104>  (203) 
0

>  <hydroph_interaction:LYS:107>  (203) 
0

$$$$
nan
     RDKit          3D

 53 55  0  0  0  0  0  0  0  0999 V2000
   -4.7848    7.4684  -19.7753 C   0  0  0  0  0  0  0  0  0  0  0  0
   -5.0407    6.0176  -20.2266 C   0  0  0  0  0  0  0  0  0  0  0  0
   -3.7514    5.1801  -20.1237 C   0  0  0  0  0  0  0  0  0  0  0  0
   -5.5095    6.0281  -21.6897 C   0  0  0  0  0  0  0  0  0  0  0  0
   -6.0918    5.4252  -19.4494 O   0  0  0  0  0  0  0  0  0  0  0  0
   -6.0886    5.2271  -18.0593 C   0  0  0  0  0  0  0  0  0  0  0  0
   -5.0847    5.5425  -17.3653 O   0  0  0  0  0  0  0  0  0  0  0  0
   -7.2599    4.5828  -17.4222 C   0  0  0  0  0  0  0  0  0  0  0  0
   -7.9319    3.5842  -18.1500 C   0  0  0  0  0  0  0  0  0  0  0  0
   -8.9833    2.8690  -17.5780 C   0  0  0  0  0  0  0  0  0  0  0  0
   -9.3753    3.1329  -16.2689 C   0  0  0  0  0  0  0  0  0  0  0  0
   -8.7391    4.1348  -15.5363 C   0  0  0  0  0  0  0  0  0  0  0  0
   -7.7063    4.9087  -16.1094 C   0  0  0  0  0  0  0  0  0  0  0  0
   -7.0663    6.0285  -15.3033 C   0  0  0  0  0  0  0  0  0  0  0  0
   -8.0331    6.7208  -14.3901 C   0  0  0  0  0  0  0  0  0  0  0  0
   -8.8729    7.5333  -14.8657 O   0  0  0  0  0  0  0  0  0  0  0  0
   -8.0174    6.4283  -13.0237 O   0  0  0  0  0  0  0  0  0  0  0  0
   -8.9468    6.9938  -12.1071 C   0  0  0  0  0  0  0  0  0  0  0  0
   -8.6839    6.4509  -10.7402 C   0  0  0  0  0  0  0  0  0  0  0  0
   -8.9164    5.1724  -10.2794 C   0  0  0  0  0  0  0  0  0  0  0  0
   -9.5843    4.0371  -10.9972 C   0  0  0  0  0  0  0  0  0  0  0  0
   -9.3245    2.7124  -10.2623 C   0  0  0  0  0  0  0  0  0  0  0  0
   -9.5222    2.8638   -8.7447 C   0  0  0  0  0  0  0  0  0  0  0  0
   -8.5476    3.9031   -8.1660 C   0  0  0  0  0  0  0  0  0  0  0  0
   -8.5261    5.1073   -8.9943 N   0  0  0  0  0  0  0  0  0  0  0  0
   -8.0069    6.2666   -8.6207 N   0  0  0  0  0  0  0  0  0  0  0  0
   -8.0959    7.1088   -9.6727 C   0  0  0  0  0  0  0  0  0  0  0  0
   -5.7350    8.0445  -19.7814 H   0  0  0  0  0  0  0  0  0  0  0  0
   -4.0625    7.9677  -20.4568 H   0  0  0  0  0  0  0  0  0  0  0  0
   -4.3618    7.5051  -18.7507 H   0  0  0  0  0  0  0  0  0  0  0  0
   -2.9815    5.5598  -20.8296 H   0  0  0  0  0  0  0  0  0  0  0  0
   -3.3206    5.2226  -19.1028 H   0  0  0  0  0  0  0  0  0  0  0  0
   -3.9647    4.1178  -20.3695 H   0  0  0  0  0  0  0  0  0  0  0  0
   -4.7385    6.4771  -22.3530 H   0  0  0  0  0  0  0  0  0  0  0  0
   -6.4477    6.6158  -21.7896 H   0  0  0  0  0  0  0  0  0  0  0  0
   -5.7140    4.9919  -22.0359 H   0  0  0  0  0  0  0  0  0  0  0  0
   -7.6202    3.3317  -19.1565 H   0  0  0  0  0  0  0  0  0  0  0  0
   -9.4816    2.0933  -18.1451 H   0  0  0  0  0  0  0  0  0  0  0  0
  -10.1774    2.5612  -15.8198 H   0  0  0  0  0  0  0  0  0  0  0  0
   -9.0691    4.3119  -14.5215 H   0  0  0  0  0  0  0  0  0  0  0  0
   -6.6568    6.8111  -15.9750 H   0  0  0  0  0  0  0  0  0  0  0  0
   -6.2277    5.6097  -14.7074 H   0  0  0  0  0  0  0  0  0  0  0  0
   -9.9830    6.7312  -12.4114 H   0  0  0  0  0  0  0  0  0  0  0  0
   -8.8427    8.1004  -12.1011 H   0  0  0  0  0  0  0  0  0  0  0  0
   -9.1985    3.9657  -12.0358 H   0  0  0  0  0  0  0  0  0  0  0  0
  -10.6773    4.2330  -11.0365 H   0  0  0  0  0  0  0  0  0  0  0  0
   -8.2846    2.3736  -10.4657 H   0  0  0  0  0  0  0  0  0  0  0  0
  -10.0179    1.9358  -10.6506 H   0  0  0  0  0  0  0  0  0  0  0  0
  -10.5679    3.1815   -8.5391 H   0  0  0  0  0  0  0  0  0  0  0  0
   -9.3551    1.8841   -8.2476 H   0  0  0  0  0  0  0  0  0  0  0  0
   -8.8554    4.1649   -7.1311 H   0  0  0  0  0  0  0  0  0  0  0  0
   -7.5243    3.4713   -8.1309 H   0  0  0  0  0  0  0  0  0  0  0  0
   -7.7497    8.1338   -9.6632 H   0  0  0  0  0  0  0  0  0  0  0  0
  1  2  1  0
  2  3  1  0
  2  4  1  0
  2  5  1  0
  5  6  1  0
  6  7  2  0
  6  8  1  0
  8  9  2  0
  9 10  1  0
 10 11  2  0
 11 12  1  0
 12 13  2  0
 13 14  1  0
 14 15  1  0
 15 16  2  0
 15 17  1  0
 17 18  1  0
 18 19  1  0
 19 20  2  0
 20 21  1  0
 21 22  1  0
 22 23  1  0
 23 24  1  0
 24 25  1  0
 25 26  1  0
 26 27  2  0
 13  8  1  0
 27 19  1  0
 25 20  1  0
  1 28  1  0
  1 29  1  0
  1 30  1  0
  3 31  1  0
  3 32  1  0
  3 33  1  0
  4 34  1  0
  4 35  1  0
  4 36  1  0
  9 37  1  0
 10 38  1  0
 11 39  1  0
 12 40  1  0
 14 41  1  0
 14 42  1  0
 18 43  1  0
 18 44  1  0
 21 45  1  0
 21 46  1  0
 22 47  1  0
 22 48  1  0
 23 49  1  0
 23 50  1  0
 24 51  1  0
 24 52  1  0
 27 53  1  0
A    1
 C1 
A    2
 C2 
A    3
 C3 
A    4
 C4 
A    5
 O1 
A    6
 C5 
A    7
 O2 
A    8
 C6 
A    9
 C7 
A   10
 C8 
A   11
 C9 
A   12
 C10
A   13
 C11
A   14
 C12
A   15
 C13
A   16
 O3 
A   17
 O4 
A   18
 C14
A   19
 C15
A   20
 C16
A   21
 C17
A   22
 C18
A   23
 C19
A   24
 C20
A   25
 N1 
A   26
 N2 
A   27
 C21
A   28
 H1 
A   29
 H2 
A   30
 H3 
A   31
 H4 
A   32
 H5 
A   33
 H6 
A   34
 H7 
A   35
 H8 
A   36
 H9 
A   37
 H10
A   38
 H11
A   39
 H12
A   40
 H13
A   41
 H14
A   42
 H15
A   43
 H16
A   44
 H17
A   45
 H18
A   46
 H19
A   47
 H20
A   48
 H21
A   49
 H22
A   50
 H23
A   51
 H24
A   52
 H25
A   53
 H26
M  END
>  <ref_pdb>  (204) 
x0051_0B

>  <ref_mols>  (204) 
x0101_0B,x0969_1B,x0693_0B

>  <original SMILES>  (204) 
[H]c1nn2c(c1C([H])([H])OC(=O)C([H])([H])c1c([H])c([H])c([H])c([H])c1C(=O)OC(C([H])([H])[H])(C([H])([H])[H])C([H])([H])[H])C([H])([H])C([H])([H])C([H])([H])C2([H])[H]

>  <index>  (204) 
22937

>  <∆∆G>  (204) 
-10.373478

>  <∆G_bound>  (204) 
-8.631033

>  <∆G_unbound>  (204) 
1.742445

>  <comRMSD>  (204) 
0.60829

>  <N_constrained_atoms>  (204) 
26.0

>  <N_unconstrained_atoms>  (204) 
3.0

>  <runtime>  (204) 
69.847265

>  <LE>  (204) 
0.357706

>  <percent_hybrid>  (204) 
50.0

>  <dist>  (204) 
nan

>  <ecfp4>  (204) 
nan

>  <daylight>  (204) 
nan

>  <topodist>  (204) 
nan

>  <mces>  (204) 
nan

>  <tdn>  (204) 
nan

>  <tup>  (204) 
nan

>  <rdn>  (204) 
nan

>  <rup>  (204) 
nan

>  <ldn>  (204) 
nan

>  <lup>  (204) 
nan

>  <mut>  (204) 
nan

>  <maj>  (204) 
nan

>  <min>  (204) 
nan

>  <hyb>  (204) 
nan

>  <sub>  (204) 
nan

>  <query_index>  (204) 
nan

>  <max_hit_Tanimoto>  (204) 
0.306026

>  <largest_ring>  (204) 
6

>  <N_interactions_kept>  (204) 
5.5

>  <N_interactions_lost>  (204) 
1.5

>  <interaction_uniqueness_metric>  (204) 
0.115582

>  <ad_hoc_penalty>  (204) 
-24.423696

>  <N_rotatable_bonds>  (204) 
5

>  <N_HA>  (204) 
27

>  <cluster>  (204) 
1401

>  <N_interactions>  (204) 
4

>  <Enamine>  (204) 
0

>  <Mcule>  (204) 
0

>  <N_PAINS>  (204) 
0

>  <UFF_Gibbs>  (204) 
87.417469

>  <strain_per_HA>  (204) 
3.014395

>  <saltbridge:HIS:51>  (204) 
0

>  <pistack:HIS:51>  (204) 
1

>  <hydroph_interaction:HIS:51>  (204) 
1

>  <hbond:ALA:132>  (204) 
0

>  <hbond:SER:135>  (204) 
0

>  <hydroph_interaction:TYR:150>  (204) 
0

>  <pistack:TYR:161>  (204) 
1

>  <hydroph_interaction:TYR:161>  (204) 
0

>  <hydroph_interaction:ASP:83>  (204) 
0

>  <hbond:TYR:130>  (204) 
0

>  <hydroph_interaction:ALA:132>  (204) 
0

>  <hbond:HIS:51>  (204) 
0

>  <hbond:ASP:129>  (204) 
0

>  <hbond:TYR:150>  (204) 
0

>  <hbond:GLY:151>  (204) 
0

>  <hbond:TYR:161>  (204) 
0

>  <hydroph_interaction:TYR:130>  (204) 
0

>  <hydroph_interaction:PRO:131>  (204) 
0

>  <hydroph_interaction:ASP:129>  (204) 
1

>  <saltbridge:ASP:75>  (204) 
0

>  <saltbridge:ASP:83>  (204) 
0

>  <hydroph_interaction:ASN:152>  (204) 
0

>  <halogenbond:TYR:150>  (204) 
0

>  <hbond:ASP:83>  (204) 
0

>  <hydroph_interaction:VAL:155>  (204) 
0

>  <pication:TYR:161>  (204) 
0

>  <hbond:PRO:131>  (204) 
0

>  <hbond:LEU:128>  (204) 
0

>  <saltbridge:ASP:129>  (204) 
0

>  <hbond:THR:134>  (204) 
0

>  <pication:HIS:51>  (204) 
0

>  <hbond:SER:81>  (204) 
0

>  <hbond:GLY:159>  (204) 
0

>  <hydroph_interaction:PRO:101>  (204) 
0

>  <hydroph_interaction:THR:134>  (204) 
0

>  <hbond:GLY:82>  (204) 
0

>  <hydroph_interaction:GLU:104>  (204) 
0

>  <hydroph_interaction:VAL:36>  (204) 
0

>  <hydroph_interaction:MET:49>  (204) 
0

>  <halogenbond:GLU:104>  (204) 
0

>  <hydroph_interaction:LYS:107>  (204) 
0

$$$$
CSSB00009866458
     RDKit          3D

 18 19  0  0  0  0  0  0  0  0999 V2000
  -10.1380    4.7817  -18.1144 O   0  0  0  0  0  0  0  0  0  0  0  0
   -9.6501    4.8754  -16.8989 C   0  0  0  0  0  0  0  0  0  0  0  0
   -8.3118    5.0398  -16.8917 N   0  0  0  0  0  0  0  0  0  0  0  0
   -7.9842    5.0435  -18.1997 C   0  0  0  0  0  0  0  0  0  0  0  0
   -9.1341    4.8815  -18.9489 C   0  0  0  0  0  0  0  0  0  0  0  0
   -6.5972    5.1995  -18.7028 C   0  0  0  0  0  0  0  0  0  0  0  0
   -5.5345    5.3552  -17.7926 C   0  0  0  0  0  0  0  0  0  0  0  0
   -4.2222    5.5033  -18.2520 C   0  0  0  0  0  0  0  0  0  0  0  0
   -3.9546    5.4980  -19.6222 C   0  0  0  0  0  0  0  0  0  0  0  0
   -4.9989    5.3444  -20.5360 C   0  0  0  0  0  0  0  0  0  0  0  0
   -6.3136    5.1958  -20.0828 C   0  0  0  0  0  0  0  0  0  0  0  0
  -10.2528    4.8266  -16.0020 H   0  0  0  0  0  0  0  0  0  0  0  0
   -9.2279    4.8400  -20.0250 H   0  0  0  0  0  0  0  0  0  0  0  0
   -5.7165    5.3627  -16.7252 H   0  0  0  0  0  0  0  0  0  0  0  0
   -3.4121    5.6224  -17.5441 H   0  0  0  0  0  0  0  0  0  0  0  0
   -2.9381    5.6127  -19.9758 H   0  0  0  0  0  0  0  0  0  0  0  0
   -4.7899    5.3404  -21.5981 H   0  0  0  0  0  0  0  0  0  0  0  0
   -7.0994    5.0790  -20.8158 H   0  0  0  0  0  0  0  0  0  0  0  0
  1  2  1  0
  2  3  2  0
  3  4  1  0
  4  5  2  0
  4  6  1  0
  6  7  2  0
  7  8  1  0
  8  9  2  0
  9 10  1  0
 10 11  2  0
  5  1  1  0
 11  6  1  0
  2 12  1  0
  5 13  1  0
  7 14  1  0
  8 15  1  0
  9 16  1  0
 10 17  1  0
 11 18  1  0
A    1
 O1 
A    2
 C1 
A    3
 N1 
A    4
 C2 
A    5
 C3 
A    6
 C4 
A    7
 C5 
A    8
 C6 
A    9
 C7 
A   10
 C8 
A   11
 C9 
A   12
 H1 
A   13
 H2 
A   14
 H3 
A   15
 H4 
A   16
 H5 
A   17
 H6 
A   18
 H7 
M  END
>  <ref_pdb>  (205) 
x0051_0B

>  <ref_mols>  (205) 
x0680_0B,x0386_0B

>  <original SMILES>  (205) 
[H]c1nc(-c2c([H])c([H])c([H])c([H])c2[H])c([H])o1

>  <index>  (205) 
366

>  <∆∆G>  (205) 
-5.337826

>  <∆G_bound>  (205) 
-5.29624

>  <∆G_unbound>  (205) 
0.041585

>  <comRMSD>  (205) 
0.596518

>  <N_constrained_atoms>  (205) 
13.0

>  <N_unconstrained_atoms>  (205) 
0.0

>  <runtime>  (205) 
20.527118

>  <LE>  (205) 
0.410602

>  <percent_hybrid>  (205) 
25.0

>  <dist>  (205) 
2.0

>  <ecfp4>  (205) 
0.410256

>  <daylight>  (205) 
0.518519

>  <topodist>  (205) 
1.0

>  <mces>  (205) 
12.0

>  <tdn>  (205) 
1.0

>  <tup>  (205) 
0.0

>  <rdn>  (205) 
0.0

>  <rup>  (205) 
0.0

>  <ldn>  (205) 
0.0

>  <lup>  (205) 
0.0

>  <mut>  (205) 
1.0

>  <maj>  (205) 
1.0

>  <min>  (205) 
0.0

>  <hyb>  (205) 
0.0

>  <sub>  (205) 
1.0

>  <query_index>  (205) 
296.0

>  <max_hit_Tanimoto>  (205) 
0.147059

>  <largest_ring>  (205) 
6

>  <N_interactions_kept>  (205) 
3.5

>  <N_interactions_lost>  (205) 
0.5

>  <interaction_uniqueness_metric>  (205) 
0.016266

>  <ad_hoc_penalty>  (205) 
-24.419364

>  <N_rotatable_bonds>  (205) 
1

>  <N_HA>  (205) 
11

>  <cluster>  (205) 
5883

>  <N_interactions>  (205) 
3

>  <Enamine>  (205) 
1

>  <Mcule>  (205) 
0

>  <N_PAINS>  (205) 
0

>  <UFF_Gibbs>  (205) 
21.664323

>  <strain_per_HA>  (205) 
1.666486

>  <saltbridge:HIS:51>  (205) 
0

>  <pistack:HIS:51>  (205) 
0

>  <hydroph_interaction:HIS:51>  (205) 
0

>  <hbond:ALA:132>  (205) 
0

>  <hbond:SER:135>  (205) 
0

>  <hydroph_interaction:TYR:150>  (205) 
0

>  <pistack:TYR:161>  (205) 
0

>  <hydroph_interaction:TYR:161>  (205) 
3

>  <hydroph_interaction:ASP:83>  (205) 
0

>  <hbond:TYR:130>  (205) 
0

>  <hydroph_interaction:ALA:132>  (205) 
0

>  <hbond:HIS:51>  (205) 
0

>  <hbond:ASP:129>  (205) 
0

>  <hbond:TYR:150>  (205) 
0

>  <hbond:GLY:151>  (205) 
0

>  <hbond:TYR:161>  (205) 
0

>  <hydroph_interaction:TYR:130>  (205) 
0

>  <hydroph_interaction:PRO:131>  (205) 
0

>  <hydroph_interaction:ASP:129>  (205) 
0

>  <saltbridge:ASP:75>  (205) 
0

>  <saltbridge:ASP:83>  (205) 
0

>  <hydroph_interaction:ASN:152>  (205) 
0

>  <halogenbond:TYR:150>  (205) 
0

>  <hbond:ASP:83>  (205) 
0

>  <hydroph_interaction:VAL:155>  (205) 
0

>  <pication:TYR:161>  (205) 
0

>  <hbond:PRO:131>  (205) 
0

>  <hbond:LEU:128>  (205) 
0

>  <saltbridge:ASP:129>  (205) 
0

>  <hbond:THR:134>  (205) 
0

>  <pication:HIS:51>  (205) 
0

>  <hbond:SER:81>  (205) 
0

>  <hbond:GLY:159>  (205) 
0

>  <hydroph_interaction:PRO:101>  (205) 
0

>  <hydroph_interaction:THR:134>  (205) 
0

>  <hbond:GLY:82>  (205) 
0

>  <hydroph_interaction:GLU:104>  (205) 
0

>  <hydroph_interaction:VAL:36>  (205) 
0

>  <hydroph_interaction:MET:49>  (205) 
0

>  <halogenbond:GLU:104>  (205) 
0

>  <hydroph_interaction:LYS:107>  (205) 
0

$$$$
MHOKSTTURADPJC-UHFFFAOYSA-N
     RDKit          3D

 26 27  0  0  0  0  0  0  0  0999 V2000
   -5.2393    6.1272  -18.2791 N   0  0  0  0  0  0  0  0  0  0  0  0
   -4.1390    5.2169  -17.8893 C   0  0  0  0  0  0  0  0  0  0  0  0
   -4.5688    4.1512  -16.9684 C   0  0  0  0  0  0  0  0  0  0  0  0
   -4.9192    3.2753  -16.2176 C   0  0  0  0  0  0  0  0  0  0  0  0
   -6.4002    5.4537  -18.9223 C   0  0  0  0  0  0  0  0  0  0  0  0
   -6.9665    6.3435  -20.0319 C   0  0  0  0  0  0  0  0  0  0  0  0
   -7.4785    5.1140  -17.9241 C   0  0  0  0  0  0  0  0  0  0  0  0
   -7.5255    5.6932  -16.6686 C   0  0  0  0  0  0  0  0  0  0  0  0
   -8.8437    5.0772  -15.8309 S   0  0  0  0  0  0  0  0  0  0  0  0
   -9.3974    4.0918  -17.0808 C   0  0  0  0  0  0  0  0  0  0  0  0
   -8.5357    4.2249  -18.1639 C   0  0  0  0  0  0  0  0  0  0  0  0
   -6.4649    6.5855  -16.1188 C   0  0  0  0  0  0  0  0  0  0  0  0
   -5.5881    7.1428  -17.2531 C   0  0  0  0  0  0  0  0  0  0  0  0
   -3.3115    5.7884  -17.4178 H   0  0  0  0  0  0  0  0  0  0  0  0
   -3.7186    4.7432  -18.8016 H   0  0  0  0  0  0  0  0  0  0  0  0
   -5.2295    2.5079  -15.5585 H   0  0  0  0  0  0  0  0  0  0  0  0
   -6.0681    4.5082  -19.4085 H   0  0  0  0  0  0  0  0  0  0  0  0
   -7.7498    5.7967  -20.5992 H   0  0  0  0  0  0  0  0  0  0  0  0
   -7.4152    7.2684  -19.6119 H   0  0  0  0  0  0  0  0  0  0  0  0
   -6.1575    6.6255  -20.7387 H   0  0  0  0  0  0  0  0  0  0  0  0
  -10.2702    3.4542  -17.0455 H   0  0  0  0  0  0  0  0  0  0  0  0
   -8.6672    3.6888  -19.0946 H   0  0  0  0  0  0  0  0  0  0  0  0
   -5.8408    6.0134  -15.4016 H   0  0  0  0  0  0  0  0  0  0  0  0
   -6.9373    7.4263  -15.5678 H   0  0  0  0  0  0  0  0  0  0  0  0
   -4.6674    7.5907  -16.8200 H   0  0  0  0  0  0  0  0  0  0  0  0
   -6.1311    7.9781  -17.7446 H   0  0  0  0  0  0  0  0  0  0  0  0
  1  2  1  0
  2  3  1  0
  3  4  3  0
  1  5  1  0
  5  6  1  0
  5  7  1  0
  7  8  2  0
  8  9  1  0
  9 10  1  0
 10 11  2  0
  8 12  1  0
 12 13  1  0
 13  1  1  0
 11  7  1  0
  2 14  1  0
  2 15  1  0
  4 16  1  0
  5 17  1  0
  6 18  1  0
  6 19  1  0
  6 20  1  0
 10 21  1  0
 11 22  1  0
 12 23  1  0
 12 24  1  0
 13 25  1  0
 13 26  1  0
A    1
 N1 
A    2
 C1 
A    3
 C2 
A    4
 C3 
A    5
 C4 
A    6
 C5 
A    7
 C6 
A    8
 C7 
A    9
 S1 
A   10
 C8 
A   11
 C9 
A   12
 C10
A   13
 C11
A   14
 H1 
A   15
 H2 
A   16
 H3 
A   17
 H4 
A   18
 H5 
A   19
 H6 
A   20
 H7 
A   21
 H8 
A   22
 H9 
A   23
 H10
A   24
 H11
A   25
 H12
A   26
 H13
M  END
>  <ref_pdb>  (206) 
x0051_0B

>  <ref_mols>  (206) 
x0472_0B,x0386_0B

>  <original SMILES>  (206) 
[H]C#CC([H])([H])N1C([H])([H])C([H])([H])c2sc([H])c([H])c2C1([H])C([H])([H])[H]

>  <index>  (206) 
41

>  <∆∆G>  (206) 
-6.662563

>  <∆G_bound>  (206) 
-6.566294

>  <∆G_unbound>  (206) 
0.096269

>  <comRMSD>  (206) 
0.427111

>  <N_constrained_atoms>  (206) 
14.0

>  <N_unconstrained_atoms>  (206) 
0.0

>  <runtime>  (206) 
20.920363

>  <LE>  (206) 
0.475897

>  <percent_hybrid>  (206) 
13.0

>  <dist>  (206) 
4.0

>  <ecfp4>  (206) 
0.392157

>  <daylight>  (206) 
0.712121

>  <topodist>  (206) 
1.0

>  <mces>  (206) 
14.0

>  <tdn>  (206) 
1.0

>  <tup>  (206) 
0.0

>  <rdn>  (206) 
0.0

>  <rup>  (206) 
0.0

>  <ldn>  (206) 
0.0

>  <lup>  (206) 
0.0

>  <mut>  (206) 
2.0

>  <maj>  (206) 
2.0

>  <min>  (206) 
0.0

>  <hyb>  (206) 
1.0

>  <sub>  (206) 
1.0

>  <query_index>  (206) 
75.0

>  <max_hit_Tanimoto>  (206) 
0.649469

>  <largest_ring>  (206) 
6

>  <N_interactions_kept>  (206) 
3.0

>  <N_interactions_lost>  (206) 
0.0

>  <interaction_uniqueness_metric>  (206) 
0.049434

>  <ad_hoc_penalty>  (206) 
-24.320186

>  <N_rotatable_bonds>  (206) 
2

>  <N_HA>  (206) 
13

>  <cluster>  (206) 
6178

>  <N_interactions>  (206) 
4

>  <Enamine>  (206) 
0

>  <Mcule>  (206) 
1

>  <N_PAINS>  (206) 
0

>  <UFF_Gibbs>  (206) 
197.479029

>  <strain_per_HA>  (206) 
14.105645

>  <saltbridge:HIS:51>  (206) 
0

>  <pistack:HIS:51>  (206) 
0

>  <hydroph_interaction:HIS:51>  (206) 
0

>  <hbond:ALA:132>  (206) 
0

>  <hbond:SER:135>  (206) 
0

>  <hydroph_interaction:TYR:150>  (206) 
0

>  <pistack:TYR:161>  (206) 
0

>  <hydroph_interaction:TYR:161>  (206) 
3

>  <hydroph_interaction:ASP:83>  (206) 
0

>  <hbond:TYR:130>  (206) 
0

>  <hydroph_interaction:ALA:132>  (206) 
0

>  <hbond:HIS:51>  (206) 
0

>  <hbond:ASP:129>  (206) 
0

>  <hbond:TYR:150>  (206) 
0

>  <hbond:GLY:151>  (206) 
0

>  <hbond:TYR:161>  (206) 
0

>  <hydroph_interaction:TYR:130>  (206) 
0

>  <hydroph_interaction:PRO:131>  (206) 
0

>  <hydroph_interaction:ASP:129>  (206) 
0

>  <saltbridge:ASP:75>  (206) 
0

>  <saltbridge:ASP:83>  (206) 
0

>  <hydroph_interaction:ASN:152>  (206) 
0

>  <halogenbond:TYR:150>  (206) 
0

>  <hbond:ASP:83>  (206) 
0

>  <hydroph_interaction:VAL:155>  (206) 
1

>  <pication:TYR:161>  (206) 
0

>  <hbond:PRO:131>  (206) 
0

>  <hbond:LEU:128>  (206) 
0

>  <saltbridge:ASP:129>  (206) 
0

>  <hbond:THR:134>  (206) 
0

>  <pication:HIS:51>  (206) 
0

>  <hbond:SER:81>  (206) 
0

>  <hbond:GLY:159>  (206) 
0

>  <hydroph_interaction:PRO:101>  (206) 
0

>  <hydroph_interaction:THR:134>  (206) 
0

>  <hbond:GLY:82>  (206) 
0

>  <hydroph_interaction:GLU:104>  (206) 
0

>  <hydroph_interaction:VAL:36>  (206) 
0

>  <hydroph_interaction:MET:49>  (206) 
0

>  <halogenbond:GLU:104>  (206) 
0

>  <hydroph_interaction:LYS:107>  (206) 
0

$$$$
MCULE-3220421022
     RDKit          3D

 43 45  0  0  0  0  0  0  0  0999 V2000
   -9.0589    5.9618  -17.0587 C   0  0  0  0  0  0  0  0  0  0  0  0
  -10.1542    6.0488  -17.8946 C   0  0  0  0  0  0  0  0  0  0  0  0
   -9.9021    5.3660  -19.0291 N   0  0  0  0  0  0  0  0  0  0  0  0
   -8.6812    4.8606  -18.9375 N   0  0  0  0  0  0  0  0  0  0  0  0
   -8.0675    4.0531  -19.9853 C   0  0  0  0  0  0  0  0  0  0  0  0
   -8.1221    5.2235  -17.7629 C   0  0  0  0  0  0  0  0  0  0  0  0
   -6.7540    4.7951  -17.2820 C   0  0  0  0  0  0  0  0  0  0  0  0
   -6.0859    5.8549  -16.3912 C   0  0  0  0  0  0  0  0  0  0  0  0
   -6.6020    5.8475  -14.9396 C   0  0  0  0  0  0  0  0  0  0  0  0
   -8.0672    5.7528  -14.8596 N   0  0  0  0  0  0  0  0  0  0  0  0
   -8.6659    4.6830  -14.1088 C   0  0  0  0  0  0  0  0  0  0  0  0
   -8.2527    3.5022  -14.2658 O   0  0  0  0  0  0  0  0  0  0  0  0
   -9.7320    4.9558  -13.0881 C   0  0  0  0  0  0  0  0  0  0  0  0
   -9.1890    4.7259  -11.7043 C   0  0  0  0  0  0  0  0  0  0  0  0
   -8.3819    5.6996  -11.0955 C   0  0  0  0  0  0  0  0  0  0  0  0
   -7.8508    5.4773   -9.8232 C   0  0  0  0  0  0  0  0  0  0  0  0
   -8.1144    4.2811   -9.1505 C   0  0  0  0  0  0  0  0  0  0  0  0
   -8.9131    3.2898   -9.7531 C   0  0  0  0  0  0  0  0  0  0  0  0
   -9.2027    2.0707   -9.1214 O   0  0  0  0  0  0  0  0  0  0  0  0
   -8.7192    1.6974   -7.8358 C   0  0  0  0  0  0  0  0  0  0  0  0
   -9.4420    3.5197  -11.0297 C   0  0  0  0  0  0  0  0  0  0  0  0
   -8.9005    6.6038  -15.7148 C   0  0  0  0  0  0  0  0  0  0  0  0
  -11.0789    6.5728  -17.6900 H   0  0  0  0  0  0  0  0  0  0  0  0
   -7.2306    4.6157  -20.4499 H   0  0  0  0  0  0  0  0  0  0  0  0
   -8.8157    3.8097  -20.7692 H   0  0  0  0  0  0  0  0  0  0  0  0
   -7.6836    3.1042  -19.5548 H   0  0  0  0  0  0  0  0  0  0  0  0
   -6.0983    4.6315  -18.1624 H   0  0  0  0  0  0  0  0  0  0  0  0
   -6.8358    3.8289  -16.7408 H   0  0  0  0  0  0  0  0  0  0  0  0
   -4.9908    5.6625  -16.3677 H   0  0  0  0  0  0  0  0  0  0  0  0
   -6.2229    6.8647  -16.8378 H   0  0  0  0  0  0  0  0  0  0  0  0
   -6.2757    6.7836  -14.4384 H   0  0  0  0  0  0  0  0  0  0  0  0
   -6.1259    5.0042  -14.3915 H   0  0  0  0  0  0  0  0  0  0  0  0
  -10.6044    4.2957  -13.2857 H   0  0  0  0  0  0  0  0  0  0  0  0
  -10.0922    6.0028  -13.1591 H   0  0  0  0  0  0  0  0  0  0  0  0
   -8.1617    6.6274  -11.6094 H   0  0  0  0  0  0  0  0  0  0  0  0
   -7.2305    6.2327   -9.3587 H   0  0  0  0  0  0  0  0  0  0  0  0
   -7.6902    4.1357   -8.1665 H   0  0  0  0  0  0  0  0  0  0  0  0
   -9.0959    0.6842   -7.5869 H   0  0  0  0  0  0  0  0  0  0  0  0
   -7.6092    1.6736   -7.8379 H   0  0  0  0  0  0  0  0  0  0  0  0
   -9.0857    2.4118   -7.0683 H   0  0  0  0  0  0  0  0  0  0  0  0
  -10.0513    2.7547  -11.4948 H   0  0  0  0  0  0  0  0  0  0  0  0
   -9.9002    6.7673  -15.2623 H   0  0  0  0  0  0  0  0  0  0  0  0
   -8.4262    7.6010  -15.8392 H   0  0  0  0  0  0  0  0  0  0  0  0
  1  2  1  0
  2  3  2  0
  3  4  1  0
  4  5  1  0
  4  6  1  0
  6  7  1  0
  7  8  1  0
  8  9  1  0
  9 10  1  0
 10 11  1  0
 11 12  2  0
 11 13  1  0
 13 14  1  0
 14 15  2  0
 15 16  1  0
 16 17  2  0
 17 18  1  0
 18 19  1  0
 19 20  1  0
 18 21  2  0
 10 22  1  0
  1  6  2  0
 22  1  1  0
 14 21  1  0
  2 23  1  0
  5 24  1  0
  5 25  1  0
  5 26  1  0
  7 27  1  0
  7 28  1  0
  8 29  1  0
  8 30  1  0
  9 31  1  0
  9 32  1  0
 13 33  1  0
 13 34  1  0
 15 35  1  0
 16 36  1  0
 17 37  1  0
 20 38  1  0
 20 39  1  0
 20 40  1  0
 21 41  1  0
 22 42  1  0
 22 43  1  0
A    1
 C1 
A    2
 C2 
A    3
 N1 
A    4
 N2 
A    5
 C3 
A    6
 C4 
A    7
 C5 
A    8
 C6 
A    9
 C7 
A   10
 N3 
A   11
 C8 
A   12
 O1 
A   13
 C9 
A   14
 C10
A   15
 C11
A   16
 C12
A   17
 C13
A   18
 C14
A   19
 O2 
A   20
 C15
A   21
 C16
A   22
 C17
A   23
 H1 
A   24
 H2 
A   25
 H3 
A   26
 H4 
A   27
 H5 
A   28
 H6 
A   29
 H7 
A   30
 H8 
A   31
 H9 
A   32
 H10
A   33
 H11
A   34
 H12
A   35
 H13
A   36
 H14
A   37
 H15
A   38
 H16
A   39
 H17
A   40
 H18
A   41
 H19
A   42
 H20
A   43
 H21
M  END
>  <ref_pdb>  (207) 
x0051_0B

>  <ref_mols>  (207) 
x0605_0B,x0969_1B

>  <original SMILES>  (207) 
[H]c1nn(C([H])([H])[H])c2c1C([H])([H])N(C(=O)C([H])([H])c1c([H])c([H])c([H])c(OC([H])([H])[H])c1[H])C([H])([H])C([H])([H])C2([H])[H]

>  <index>  (207) 
332

>  <∆∆G>  (207) 
-6.206551

>  <∆G_bound>  (207) 
-5.806075

>  <∆G_unbound>  (207) 
0.400476

>  <comRMSD>  (207) 
0.968858

>  <N_constrained_atoms>  (207) 
19.0

>  <N_unconstrained_atoms>  (207) 
5.0

>  <runtime>  (207) 
56.887162

>  <LE>  (207) 
0.258606

>  <percent_hybrid>  (207) 
48.0

>  <dist>  (207) 
8.0

>  <ecfp4>  (207) 
0.246914

>  <daylight>  (207) 
0.273381

>  <topodist>  (207) 
3.0

>  <mces>  (207) 
22.0

>  <tdn>  (207) 
0.0

>  <tup>  (207) 
1.0

>  <rdn>  (207) 
1.0

>  <rup>  (207) 
1.0

>  <ldn>  (207) 
0.0

>  <lup>  (207) 
0.0

>  <mut>  (207) 
4.0

>  <maj>  (207) 
4.0

>  <min>  (207) 
0.0

>  <hyb>  (207) 
1.0

>  <sub>  (207) 
1.0

>  <query_index>  (207) 
307.0

>  <max_hit_Tanimoto>  (207) 
0.29596

>  <largest_ring>  (207) 
7

>  <N_interactions_kept>  (207) 
2.5

>  <N_interactions_lost>  (207) 
0.5

>  <interaction_uniqueness_metric>  (207) 
0.152769

>  <ad_hoc_penalty>  (207) 
-24.242712

>  <N_rotatable_bonds>  (207) 
5

>  <N_HA>  (207) 
22

>  <cluster>  (207) 
5916

>  <N_interactions>  (207) 
5

>  <Enamine>  (207) 
0

>  <Mcule>  (207) 
1

>  <N_PAINS>  (207) 
0

>  <UFF_Gibbs>  (207) 
96.678529

>  <strain_per_HA>  (207) 
4.028272

>  <saltbridge:HIS:51>  (207) 
0

>  <pistack:HIS:51>  (207) 
1

>  <hydroph_interaction:HIS:51>  (207) 
1

>  <hbond:ALA:132>  (207) 
0

>  <hbond:SER:135>  (207) 
0

>  <hydroph_interaction:TYR:150>  (207) 
0

>  <pistack:TYR:161>  (207) 
0

>  <hydroph_interaction:TYR:161>  (207) 
2

>  <hydroph_interaction:ASP:83>  (207) 
0

>  <hbond:TYR:130>  (207) 
0

>  <hydroph_interaction:ALA:132>  (207) 
0

>  <hbond:HIS:51>  (207) 
1

>  <hbond:ASP:129>  (207) 
0

>  <hbond:TYR:150>  (207) 
0

>  <hbond:GLY:151>  (207) 
0

>  <hbond:TYR:161>  (207) 
0

>  <hydroph_interaction:TYR:130>  (207) 
0

>  <hydroph_interaction:PRO:131>  (207) 
0

>  <hydroph_interaction:ASP:129>  (207) 
0

>  <saltbridge:ASP:75>  (207) 
0

>  <saltbridge:ASP:83>  (207) 
0

>  <hydroph_interaction:ASN:152>  (207) 
0

>  <halogenbond:TYR:150>  (207) 
0

>  <hbond:ASP:83>  (207) 
0

>  <hydroph_interaction:VAL:155>  (207) 
0

>  <pication:TYR:161>  (207) 
0

>  <hbond:PRO:131>  (207) 
0

>  <hbond:LEU:128>  (207) 
0

>  <saltbridge:ASP:129>  (207) 
0

>  <hbond:THR:134>  (207) 
0

>  <pication:HIS:51>  (207) 
0

>  <hbond:SER:81>  (207) 
0

>  <hbond:GLY:159>  (207) 
0

>  <hydroph_interaction:PRO:101>  (207) 
0

>  <hydroph_interaction:THR:134>  (207) 
0

>  <hbond:GLY:82>  (207) 
0

>  <hydroph_interaction:GLU:104>  (207) 
0

>  <hydroph_interaction:VAL:36>  (207) 
0

>  <hydroph_interaction:MET:49>  (207) 
0

>  <halogenbond:GLU:104>  (207) 
0

>  <hydroph_interaction:LYS:107>  (207) 
0

$$$$
RHKKOPOGUNRFRX-UHFFFAOYSA-N
     RDKit          3D

 44 48  0  0  0  0  0  0  0  0999 V2000
   -6.8498    6.9475  -13.9160 C   0  0  0  0  0  0  0  0  0  0  0  0
   -6.7085    6.3188  -15.1975 N   0  0  0  0  0  0  0  0  0  0  0  0
   -7.6910    5.5816  -15.9405 C   0  0  0  0  0  0  0  0  0  0  0  0
   -8.9829    5.1829  -15.5777 C   0  0  0  0  0  0  0  0  0  0  0  0
   -9.7648    4.5031  -16.5420 C   0  0  0  0  0  0  0  0  0  0  0  0
   -9.2639    4.2608  -17.8475 C   0  0  0  0  0  0  0  0  0  0  0  0
   -7.9756    4.7097  -18.1933 C   0  0  0  0  0  0  0  0  0  0  0  0
   -7.2418    5.3517  -17.2113 C   0  0  0  0  0  0  0  0  0  0  0  0
   -6.0113    5.8985  -17.4195 C   0  0  0  0  0  0  0  0  0  0  0  0
   -5.3978    5.8114  -18.6692 C   0  0  0  0  0  0  0  0  0  0  0  0
   -6.0956    5.1360  -19.6994 C   0  0  0  0  0  0  0  0  0  0  0  0
   -7.3847    4.5868  -19.4664 C   0  0  0  0  0  0  0  0  0  0  0  0
   -5.6592    6.5401  -16.1553 C   0  0  0  0  0  0  0  0  0  0  0  0
   -4.6076    7.1941  -15.9259 O   0  0  0  0  0  0  0  0  0  0  0  0
   -6.4368    8.1288  -13.7618 O   0  0  0  0  0  0  0  0  0  0  0  0
   -7.4389    6.2244  -12.7669 C   0  0  0  0  0  0  0  0  0  0  0  0
   -8.0421    6.9333  -11.7171 C   0  0  0  0  0  0  0  0  0  0  0  0
   -8.5939    6.2548  -10.6270 C   0  0  0  0  0  0  0  0  0  0  0  0
   -8.5477    4.8491  -10.5561 C   0  0  0  0  0  0  0  0  0  0  0  0
   -9.1218    4.1453   -9.4294 N   0  0  0  0  0  0  0  0  0  0  0  0
   -9.2679    2.6983   -9.3633 C   0  0  0  0  0  0  0  0  0  0  0  0
  -10.0686    2.4170   -8.0997 C   0  0  0  0  0  0  0  0  0  0  0  0
   -9.9706    3.6833   -7.2575 C   0  0  0  0  0  0  0  0  0  0  0  0
   -9.6243    4.8012   -8.2308 C   0  0  0  0  0  0  0  0  0  0  0  0
   -7.9270    4.1442  -11.6052 C   0  0  0  0  0  0  0  0  0  0  0  0
   -7.3751    4.8242  -12.6938 C   0  0  0  0  0  0  0  0  0  0  0  0
   -9.3850    5.3913  -14.5964 H   0  0  0  0  0  0  0  0  0  0  0  0
  -10.7636    4.1759  -16.2843 H   0  0  0  0  0  0  0  0  0  0  0  0
   -9.8824    3.7522  -18.5764 H   0  0  0  0  0  0  0  0  0  0  0  0
   -4.4252    6.2512  -18.8468 H   0  0  0  0  0  0  0  0  0  0  0  0
   -5.6469    5.0493  -20.6803 H   0  0  0  0  0  0  0  0  0  0  0  0
   -7.9125    4.0905  -20.2711 H   0  0  0  0  0  0  0  0  0  0  0  0
   -8.0993    8.0146  -11.7454 H   0  0  0  0  0  0  0  0  0  0  0  0
   -9.0621    6.8367   -9.8450 H   0  0  0  0  0  0  0  0  0  0  0  0
   -8.2646    2.2241   -9.2972 H   0  0  0  0  0  0  0  0  0  0  0  0
   -9.8120    2.3204  -10.2562 H   0  0  0  0  0  0  0  0  0  0  0  0
   -9.6690    1.5351   -7.5534 H   0  0  0  0  0  0  0  0  0  0  0  0
  -11.1326    2.2311   -8.3656 H   0  0  0  0  0  0  0  0  0  0  0  0
   -9.1521    3.5698   -6.5128 H   0  0  0  0  0  0  0  0  0  0  0  0
  -10.9238    3.8899   -6.7240 H   0  0  0  0  0  0  0  0  0  0  0  0
  -10.5337    5.3900   -8.4805 H   0  0  0  0  0  0  0  0  0  0  0  0
   -8.8463    5.4647   -7.7944 H   0  0  0  0  0  0  0  0  0  0  0  0
   -7.8567    3.0652  -11.5860 H   0  0  0  0  0  0  0  0  0  0  0  0
   -6.8909    4.2530  -13.4760 H   0  0  0  0  0  0  0  0  0  0  0  0
  1  2  1  0
  2  3  1  0
  3  4  2  0
  4  5  1  0
  5  6  2  0
  6  7  1  0
  7  8  2  0
  8  9  1  0
  9 10  2  0
 10 11  1  0
 11 12  2  0
  9 13  1  0
 13 14  2  0
  1 15  2  0
  1 16  1  0
 16 17  2  0
 17 18  1  0
 18 19  2  0
 19 20  1  0
 20 21  1  0
 21 22  1  0
 22 23  1  0
 23 24  1  0
 19 25  1  0
 25 26  2  0
 13  2  1  0
  8  3  1  0
  7 12  1  0
 26 16  1  0
 24 20  1  0
  4 27  1  0
  5 28  1  0
  6 29  1  0
 10 30  1  0
 11 31  1  0
 12 32  1  0
 17 33  1  0
 18 34  1  0
 21 35  1  0
 21 36  1  0
 22 37  1  0
 22 38  1  0
 23 39  1  0
 23 40  1  0
 24 41  1  0
 24 42  1  0
 25 43  1  0
 26 44  1  0
A    1
 C1 
A    2
 N1 
A    3
 C2 
A    4
 C3 
A    5
 C4 
A    6
 C5 
A    7
 C6 
A    8
 C7 
A    9
 C8 
A   10
 C9 
A   11
 C10
A   12
 C11
A   13
 C12
A   14
 O1 
A   15
 O2 
A   16
 C13
A   17
 C14
A   18
 C15
A   19
 C16
A   20
 N2 
A   21
 C17
A   22
 C18
A   23
 C19
A   24
 C20
A   25
 C21
A   26
 C22
A   27
 H1 
A   28
 H2 
A   29
 H3 
A   30
 H4 
A   31
 H5 
A   32
 H6 
A   33
 H7 
A   34
 H8 
A   35
 H9 
A   36
 H10
A   37
 H11
A   38
 H12
A   39
 H13
A   40
 H14
A   41
 H15
A   42
 H16
A   43
 H17
A   44
 H18
M  END
>  <ref_pdb>  (208) 
x0051_0B

>  <ref_mols>  (208) 
x0727_0B,x0404_0B

>  <original SMILES>  (208) 
[H]c1c([H])c(N2C([H])([H])C([H])([H])C([H])([H])C2([H])[H])c([H])c([H])c1C(=O)N1C(=O)c2c([H])c([H])c([H])c3c([H])c([H])c([H])c1c23

>  <index>  (208) 
319

>  <∆∆G>  (208) 
-9.086943

>  <∆G_bound>  (208) 
-9.461161

>  <∆G_unbound>  (208) 
-0.374218

>  <comRMSD>  (208) 
0.630074

>  <N_constrained_atoms>  (208) 
26.0

>  <N_unconstrained_atoms>  (208) 
1.0

>  <runtime>  (208) 
98.940729

>  <LE>  (208) 
0.336553

>  <percent_hybrid>  (208) 
47.0

>  <dist>  (208) 
9.0

>  <ecfp4>  (208) 
0.22973

>  <daylight>  (208) 
0.190698

>  <topodist>  (208) 
4.0

>  <mces>  (208) 
29.0

>  <tdn>  (208) 
1.0

>  <tup>  (208) 
0.0

>  <rdn>  (208) 
0.0

>  <rup>  (208) 
1.0

>  <ldn>  (208) 
2.0

>  <lup>  (208) 
0.0

>  <mut>  (208) 
4.0

>  <maj>  (208) 
4.0

>  <min>  (208) 
0.0

>  <hyb>  (208) 
1.0

>  <sub>  (208) 
0.0

>  <query_index>  (208) 
0.0

>  <max_hit_Tanimoto>  (208) 
0.201944

>  <largest_ring>  (208) 
6

>  <N_interactions_kept>  (208) 
1.5

>  <N_interactions_lost>  (208) 
3.0

>  <interaction_uniqueness_metric>  (208) 
0.075721

>  <ad_hoc_penalty>  (208) 
-24.239779

>  <N_rotatable_bonds>  (208) 
2

>  <N_HA>  (208) 
26

>  <cluster>  (208) 
5929

>  <N_interactions>  (208) 
6

>  <Enamine>  (208) 
0

>  <Mcule>  (208) 
1

>  <N_PAINS>  (208) 
0

>  <UFF_Gibbs>  (208) 
92.810288

>  <strain_per_HA>  (208) 
3.437418

>  <saltbridge:HIS:51>  (208) 
0

>  <pistack:HIS:51>  (208) 
1

>  <hydroph_interaction:HIS:51>  (208) 
0

>  <hbond:ALA:132>  (208) 
0

>  <hbond:SER:135>  (208) 
0

>  <hydroph_interaction:TYR:150>  (208) 
1

>  <pistack:TYR:161>  (208) 
2

>  <hydroph_interaction:TYR:161>  (208) 
2

>  <hydroph_interaction:ASP:83>  (208) 
0

>  <hbond:TYR:130>  (208) 
0

>  <hydroph_interaction:ALA:132>  (208) 
0

>  <hbond:HIS:51>  (208) 
0

>  <hbond:ASP:129>  (208) 
0

>  <hbond:TYR:150>  (208) 
0

>  <hbond:GLY:151>  (208) 
0

>  <hbond:TYR:161>  (208) 
0

>  <hydroph_interaction:TYR:130>  (208) 
0

>  <hydroph_interaction:PRO:131>  (208) 
0

>  <hydroph_interaction:ASP:129>  (208) 
0

>  <saltbridge:ASP:75>  (208) 
0

>  <saltbridge:ASP:83>  (208) 
0

>  <hydroph_interaction:ASN:152>  (208) 
0

>  <halogenbond:TYR:150>  (208) 
0

>  <hbond:ASP:83>  (208) 
0

>  <hydroph_interaction:VAL:155>  (208) 
0

>  <pication:TYR:161>  (208) 
0

>  <hbond:PRO:131>  (208) 
0

>  <hbond:LEU:128>  (208) 
0

>  <saltbridge:ASP:129>  (208) 
0

>  <hbond:THR:134>  (208) 
0

>  <pication:HIS:51>  (208) 
0

>  <hbond:SER:81>  (208) 
0

>  <hbond:GLY:159>  (208) 
0

>  <hydroph_interaction:PRO:101>  (208) 
0

>  <hydroph_interaction:THR:134>  (208) 
0

>  <hbond:GLY:82>  (208) 
0

>  <hydroph_interaction:GLU:104>  (208) 
0

>  <hydroph_interaction:VAL:36>  (208) 
0

>  <hydroph_interaction:MET:49>  (208) 
0

>  <halogenbond:GLU:104>  (208) 
0

>  <hydroph_interaction:LYS:107>  (208) 
0

$$$$
CSSB00025760048
     RDKit          3D

 39 39  0  0  0  0  0  0  0  0999 V2000
    0.2508    3.2230  -15.8162 C   0  0  0  0  0  0  0  0  0  0  0  0
   -0.3796    4.0701  -14.7102 C   0  0  0  0  0  0  0  0  0  0  0  0
   -1.8601    3.7285  -14.4592 C   0  0  0  0  0  0  0  0  0  0  0  0
   -2.7967    3.9835  -15.6549 C   0  0  0  0  0  0  0  0  0  0  0  0
   -2.9366    5.4775  -15.9946 C   0  0  0  0  0  0  0  0  0  0  0  0
   -3.8831    5.7288  -17.1797 C   0  0  0  0  0  0  0  0  0  0  0  0
   -5.3580    5.4804  -16.8278 C   0  0  0  0  0  0  0  0  0  0  0  0
   -6.2756    5.9320  -17.9694 C   0  0  0  0  0  0  0  0  0  0  0  0
   -7.7154    5.6535  -17.6366 C   0  0  0  0  0  0  0  0  0  0  0  0
   -8.5498    6.5345  -16.9423 C   0  0  0  0  0  0  0  0  0  0  0  0
   -8.2051    7.9139  -16.4774 C   0  0  0  0  0  0  0  0  0  0  0  0
  -10.0558    5.8085  -16.7446 S   0  0  0  0  0  0  0  0  0  0  0  0
   -9.6642    4.3746  -17.5315 C   0  0  0  0  0  0  0  0  0  0  0  0
  -10.5629    3.1907  -17.6589 C   0  0  0  0  0  0  0  0  0  0  0  0
   -8.3387    4.4326  -17.9428 C   0  0  0  0  0  0  0  0  0  0  0  0
    1.3494    3.3876  -15.8272 H   0  0  0  0  0  0  0  0  0  0  0  0
    0.0564    2.1436  -15.6395 H   0  0  0  0  0  0  0  0  0  0  0  0
   -0.1478    3.5165  -16.8093 H   0  0  0  0  0  0  0  0  0  0  0  0
   -0.2557    5.1478  -14.9453 H   0  0  0  0  0  0  0  0  0  0  0  0
    0.1801    3.8808  -13.7683 H   0  0  0  0  0  0  0  0  0  0  0  0
   -2.2182    4.3180  -13.5867 H   0  0  0  0  0  0  0  0  0  0  0  0
   -1.9348    2.6561  -14.1739 H   0  0  0  0  0  0  0  0  0  0  0  0
   -2.4518    3.4159  -16.5452 H   0  0  0  0  0  0  0  0  0  0  0  0
   -3.7931    3.5802  -15.3787 H   0  0  0  0  0  0  0  0  0  0  0  0
   -3.2919    6.0390  -15.1026 H   0  0  0  0  0  0  0  0  0  0  0  0
   -1.9431    5.8839  -16.2758 H   0  0  0  0  0  0  0  0  0  0  0  0
   -3.7624    6.7899  -17.4914 H   0  0  0  0  0  0  0  0  0  0  0  0
   -3.5874    5.0890  -18.0409 H   0  0  0  0  0  0  0  0  0  0  0  0
   -5.5224    4.3966  -16.6438 H   0  0  0  0  0  0  0  0  0  0  0  0
   -5.6197    6.0389  -15.9026 H   0  0  0  0  0  0  0  0  0  0  0  0
   -6.1369    7.0181  -18.1621 H   0  0  0  0  0  0  0  0  0  0  0  0
   -6.0038    5.3907  -18.9026 H   0  0  0  0  0  0  0  0  0  0  0  0
   -7.2559    7.8961  -15.9036 H   0  0  0  0  0  0  0  0  0  0  0  0
   -9.0080    8.3088  -15.8203 H   0  0  0  0  0  0  0  0  0  0  0  0
   -8.0933    8.5852  -17.3541 H   0  0  0  0  0  0  0  0  0  0  0  0
  -10.3501    2.6519  -18.6063 H   0  0  0  0  0  0  0  0  0  0  0  0
  -10.3972    2.5045  -16.8023 H   0  0  0  0  0  0  0  0  0  0  0  0
  -11.6238    3.5177  -17.6653 H   0  0  0  0  0  0  0  0  0  0  0  0
   -7.8368    3.6150  -18.4453 H   0  0  0  0  0  0  0  0  0  0  0  0
  1  2  1  0
  2  3  1  0
  3  4  1  0
  4  5  1  0
  5  6  1  0
  6  7  1  0
  7  8  1  0
  8  9  1  0
  9 10  2  0
 10 11  1  0
 10 12  1  0
 12 13  1  0
 13 14  1  0
 13 15  2  0
 15  9  1  0
  1 16  1  0
  1 17  1  0
  1 18  1  0
  2 19  1  0
  2 20  1  0
  3 21  1  0
  3 22  1  0
  4 23  1  0
  4 24  1  0
  5 25  1  0
  5 26  1  0
  6 27  1  0
  6 28  1  0
  7 29  1  0
  7 30  1  0
  8 31  1  0
  8 32  1  0
 11 33  1  0
 11 34  1  0
 11 35  1  0
 14 36  1  0
 14 37  1  0
 14 38  1  0
 15 39  1  0
A    1
 C1 
A    2
 C2 
A    3
 C3 
A    4
 C4 
A    5
 C5 
A    6
 C6 
A    7
 C7 
A    8
 C8 
A    9
 C9 
A   10
 C10
A   11
 C11
A   12
 S1 
A   13
 C12
A   14
 C13
A   15
 C14
A   16
 H1 
A   17
 H2 
A   18
 H3 
A   19
 H4 
A   20
 H5 
A   21
 H6 
A   22
 H7 
A   23
 H8 
A   24
 H9 
A   25
 H10
A   26
 H11
A   27
 H12
A   28
 H13
A   29
 H14
A   30
 H15
A   31
 H16
A   32
 H17
A   33
 H18
A   34
 H19
A   35
 H20
A   36
 H21
A   37
 H22
A   38
 H23
A   39
 H24
M  END
>  <ref_pdb>  (209) 
x0051_0B

>  <ref_mols>  (209) 
x0472_0B,x0945_0B

>  <original SMILES>  (209) 
[H]c1c(C([H])([H])[H])sc(C([H])([H])[H])c1C([H])([H])C([H])([H])C([H])([H])C([H])([H])C([H])([H])C([H])([H])C([H])([H])C([H])([H])[H]

>  <index>  (209) 
171

>  <∆∆G>  (209) 
-9.167341

>  <∆G_bound>  (209) 
-9.221079

>  <∆G_unbound>  (209) 
-0.053738

>  <comRMSD>  (209) 
0.887759

>  <N_constrained_atoms>  (209) 
17.0

>  <N_unconstrained_atoms>  (209) 
3.0

>  <runtime>  (209) 
40.94637

>  <LE>  (209) 
0.458367

>  <percent_hybrid>  (209) 
50.0

>  <dist>  (209) 
6.0

>  <ecfp4>  (209) 
0.2

>  <daylight>  (209) 
0.346939

>  <topodist>  (209) 
4.0

>  <mces>  (209) 
15.0

>  <tdn>  (209) 
2.0

>  <tup>  (209) 
0.0

>  <rdn>  (209) 
2.0

>  <rup>  (209) 
0.0

>  <ldn>  (209) 
0.0

>  <lup>  (209) 
0.0

>  <mut>  (209) 
2.0

>  <maj>  (209) 
2.0

>  <min>  (209) 
0.0

>  <hyb>  (209) 
0.0

>  <sub>  (209) 
4.0

>  <query_index>  (209) 
124.0

>  <max_hit_Tanimoto>  (209) 
0.238022

>  <largest_ring>  (209) 
5

>  <N_interactions_kept>  (209) 
2.0

>  <N_interactions_lost>  (209) 
0.5

>  <interaction_uniqueness_metric>  (209) 
0.081212

>  <ad_hoc_penalty>  (209) 
-24.22618

>  <N_rotatable_bonds>  (209) 
10

>  <N_HA>  (209) 
15

>  <cluster>  (209) 
6064

>  <N_interactions>  (209) 
7

>  <Enamine>  (209) 
1

>  <Mcule>  (209) 
0

>  <N_PAINS>  (209) 
0

>  <UFF_Gibbs>  (209) 
140.761887

>  <strain_per_HA>  (209) 
7.038094

>  <saltbridge:HIS:51>  (209) 
0

>  <pistack:HIS:51>  (209) 
0

>  <hydroph_interaction:HIS:51>  (209) 
0

>  <hbond:ALA:132>  (209) 
0

>  <hbond:SER:135>  (209) 
0

>  <hydroph_interaction:TYR:150>  (209) 
1

>  <pistack:TYR:161>  (209) 
0

>  <hydroph_interaction:TYR:161>  (209) 
4

>  <hydroph_interaction:ASP:83>  (209) 
0

>  <hbond:TYR:130>  (209) 
0

>  <hydroph_interaction:ALA:132>  (209) 
0

>  <hbond:HIS:51>  (209) 
0

>  <hbond:ASP:129>  (209) 
0

>  <hbond:TYR:150>  (209) 
0

>  <hbond:GLY:151>  (209) 
0

>  <hbond:TYR:161>  (209) 
0

>  <hydroph_interaction:TYR:130>  (209) 
0

>  <hydroph_interaction:PRO:131>  (209) 
0

>  <hydroph_interaction:ASP:129>  (209) 
0

>  <saltbridge:ASP:75>  (209) 
0

>  <saltbridge:ASP:83>  (209) 
0

>  <hydroph_interaction:ASN:152>  (209) 
0

>  <halogenbond:TYR:150>  (209) 
0

>  <hbond:ASP:83>  (209) 
0

>  <hydroph_interaction:VAL:155>  (209) 
2

>  <pication:TYR:161>  (209) 
0

>  <hbond:PRO:131>  (209) 
0

>  <hbond:LEU:128>  (209) 
0

>  <saltbridge:ASP:129>  (209) 
0

>  <hbond:THR:134>  (209) 
0

>  <pication:HIS:51>  (209) 
0

>  <hbond:SER:81>  (209) 
0

>  <hbond:GLY:159>  (209) 
0

>  <hydroph_interaction:PRO:101>  (209) 
0

>  <hydroph_interaction:THR:134>  (209) 
0

>  <hbond:GLY:82>  (209) 
0

>  <hydroph_interaction:GLU:104>  (209) 
0

>  <hydroph_interaction:VAL:36>  (209) 
0

>  <hydroph_interaction:MET:49>  (209) 
0

>  <halogenbond:GLU:104>  (209) 
0

>  <hydroph_interaction:LYS:107>  (209) 
0

$$$$
AWYBBLXIHOBMNS-UHFFFAOYSA-N
     RDKit          3D

 42 45  0  0  0  0  0  0  0  0999 V2000
   -8.9096    6.1509  -14.1670 C   0  0  0  0  0  0  0  0  0  0  0  0
   -8.2211    5.4290  -15.2025 N   0  0  0  0  0  0  0  0  0  0  0  0
   -8.4636    5.6273  -16.6057 C   0  0  0  0  0  0  0  0  0  0  0  0
   -7.4309    5.4945  -17.5421 C   0  0  0  0  0  0  0  0  0  0  0  0
   -7.6458    5.6468  -18.8821 C   0  0  0  0  0  0  0  0  0  0  0  0
   -6.4183    5.4661  -19.4791 C   0  0  0  0  0  0  0  0  0  0  0  0
   -5.5077    5.2180  -18.5072 N   0  0  0  0  0  0  0  0  0  0  0  0
   -6.1283    5.2374  -17.3323 N   0  0  0  0  0  0  0  0  0  0  0  0
   -8.9017    5.9321  -19.4068 C   0  0  0  0  0  0  0  0  0  0  0  0
   -9.9704    6.0570  -18.5011 C   0  0  0  0  0  0  0  0  0  0  0  0
   -9.7576    5.9010  -17.1119 C   0  0  0  0  0  0  0  0  0  0  0  0
   -9.5722    7.1854  -14.4541 O   0  0  0  0  0  0  0  0  0  0  0  0
   -8.8161    5.7087  -12.7588 C   0  0  0  0  0  0  0  0  0  0  0  0
   -8.1292    4.5764  -12.4472 N   0  0  0  0  0  0  0  0  0  0  0  0
   -8.0235    4.1408  -11.1907 N   0  0  0  0  0  0  0  0  0  0  0  0
   -8.5935    4.8081  -10.1506 C   0  0  0  0  0  0  0  0  0  0  0  0
   -8.4669    4.2973   -8.8102 N   0  0  0  0  0  0  0  0  0  0  0  0
   -8.3573    2.8482   -8.5971 C   0  0  0  0  0  0  0  0  0  0  0  0
   -9.0496    2.4488   -7.2899 C   0  0  0  0  0  0  0  0  0  0  0  0
   -8.5475    3.3015   -6.1201 C   0  0  0  0  0  0  0  0  0  0  0  0
   -8.7397    4.7930   -6.4139 C   0  0  0  0  0  0  0  0  0  0  0  0
   -8.0391    5.1835   -7.7179 C   0  0  0  0  0  0  0  0  0  0  0  0
   -9.3260    5.9710  -10.4155 C   0  0  0  0  0  0  0  0  0  0  0  0
   -9.4354    6.4263  -11.7273 C   0  0  0  0  0  0  0  0  0  0  0  0
   -7.4597    4.7700  -14.9257 H   0  0  0  0  0  0  0  0  0  0  0  0
   -6.1951    5.5134  -20.5366 H   0  0  0  0  0  0  0  0  0  0  0  0
   -5.6534    5.0847  -16.4155 H   0  0  0  0  0  0  0  0  0  0  0  0
   -9.0532    6.0490  -20.4721 H   0  0  0  0  0  0  0  0  0  0  0  0
  -10.9655    6.2658  -18.8719 H   0  0  0  0  0  0  0  0  0  0  0  0
  -10.6062    5.9691  -16.4444 H   0  0  0  0  0  0  0  0  0  0  0  0
   -8.8388    2.2925   -9.4316 H   0  0  0  0  0  0  0  0  0  0  0  0
   -7.2839    2.5607   -8.5597 H   0  0  0  0  0  0  0  0  0  0  0  0
  -10.1485    2.5808   -7.3997 H   0  0  0  0  0  0  0  0  0  0  0  0
   -8.8504    1.3762   -7.0787 H   0  0  0  0  0  0  0  0  0  0  0  0
   -7.4707    3.0907   -5.9375 H   0  0  0  0  0  0  0  0  0  0  0  0
   -9.1110    3.0325   -5.2009 H   0  0  0  0  0  0  0  0  0  0  0  0
   -9.8254    5.0201   -6.4957 H   0  0  0  0  0  0  0  0  0  0  0  0
   -8.3229    5.3922   -5.5759 H   0  0  0  0  0  0  0  0  0  0  0  0
   -8.2670    6.2465   -7.9410 H   0  0  0  0  0  0  0  0  0  0  0  0
   -6.9380    5.0977   -7.5896 H   0  0  0  0  0  0  0  0  0  0  0  0
   -9.8271    6.5085   -9.6212 H   0  0  0  0  0  0  0  0  0  0  0  0
  -10.0033    7.3253  -11.9321 H   0  0  0  0  0  0  0  0  0  0  0  0
  1  2  1  0
  2  3  1  0
  3  4  1  0
  4  5  2  0
  5  6  1  0
  6  7  2  0
  7  8  1  0
  5  9  1  0
  9 10  2  0
 10 11  1  0
  1 12  2  0
  1 13  1  0
 13 14  2  0
 14 15  1  0
 15 16  2  0
 16 17  1  0
 17 18  1  0
 18 19  1  0
 19 20  1  0
 20 21  1  0
 21 22  1  0
 16 23  1  0
 23 24  2  0
  3 11  2  0
  8  4  1  0
 24 13  1  0
 22 17  1  0
  2 25  1  0
  6 26  1  0
  8 27  1  0
  9 28  1  0
 10 29  1  0
 11 30  1  0
 18 31  1  0
 18 32  1  0
 19 33  1  0
 19 34  1  0
 20 35  1  0
 20 36  1  0
 21 37  1  0
 21 38  1  0
 22 39  1  0
 22 40  1  0
 23 41  1  0
 24 42  1  0
A    1
 C1 
A    2
 N1 
A    3
 C2 
A    4
 C3 
A    5
 C4 
A    6
 C5 
A    7
 N2 
A    8
 N3 
A    9
 C6 
A   10
 C7 
A   11
 C8 
A   12
 O1 
A   13
 C9 
A   14
 N4 
A   15
 N5 
A   16
 C10
A   17
 N6 
A   18
 C11
A   19
 C12
A   20
 C13
A   21
 C14
A   22
 C15
A   23
 C16
A   24
 C17
A   25
 H1 
A   26
 H2 
A   27
 H3 
A   28
 H4 
A   29
 H5 
A   30
 H6 
A   31
 H7 
A   32
 H8 
A   33
 H9 
A   34
 H10
A   35
 H11
A   36
 H12
A   37
 H13
A   38
 H14
A   39
 H15
A   40
 H16
A   41
 H17
A   42
 H18
M  END
>  <ref_pdb>  (210) 
x0051_0B

>  <ref_mols>  (210) 
x0435_0B,x0404_0B

>  <original SMILES>  (210) 
[H]c1c(C(=O)N([H])c2c([H])c([H])c([H])c3c([H])nn([H])c23)nnc(N2C([H])([H])C([H])([H])C([H])([H])C([H])([H])C2([H])[H])c1[H]

>  <index>  (210) 
242

>  <∆∆G>  (210) 
-6.881426

>  <∆G_bound>  (210) 
-6.182662

>  <∆G_unbound>  (210) 
0.698764

>  <comRMSD>  (210) 
0.539173

>  <N_constrained_atoms>  (210) 
25.0

>  <N_unconstrained_atoms>  (210) 
0.0

>  <runtime>  (210) 
71.858432

>  <LE>  (210) 
0.275257

>  <percent_hybrid>  (210) 
40.0

>  <dist>  (210) 
10.0

>  <ecfp4>  (210) 
0.130435

>  <daylight>  (210) 
0.229452

>  <topodist>  (210) 
3.0

>  <mces>  (210) 
27.0

>  <tdn>  (210) 
2.0

>  <tup>  (210) 
0.0

>  <rdn>  (210) 
0.0

>  <rup>  (210) 
0.0

>  <ldn>  (210) 
1.0

>  <lup>  (210) 
0.0

>  <mut>  (210) 
5.0

>  <maj>  (210) 
5.0

>  <min>  (210) 
0.0

>  <hyb>  (210) 
2.0

>  <sub>  (210) 
1.0

>  <query_index>  (210) 
26.0

>  <max_hit_Tanimoto>  (210) 
0.189135

>  <largest_ring>  (210) 
6

>  <N_interactions_kept>  (210) 
3.0

>  <N_interactions_lost>  (210) 
1.5

>  <interaction_uniqueness_metric>  (210) 
0.163263

>  <ad_hoc_penalty>  (210) 
-24.221426

>  <N_rotatable_bonds>  (210) 
3

>  <N_HA>  (210) 
24

>  <cluster>  (210) 
5998

>  <N_interactions>  (210) 
5

>  <Enamine>  (210) 
0

>  <Mcule>  (210) 
1

>  <N_PAINS>  (210) 
0

>  <UFF_Gibbs>  (210) 
146.931095

>  <strain_per_HA>  (210) 
5.877244

>  <saltbridge:HIS:51>  (210) 
0

>  <pistack:HIS:51>  (210) 
1

>  <hydroph_interaction:HIS:51>  (210) 
1

>  <hbond:ALA:132>  (210) 
0

>  <hbond:SER:135>  (210) 
0

>  <hydroph_interaction:TYR:150>  (210) 
0

>  <pistack:TYR:161>  (210) 
0

>  <hydroph_interaction:TYR:161>  (210) 
2

>  <hydroph_interaction:ASP:83>  (210) 
1

>  <hbond:TYR:130>  (210) 
0

>  <hydroph_interaction:ALA:132>  (210) 
0

>  <hbond:HIS:51>  (210) 
0

>  <hbond:ASP:129>  (210) 
0

>  <hbond:TYR:150>  (210) 
0

>  <hbond:GLY:151>  (210) 
0

>  <hbond:TYR:161>  (210) 
0

>  <hydroph_interaction:TYR:130>  (210) 
0

>  <hydroph_interaction:PRO:131>  (210) 
0

>  <hydroph_interaction:ASP:129>  (210) 
0

>  <saltbridge:ASP:75>  (210) 
0

>  <saltbridge:ASP:83>  (210) 
0

>  <hydroph_interaction:ASN:152>  (210) 
0

>  <halogenbond:TYR:150>  (210) 
0

>  <hbond:ASP:83>  (210) 
0

>  <hydroph_interaction:VAL:155>  (210) 
0

>  <pication:TYR:161>  (210) 
0

>  <hbond:PRO:131>  (210) 
0

>  <hbond:LEU:128>  (210) 
0

>  <saltbridge:ASP:129>  (210) 
0

>  <hbond:THR:134>  (210) 
0

>  <pication:HIS:51>  (210) 
0

>  <hbond:SER:81>  (210) 
0

>  <hbond:GLY:159>  (210) 
0

>  <hydroph_interaction:PRO:101>  (210) 
0

>  <hydroph_interaction:THR:134>  (210) 
0

>  <hbond:GLY:82>  (210) 
0

>  <hydroph_interaction:GLU:104>  (210) 
0

>  <hydroph_interaction:VAL:36>  (210) 
0

>  <hydroph_interaction:MET:49>  (210) 
0

>  <halogenbond:GLU:104>  (210) 
0

>  <hydroph_interaction:LYS:107>  (210) 
0

$$$$
PV-003204848796
     RDKit          3D

 24 25  0  0  0  0  0  0  0  0999 V2000
  -12.1281    2.9630  -21.1293 C   0  0  0  0  0  0  0  0  0  0  0  0
  -11.5197    3.4731  -19.8624 C   0  0  0  0  0  0  0  0  0  0  0  0
  -10.2910    4.0034  -19.8592 C   0  0  0  0  0  0  0  0  0  0  0  0
   -9.6129    4.5187  -18.6440 C   0  0  0  0  0  0  0  0  0  0  0  0
  -10.3115    4.8789  -17.4745 C   0  0  0  0  0  0  0  0  0  0  0  0
   -9.6418    5.3571  -16.3924 N   0  0  0  0  0  0  0  0  0  0  0  0
   -8.2919    5.5102  -16.3921 C   0  0  0  0  0  0  0  0  0  0  0  0
   -7.6399    6.0029  -15.2557 C   0  0  0  0  0  0  0  0  0  0  0  0
   -6.2507    6.1640  -15.2614 C   0  0  0  0  0  0  0  0  0  0  0  0
   -5.5094    5.8348  -16.4009 C   0  0  0  0  0  0  0  0  0  0  0  0
   -6.1529    5.3425  -17.5411 C   0  0  0  0  0  0  0  0  0  0  0  0
   -7.5465    5.1773  -17.5430 C   0  0  0  0  0  0  0  0  0  0  0  0
   -8.2196    4.6863  -18.6682 C   0  0  0  0  0  0  0  0  0  0  0  0
  -12.2205    3.7899  -21.8649 H   0  0  0  0  0  0  0  0  0  0  0  0
  -13.1389    2.5531  -20.9224 H   0  0  0  0  0  0  0  0  0  0  0  0
  -11.4953    2.1567  -21.5568 H   0  0  0  0  0  0  0  0  0  0  0  0
  -12.0937    3.3758  -18.9515 H   0  0  0  0  0  0  0  0  0  0  0  0
   -9.7385    4.0254  -20.7925 H   0  0  0  0  0  0  0  0  0  0  0  0
  -11.3876    4.8062  -17.4180 H   0  0  0  0  0  0  0  0  0  0  0  0
   -8.2062    6.2615  -14.3695 H   0  0  0  0  0  0  0  0  0  0  0  0
   -5.7479    6.5449  -14.3819 H   0  0  0  0  0  0  0  0  0  0  0  0
   -4.4345    5.9617  -16.4003 H   0  0  0  0  0  0  0  0  0  0  0  0
   -5.5651    5.0921  -18.4161 H   0  0  0  0  0  0  0  0  0  0  0  0
   -7.6596    4.4263  -19.5599 H   0  0  0  0  0  0  0  0  0  0  0  0
  1  2  1  0
  2  3  2  0
  3  4  1  0
  4  5  2  0
  5  6  1  0
  6  7  2  0
  7  8  1  0
  8  9  2  0
  9 10  1  0
 10 11  2  0
 11 12  1  0
 12 13  2  0
 13  4  1  0
 12  7  1  0
  1 14  1  0
  1 15  1  0
  1 16  1  0
  2 17  1  0
  3 18  1  0
  5 19  1  0
  8 20  1  0
  9 21  1  0
 10 22  1  0
 11 23  1  0
 13 24  1  0
A    1
 C1 
A    2
 C2 
A    3
 C3 
A    4
 C4 
A    5
 C5 
A    6
 N1 
A    7
 C6 
A    8
 C7 
A    9
 C8 
A   10
 C9 
A   11
 C10
A   12
 C11
A   13
 C12
A   14
 H1 
A   15
 H2 
A   16
 H3 
A   17
 H4 
A   18
 H5 
A   19
 H6 
A   20
 H7 
A   21
 H8 
A   22
 H9 
A   23
 H10
A   24
 H11
M  END
>  <ref_pdb>  (211) 
x0051_0B

>  <ref_mols>  (211) 
x0559_0B,x0455_0B

>  <original SMILES>  (211) 
[H]/C(=C(/[H])C([H])([H])[H])c1c([H])nc2c([H])c([H])c([H])c([H])c2c1[H]

>  <index>  (211) 
444

>  <∆∆G>  (211) 
-5.266691

>  <∆G_bound>  (211) 
-5.293626

>  <∆G_unbound>  (211) 
-0.026935

>  <comRMSD>  (211) 
0.933357

>  <N_constrained_atoms>  (211) 
13.0

>  <N_unconstrained_atoms>  (211) 
2.0

>  <runtime>  (211) 
35.096725

>  <LE>  (211) 
0.351113

>  <percent_hybrid>  (211) 
34.0

>  <dist>  (211) 
3.0

>  <ecfp4>  (211) 
0.019231

>  <daylight>  (211) 
0.367347

>  <topodist>  (211) 
2.0

>  <mces>  (211) 
12.0

>  <tdn>  (211) 
0.0

>  <tup>  (211) 
1.0

>  <rdn>  (211) 
0.0

>  <rup>  (211) 
0.0

>  <ldn>  (211) 
0.0

>  <lup>  (211) 
1.0

>  <mut>  (211) 
1.0

>  <maj>  (211) 
1.0

>  <min>  (211) 
0.0

>  <hyb>  (211) 
0.0

>  <sub>  (211) 
1.0

>  <query_index>  (211) 
356.0

>  <max_hit_Tanimoto>  (211) 
0.163097

>  <largest_ring>  (211) 
6

>  <N_interactions_kept>  (211) 
1.0

>  <N_interactions_lost>  (211) 
2.5

>  <interaction_uniqueness_metric>  (211) 
0.415839

>  <ad_hoc_penalty>  (211) 
-24.211634

>  <N_rotatable_bonds>  (211) 
2

>  <N_HA>  (211) 
13

>  <cluster>  (211) 
5815

>  <N_interactions>  (211) 
7

>  <Enamine>  (211) 
1

>  <Mcule>  (211) 
0

>  <N_PAINS>  (211) 
0

>  <UFF_Gibbs>  (211) 
85.024861

>  <strain_per_HA>  (211) 
5.668324

>  <saltbridge:HIS:51>  (211) 
0

>  <pistack:HIS:51>  (211) 
0

>  <hydroph_interaction:HIS:51>  (211) 
0

>  <hbond:ALA:132>  (211) 
0

>  <hbond:SER:135>  (211) 
0

>  <hydroph_interaction:TYR:150>  (211) 
2

>  <pistack:TYR:161>  (211) 
1

>  <hydroph_interaction:TYR:161>  (211) 
2

>  <hydroph_interaction:ASP:83>  (211) 
0

>  <hbond:TYR:130>  (211) 
0

>  <hydroph_interaction:ALA:132>  (211) 
0

>  <hbond:HIS:51>  (211) 
0

>  <hbond:ASP:129>  (211) 
0

>  <hbond:TYR:150>  (211) 
0

>  <hbond:GLY:151>  (211) 
0

>  <hbond:TYR:161>  (211) 
0

>  <hydroph_interaction:TYR:130>  (211) 
1

>  <hydroph_interaction:PRO:131>  (211) 
0

>  <hydroph_interaction:ASP:129>  (211) 
0

>  <saltbridge:ASP:75>  (211) 
0

>  <saltbridge:ASP:83>  (211) 
0

>  <hydroph_interaction:ASN:152>  (211) 
0

>  <halogenbond:TYR:150>  (211) 
0

>  <hbond:ASP:83>  (211) 
0

>  <hydroph_interaction:VAL:155>  (211) 
0

>  <pication:TYR:161>  (211) 
0

>  <hbond:PRO:131>  (211) 
0

>  <hbond:LEU:128>  (211) 
0

>  <saltbridge:ASP:129>  (211) 
0

>  <hbond:THR:134>  (211) 
0

>  <pication:HIS:51>  (211) 
0

>  <hbond:SER:81>  (211) 
0

>  <hbond:GLY:159>  (211) 
0

>  <hydroph_interaction:PRO:101>  (211) 
0

>  <hydroph_interaction:THR:134>  (211) 
1

>  <hbond:GLY:82>  (211) 
0

>  <hydroph_interaction:GLU:104>  (211) 
0

>  <hydroph_interaction:VAL:36>  (211) 
0

>  <hydroph_interaction:MET:49>  (211) 
0

>  <halogenbond:GLU:104>  (211) 
0

>  <hydroph_interaction:LYS:107>  (211) 
0

$$$$
CSSS00015920999
     RDKit          3D

 20 21  0  0  0  0  0  0  0  0999 V2000
  -11.5772    4.6922  -18.4451 N   0  0  0  0  0  0  0  0  0  0  0  0
  -10.1751    4.7783  -18.2035 C   0  0  0  0  0  0  0  0  0  0  0  0
   -9.5608    4.5930  -16.9765 C   0  0  0  0  0  0  0  0  0  0  0  0
   -8.1692    4.7360  -17.0398 C   0  0  0  0  0  0  0  0  0  0  0  0
   -7.6913    5.0352  -18.3208 C   0  0  0  0  0  0  0  0  0  0  0  0
   -9.0168    5.1161  -19.3683 S   0  0  0  0  0  0  0  0  0  0  0  0
   -6.2733    5.2446  -18.7135 C   0  0  0  0  0  0  0  0  0  0  0  0
   -5.2547    5.3599  -17.7495 C   0  0  0  0  0  0  0  0  0  0  0  0
   -3.9305    5.5573  -18.1444 C   0  0  0  0  0  0  0  0  0  0  0  0
   -3.6261    5.6404  -19.5021 C   0  0  0  0  0  0  0  0  0  0  0  0
   -4.6142    5.5309  -20.4272 N   0  0  0  0  0  0  0  0  0  0  0  0
   -5.9123    5.3390  -20.0707 C   0  0  0  0  0  0  0  0  0  0  0  0
  -11.9555    4.8456  -19.4058 H   0  0  0  0  0  0  0  0  0  0  0  0
  -12.2368    4.4756  -17.6653 H   0  0  0  0  0  0  0  0  0  0  0  0
  -10.0961    4.3589  -16.0656 H   0  0  0  0  0  0  0  0  0  0  0  0
   -7.5425    4.6097  -16.1687 H   0  0  0  0  0  0  0  0  0  0  0  0
   -5.4720    5.3103  -16.6922 H   0  0  0  0  0  0  0  0  0  0  0  0
   -3.1469    5.6478  -17.4032 H   0  0  0  0  0  0  0  0  0  0  0  0
   -2.6039    5.7935  -19.8215 H   0  0  0  0  0  0  0  0  0  0  0  0
   -6.6560    5.2547  -20.8513 H   0  0  0  0  0  0  0  0  0  0  0  0
  1  2  1  0
  2  3  2  0
  3  4  1  0
  4  5  2  0
  5  6  1  0
  5  7  1  0
  7  8  2  0
  8  9  1  0
  9 10  2  0
 10 11  1  0
 11 12  2  0
  6  2  1  0
 12  7  1  0
  1 13  1  0
  1 14  1  0
  3 15  1  0
  4 16  1  0
  8 17  1  0
  9 18  1  0
 10 19  1  0
 12 20  1  0
A    1
 N1 
A    2
 C1 
A    3
 C2 
A    4
 C3 
A    5
 C4 
A    6
 S1 
A    7
 C5 
A    8
 C6 
A    9
 C7 
A   10
 C8 
A   11
 N2 
A   12
 C9 
A   13
 H1 
A   14
 H2 
A   15
 H3 
A   16
 H4 
A   17
 H5 
A   18
 H6 
A   19
 H7 
A   20
 H8 
M  END
>  <ref_pdb>  (212) 
x0051_0B

>  <ref_mols>  (212) 
x0680_0B,x0386_0B

>  <original SMILES>  (212) 
[H]c1nc([H])c(-c2sc(N([H])[H])c([H])c2[H])c([H])c1[H]

>  <index>  (212) 
270

>  <∆∆G>  (212) 
-5.039843

>  <∆G_bound>  (212) 
-5.047379

>  <∆G_unbound>  (212) 
-0.007536

>  <comRMSD>  (212) 
0.633582

>  <N_constrained_atoms>  (212) 
13.0

>  <N_unconstrained_atoms>  (212) 
1.0

>  <runtime>  (212) 
27.443056

>  <LE>  (212) 
0.359989

>  <percent_hybrid>  (212) 
25.0

>  <dist>  (212) 
4.0

>  <ecfp4>  (212) 
0.192308

>  <daylight>  (212) 
0.277419

>  <topodist>  (212) 
2.0

>  <mces>  (212) 
12.0

>  <tdn>  (212) 
1.0

>  <tup>  (212) 
1.0

>  <rdn>  (212) 
0.0

>  <rup>  (212) 
0.0

>  <ldn>  (212) 
0.0

>  <lup>  (212) 
0.0

>  <mut>  (212) 
2.0

>  <maj>  (212) 
2.0

>  <min>  (212) 
0.0

>  <hyb>  (212) 
0.0

>  <sub>  (212) 
2.0

>  <query_index>  (212) 
296.0

>  <max_hit_Tanimoto>  (212) 
0.128763

>  <largest_ring>  (212) 
6

>  <N_interactions_kept>  (212) 
3.5

>  <N_interactions_lost>  (212) 
0.5

>  <interaction_uniqueness_metric>  (212) 
0.153626

>  <ad_hoc_penalty>  (212) 
-24.185891

>  <N_rotatable_bonds>  (212) 
2

>  <N_HA>  (212) 
12

>  <cluster>  (212) 
5970

>  <N_interactions>  (212) 
4

>  <Enamine>  (212) 
1

>  <Mcule>  (212) 
0

>  <N_PAINS>  (212) 
0

>  <UFF_Gibbs>  (212) 
73.288973

>  <strain_per_HA>  (212) 
5.234927

>  <saltbridge:HIS:51>  (212) 
0

>  <pistack:HIS:51>  (212) 
0

>  <hydroph_interaction:HIS:51>  (212) 
0

>  <hbond:ALA:132>  (212) 
0

>  <hbond:SER:135>  (212) 
0

>  <hydroph_interaction:TYR:150>  (212) 
0

>  <pistack:TYR:161>  (212) 
0

>  <hydroph_interaction:TYR:161>  (212) 
3

>  <hydroph_interaction:ASP:83>  (212) 
0

>  <hbond:TYR:130>  (212) 
0

>  <hydroph_interaction:ALA:132>  (212) 
0

>  <hbond:HIS:51>  (212) 
0

>  <hbond:ASP:129>  (212) 
0

>  <hbond:TYR:150>  (212) 
0

>  <hbond:GLY:151>  (212) 
0

>  <hbond:TYR:161>  (212) 
0

>  <hydroph_interaction:TYR:130>  (212) 
0

>  <hydroph_interaction:PRO:131>  (212) 
0

>  <hydroph_interaction:ASP:129>  (212) 
0

>  <saltbridge:ASP:75>  (212) 
0

>  <saltbridge:ASP:83>  (212) 
0

>  <hydroph_interaction:ASN:152>  (212) 
0

>  <halogenbond:TYR:150>  (212) 
0

>  <hbond:ASP:83>  (212) 
0

>  <hydroph_interaction:VAL:155>  (212) 
0

>  <pication:TYR:161>  (212) 
0

>  <hbond:PRO:131>  (212) 
1

>  <hbond:LEU:128>  (212) 
0

>  <saltbridge:ASP:129>  (212) 
0

>  <hbond:THR:134>  (212) 
0

>  <pication:HIS:51>  (212) 
0

>  <hbond:SER:81>  (212) 
0

>  <hbond:GLY:159>  (212) 
0

>  <hydroph_interaction:PRO:101>  (212) 
0

>  <hydroph_interaction:THR:134>  (212) 
0

>  <hbond:GLY:82>  (212) 
0

>  <hydroph_interaction:GLU:104>  (212) 
0

>  <hydroph_interaction:VAL:36>  (212) 
0

>  <hydroph_interaction:MET:49>  (212) 
0

>  <halogenbond:GLU:104>  (212) 
0

>  <hydroph_interaction:LYS:107>  (212) 
0

$$$$
CSCS03437721251
     RDKit          3D

 33 34  0  0  0  0  0  0  0  0999 V2000
   -7.2360    2.9693  -18.7007 C   0  0  0  0  0  0  0  0  0  0  0  0
   -7.6975    4.0238  -17.7310 C   0  0  0  0  0  0  0  0  0  0  0  0
   -8.9070    3.8415  -17.0429 C   0  0  0  0  0  0  0  0  0  0  0  0
   -9.3496    4.7948  -16.1260 C   0  0  0  0  0  0  0  0  0  0  0  0
   -8.5961    5.9444  -15.8894 C   0  0  0  0  0  0  0  0  0  0  0  0
   -7.3953    6.1617  -16.5827 C   0  0  0  0  0  0  0  0  0  0  0  0
   -6.5985    7.4114  -16.3257 C   0  0  0  0  0  0  0  0  0  0  0  0
   -6.9490    5.2052  -17.5202 C   0  0  0  0  0  0  0  0  0  0  0  0
   -5.7220    5.4252  -18.2331 N   0  0  0  0  0  0  0  0  0  0  0  0
   -5.6712    5.7174  -19.6410 C   0  0  0  0  0  0  0  0  0  0  0  0
   -7.0367    6.1962  -20.4274 S   0  0  0  0  0  0  0  0  0  0  0  0
   -4.4223    5.5810  -20.3511 N   0  0  0  0  0  0  0  0  0  0  0  0
   -3.2715    4.8603  -19.8288 C   0  0  0  0  0  0  0  0  0  0  0  0
   -2.2625    4.7565  -20.9869 C   0  0  0  0  0  0  0  0  0  0  0  0
   -2.7577    5.6858  -22.1016 C   0  0  0  0  0  0  0  0  0  0  0  0
   -4.1054    6.0766  -21.6445 C   0  0  0  0  0  0  0  0  0  0  0  0
   -4.8725    6.8137  -22.3189 O   0  0  0  0  0  0  0  0  0  0  0  0
   -7.6890    1.9832  -18.4628 H   0  0  0  0  0  0  0  0  0  0  0  0
   -6.1331    2.8497  -18.6541 H   0  0  0  0  0  0  0  0  0  0  0  0
   -7.5308    3.2552  -19.7314 H   0  0  0  0  0  0  0  0  0  0  0  0
   -9.5049    2.9537  -17.2084 H   0  0  0  0  0  0  0  0  0  0  0  0
  -10.2791    4.6400  -15.5932 H   0  0  0  0  0  0  0  0  0  0  0  0
   -8.9550    6.6684  -15.1684 H   0  0  0  0  0  0  0  0  0  0  0  0
   -5.6272    7.1446  -15.8590 H   0  0  0  0  0  0  0  0  0  0  0  0
   -6.4103    7.9421  -17.2829 H   0  0  0  0  0  0  0  0  0  0  0  0
   -7.1352    8.1070  -15.6459 H   0  0  0  0  0  0  0  0  0  0  0  0
   -4.8392    5.4533  -17.6767 H   0  0  0  0  0  0  0  0  0  0  0  0
   -2.8235    5.4322  -18.9876 H   0  0  0  0  0  0  0  0  0  0  0  0
   -3.5743    3.8491  -19.4795 H   0  0  0  0  0  0  0  0  0  0  0  0
   -2.2290    3.7095  -21.3607 H   0  0  0  0  0  0  0  0  0  0  0  0
   -1.2436    5.0490  -20.6516 H   0  0  0  0  0  0  0  0  0  0  0  0
   -2.1112    6.5859  -22.1823 H   0  0  0  0  0  0  0  0  0  0  0  0
   -2.8117    5.1554  -23.0765 H   0  0  0  0  0  0  0  0  0  0  0  0
  1  2  1  0
  2  3  2  0
  3  4  1  0
  4  5  2  0
  5  6  1  0
  6  7  1  0
  6  8  2  0
  8  9  1  0
  9 10  1  0
 10 11  2  0
 10 12  1  0
 12 13  1  0
 13 14  1  0
 14 15  1  0
 15 16  1  0
 16 17  2  0
  8  2  1  0
 16 12  1  0
  1 18  1  0
  1 19  1  0
  1 20  1  0
  3 21  1  0
  4 22  1  0
  5 23  1  0
  7 24  1  0
  7 25  1  0
  7 26  1  0
  9 27  1  0
 13 28  1  0
 13 29  1  0
 14 30  1  0
 14 31  1  0
 15 32  1  0
 15 33  1  0
A    1
 C1 
A    2
 C2 
A    3
 C3 
A    4
 C4 
A    5
 C5 
A    6
 C6 
A    7
 C7 
A    8
 C8 
A    9
 N1 
A   10
 C9 
A   11
 S1 
A   12
 N2 
A   13
 C10
A   14
 C11
A   15
 C12
A   16
 C13
A   17
 O1 
A   18
 H1 
A   19
 H2 
A   20
 H3 
A   21
 H4 
A   22
 H5 
A   23
 H6 
A   24
 H7 
A   25
 H8 
A   26
 H9 
A   27
 H10
A   28
 H11
A   29
 H12
A   30
 H13
A   31
 H14
A   32
 H15
A   33
 H16
M  END
>  <ref_pdb>  (213) 
x0051_0B

>  <ref_mols>  (213) 
x0904_0B,x0229_0B

>  <original SMILES>  (213) 
[H]c1c([H])c(C([H])([H])[H])c(N([H])C(=S)N2C(=O)C([H])([H])C([H])([H])C2([H])[H])c(C([H])([H])[H])c1[H]

>  <index>  (213) 
81

>  <∆∆G>  (213) 
-8.612232

>  <∆G_bound>  (213) 
-8.689878

>  <∆G_unbound>  (213) 
-0.077646

>  <comRMSD>  (213) 
0.791794

>  <N_constrained_atoms>  (213) 
17.0

>  <N_unconstrained_atoms>  (213) 
2.0

>  <runtime>  (213) 
34.708147

>  <LE>  (213) 
0.453275

>  <percent_hybrid>  (213) 
38.0

>  <dist>  (213) 
9.0

>  <ecfp4>  (213) 
0.217391

>  <daylight>  (213) 
0.235602

>  <topodist>  (213) 
4.0

>  <mces>  (213) 
18.0

>  <tdn>  (213) 
3.0

>  <tup>  (213) 
0.0

>  <rdn>  (213) 
1.0

>  <rup>  (213) 
0.0

>  <ldn>  (213) 
0.0

>  <lup>  (213) 
0.0

>  <mut>  (213) 
3.0

>  <maj>  (213) 
2.0

>  <min>  (213) 
1.0

>  <hyb>  (213) 
2.0

>  <sub>  (213) 
1.0

>  <query_index>  (213) 
148.0

>  <max_hit_Tanimoto>  (213) 
0.276163

>  <largest_ring>  (213) 
6

>  <N_interactions_kept>  (213) 
2.0

>  <N_interactions_lost>  (213) 
1.5

>  <interaction_uniqueness_metric>  (213) 
0.073378

>  <ad_hoc_penalty>  (213) 
-24.09821

>  <N_rotatable_bonds>  (213) 
3

>  <N_HA>  (213) 
17

>  <cluster>  (213) 
6143

>  <N_interactions>  (213) 
6

>  <Enamine>  (213) 
1

>  <Mcule>  (213) 
0

>  <N_PAINS>  (213) 
0

>  <UFF_Gibbs>  (213) 
225.762057

>  <strain_per_HA>  (213) 
11.882214

>  <saltbridge:HIS:51>  (213) 
0

>  <pistack:HIS:51>  (213) 
0

>  <hydroph_interaction:HIS:51>  (213) 
0

>  <hbond:ALA:132>  (213) 
0

>  <hbond:SER:135>  (213) 
0

>  <hydroph_interaction:TYR:150>  (213) 
1

>  <pistack:TYR:161>  (213) 
0

>  <hydroph_interaction:TYR:161>  (213) 
4

>  <hydroph_interaction:ASP:83>  (213) 
0

>  <hbond:TYR:130>  (213) 
0

>  <hydroph_interaction:ALA:132>  (213) 
0

>  <hbond:HIS:51>  (213) 
0

>  <hbond:ASP:129>  (213) 
1

>  <hbond:TYR:150>  (213) 
0

>  <hbond:GLY:151>  (213) 
0

>  <hbond:TYR:161>  (213) 
0

>  <hydroph_interaction:TYR:130>  (213) 
0

>  <hydroph_interaction:PRO:131>  (213) 
0

>  <hydroph_interaction:ASP:129>  (213) 
0

>  <saltbridge:ASP:75>  (213) 
0

>  <saltbridge:ASP:83>  (213) 
0

>  <hydroph_interaction:ASN:152>  (213) 
0

>  <halogenbond:TYR:150>  (213) 
0

>  <hbond:ASP:83>  (213) 
0

>  <hydroph_interaction:VAL:155>  (213) 
0

>  <pication:TYR:161>  (213) 
0

>  <hbond:PRO:131>  (213) 
0

>  <hbond:LEU:128>  (213) 
0

>  <saltbridge:ASP:129>  (213) 
0

>  <hbond:THR:134>  (213) 
0

>  <pication:HIS:51>  (213) 
0

>  <hbond:SER:81>  (213) 
0

>  <hbond:GLY:159>  (213) 
0

>  <hydroph_interaction:PRO:101>  (213) 
0

>  <hydroph_interaction:THR:134>  (213) 
0

>  <hbond:GLY:82>  (213) 
0

>  <hydroph_interaction:GLU:104>  (213) 
0

>  <hydroph_interaction:VAL:36>  (213) 
0

>  <hydroph_interaction:MET:49>  (213) 
0

>  <halogenbond:GLU:104>  (213) 
0

>  <hydroph_interaction:LYS:107>  (213) 
0

$$$$
CSSS00015190321
     RDKit          3D

 22 23  0  0  0  0  0  0  0  0999 V2000
   -8.3823    4.4910  -14.1885 N   0  0  0  0  0  0  0  0  0  0  0  0
   -7.8566    5.4550  -15.1604 C   0  0  0  0  0  0  0  0  0  0  0  0
   -6.3183    5.4200  -15.0989 C   0  0  0  0  0  0  0  0  0  0  0  0
   -5.7171    6.2592  -16.2247 C   0  0  0  0  0  0  0  0  0  0  0  0
   -6.1842    5.7874  -17.4855 O   0  0  0  0  0  0  0  0  0  0  0  0
   -7.5079    5.3774  -17.6778 C   0  0  0  0  0  0  0  0  0  0  0  0
   -7.9694    5.1460  -18.9779 C   0  0  0  0  0  0  0  0  0  0  0  0
   -9.2960    4.7692  -19.1957 C   0  0  0  0  0  0  0  0  0  0  0  0
  -10.1687    4.6286  -18.1150 C   0  0  0  0  0  0  0  0  0  0  0  0
   -9.7138    4.8465  -16.8113 C   0  0  0  0  0  0  0  0  0  0  0  0
   -8.3686    5.1887  -16.5731 C   0  0  0  0  0  0  0  0  0  0  0  0
   -8.3543    3.5267  -14.5944 H   0  0  0  0  0  0  0  0  0  0  0  0
   -9.3763    4.7259  -13.9661 H   0  0  0  0  0  0  0  0  0  0  0  0
   -8.1875    6.4766  -14.8666 H   0  0  0  0  0  0  0  0  0  0  0  0
   -5.9591    4.3719  -15.2012 H   0  0  0  0  0  0  0  0  0  0  0  0
   -5.9724    5.8128  -14.1181 H   0  0  0  0  0  0  0  0  0  0  0  0
   -6.0118    7.3235  -16.0985 H   0  0  0  0  0  0  0  0  0  0  0  0
   -4.6092    6.1941  -16.1967 H   0  0  0  0  0  0  0  0  0  0  0  0
   -7.3017    5.2724  -19.8206 H   0  0  0  0  0  0  0  0  0  0  0  0
   -9.6514    4.5984  -20.2037 H   0  0  0  0  0  0  0  0  0  0  0  0
  -11.2013    4.3538  -18.2879 H   0  0  0  0  0  0  0  0  0  0  0  0
  -10.4161    4.7461  -15.9954 H   0  0  0  0  0  0  0  0  0  0  0  0
  1  2  1  0
  2  3  1  0
  3  4  1  0
  4  5  1  0
  5  6  1  0
  6  7  2  0
  7  8  1  0
  8  9  2  0
  9 10  1  0
 10 11  2  0
 11  2  1  0
 11  6  1  0
  1 12  1  0
  1 13  1  0
  2 14  1  0
  3 15  1  0
  3 16  1  0
  4 17  1  0
  4 18  1  0
  7 19  1  0
  8 20  1  0
  9 21  1  0
 10 22  1  0
A    1
 N1 
A    2
 C1 
A    3
 C2 
A    4
 C3 
A    5
 O1 
A    6
 C4 
A    7
 C5 
A    8
 C6 
A    9
 C7 
A   10
 C8 
A   11
 C9 
A   12
 H1 
A   13
 H2 
A   14
 H3 
A   15
 H4 
A   16
 H5 
A   17
 H6 
A   18
 H7 
A   19
 H8 
A   20
 H9 
A   21
 H10
A   22
 H11
M  END
>  <ref_pdb>  (214) 
x0051_0B

>  <ref_mols>  (214) 
x0455_0B,x0951_0B

>  <original SMILES>  (214) 
[H]c1c([H])c([H])c2c(c1[H])OC([H])([H])C([H])([H])C2([H])N([H])[H]

>  <index>  (214) 
450

>  <∆∆G>  (214) 
-6.477053

>  <∆G_bound>  (214) 
-6.421447

>  <∆G_unbound>  (214) 
0.055605

>  <comRMSD>  (214) 
0.616996

>  <N_constrained_atoms>  (214) 
12.0

>  <N_unconstrained_atoms>  (214) 
0.0

>  <runtime>  (214) 
19.001329

>  <LE>  (214) 
0.539754

>  <percent_hybrid>  (214) 
50.0

>  <dist>  (214) 
4.0

>  <ecfp4>  (214) 
0.137255

>  <daylight>  (214) 
0.16

>  <topodist>  (214) 
2.0

>  <mces>  (214) 
12.0

>  <tdn>  (214) 
1.0

>  <tup>  (214) 
0.0

>  <rdn>  (214) 
0.0

>  <rup>  (214) 
0.0

>  <ldn>  (214) 
1.0

>  <lup>  (214) 
0.0

>  <mut>  (214) 
2.0

>  <maj>  (214) 
2.0

>  <min>  (214) 
0.0

>  <hyb>  (214) 
0.0

>  <sub>  (214) 
1.0

>  <query_index>  (214) 
288.0

>  <max_hit_Tanimoto>  (214) 
0.164157

>  <largest_ring>  (214) 
6

>  <N_interactions_kept>  (214) 
1.0

>  <N_interactions_lost>  (214) 
1.5

>  <interaction_uniqueness_metric>  (214) 
0.071024

>  <ad_hoc_penalty>  (214) 
-24.046005

>  <N_rotatable_bonds>  (214) 
1

>  <N_HA>  (214) 
11

>  <cluster>  (214) 
5810

>  <N_interactions>  (214) 
4

>  <Enamine>  (214) 
1

>  <Mcule>  (214) 
0

>  <N_PAINS>  (214) 
0

>  <UFF_Gibbs>  (214) 
16.437475

>  <strain_per_HA>  (214) 
1.36979

>  <saltbridge:HIS:51>  (214) 
0

>  <pistack:HIS:51>  (214) 
0

>  <hydroph_interaction:HIS:51>  (214) 
0

>  <hbond:ALA:132>  (214) 
0

>  <hbond:SER:135>  (214) 
0

>  <hydroph_interaction:TYR:150>  (214) 
1

>  <pistack:TYR:161>  (214) 
0

>  <hydroph_interaction:TYR:161>  (214) 
2

>  <hydroph_interaction:ASP:83>  (214) 
0

>  <hbond:TYR:130>  (214) 
0

>  <hydroph_interaction:ALA:132>  (214) 
0

>  <hbond:HIS:51>  (214) 
0

>  <hbond:ASP:129>  (214) 
0

>  <hbond:TYR:150>  (214) 
0

>  <hbond:GLY:151>  (214) 
0

>  <hbond:TYR:161>  (214) 
1

>  <hydroph_interaction:TYR:130>  (214) 
0

>  <hydroph_interaction:PRO:131>  (214) 
0

>  <hydroph_interaction:ASP:129>  (214) 
0

>  <saltbridge:ASP:75>  (214) 
0

>  <saltbridge:ASP:83>  (214) 
0

>  <hydroph_interaction:ASN:152>  (214) 
0

>  <halogenbond:TYR:150>  (214) 
0

>  <hbond:ASP:83>  (214) 
0

>  <hydroph_interaction:VAL:155>  (214) 
0

>  <pication:TYR:161>  (214) 
0

>  <hbond:PRO:131>  (214) 
0

>  <hbond:LEU:128>  (214) 
0

>  <saltbridge:ASP:129>  (214) 
0

>  <hbond:THR:134>  (214) 
0

>  <pication:HIS:51>  (214) 
0

>  <hbond:SER:81>  (214) 
0

>  <hbond:GLY:159>  (214) 
0

>  <hydroph_interaction:PRO:101>  (214) 
0

>  <hydroph_interaction:THR:134>  (214) 
0

>  <hbond:GLY:82>  (214) 
0

>  <hydroph_interaction:GLU:104>  (214) 
0

>  <hydroph_interaction:VAL:36>  (214) 
0

>  <hydroph_interaction:MET:49>  (214) 
0

>  <halogenbond:GLU:104>  (214) 
0

>  <hydroph_interaction:LYS:107>  (214) 
0

$$$$
DIHICBHCECJCMN-UHFFFAOYSA-N
     RDKit          3D

 45 47  0  0  0  0  0  0  0  0999 V2000
   -7.5823    5.3541  -13.9867 C   0  0  0  0  0  0  0  0  0  0  0  0
   -8.8918    5.1038  -13.4566 N   0  0  0  0  0  0  0  0  0  0  0  0
   -9.4872    5.9328  -12.4121 C   0  0  0  0  0  0  0  0  0  0  0  0
   -8.7920    5.7016  -11.1054 C   0  0  0  0  0  0  0  0  0  0  0  0
   -8.8315    4.5743  -10.3112 C   0  0  0  0  0  0  0  0  0  0  0  0
   -8.0537    4.7867   -9.2348 N   0  0  0  0  0  0  0  0  0  0  0  0
   -7.7755    3.8053   -8.1875 C   0  0  0  0  0  0  0  0  0  0  0  0
   -8.8499    2.7047   -8.1747 C   0  0  0  0  0  0  0  0  0  0  0  0
   -9.1402    2.2050   -9.6001 C   0  0  0  0  0  0  0  0  0  0  0  0
   -9.6630    3.3390  -10.4962 C   0  0  0  0  0  0  0  0  0  0  0  0
   -7.4757    5.9746   -9.3224 N   0  0  0  0  0  0  0  0  0  0  0  0
   -7.9167    6.5576  -10.4578 C   0  0  0  0  0  0  0  0  0  0  0  0
   -6.9023    6.3288  -13.5663 O   0  0  0  0  0  0  0  0  0  0  0  0
   -7.0251    4.4731  -15.0643 C   0  0  0  0  0  0  0  0  0  0  0  0
   -7.5766    4.8738  -16.4138 C   0  0  0  0  0  0  0  0  0  0  0  0
   -6.9334    5.8304  -17.2416 C   0  0  0  0  0  0  0  0  0  0  0  0
   -5.6291    6.4723  -16.8467 C   0  0  0  0  0  0  0  0  0  0  0  0
   -7.5059    6.1621  -18.4815 C   0  0  0  0  0  0  0  0  0  0  0  0
   -8.7068    5.5816  -18.8908 C   0  0  0  0  0  0  0  0  0  0  0  0
   -9.3651    4.6632  -18.0651 C   0  0  0  0  0  0  0  0  0  0  0  0
  -10.6408    4.0148  -18.5169 C   0  0  0  0  0  0  0  0  0  0  0  0
   -8.7903    4.3034  -16.8392 C   0  0  0  0  0  0  0  0  0  0  0  0
   -9.4496    4.3054  -13.8347 H   0  0  0  0  0  0  0  0  0  0  0  0
   -9.4295    7.0045  -12.7012 H   0  0  0  0  0  0  0  0  0  0  0  0
  -10.5607    5.6689  -12.2977 H   0  0  0  0  0  0  0  0  0  0  0  0
   -7.7488    4.3097   -7.1981 H   0  0  0  0  0  0  0  0  0  0  0  0
   -6.7801    3.3481   -8.3773 H   0  0  0  0  0  0  0  0  0  0  0  0
   -8.5019    1.8569   -7.5463 H   0  0  0  0  0  0  0  0  0  0  0  0
   -9.7856    3.1052   -7.7269 H   0  0  0  0  0  0  0  0  0  0  0  0
   -8.2083    1.7853  -10.0394 H   0  0  0  0  0  0  0  0  0  0  0  0
   -9.8953    1.3901   -9.5608 H   0  0  0  0  0  0  0  0  0  0  0  0
   -9.6344    3.0146  -11.5578 H   0  0  0  0  0  0  0  0  0  0  0  0
  -10.7145    3.5733  -10.2244 H   0  0  0  0  0  0  0  0  0  0  0  0
   -7.6122    7.5392  -10.7962 H   0  0  0  0  0  0  0  0  0  0  0  0
   -5.9159    4.5139  -15.0538 H   0  0  0  0  0  0  0  0  0  0  0  0
   -7.2905    3.4168  -14.8418 H   0  0  0  0  0  0  0  0  0  0  0  0
   -5.7176    6.9376  -15.8443 H   0  0  0  0  0  0  0  0  0  0  0  0
   -4.8243    5.7082  -16.8331 H   0  0  0  0  0  0  0  0  0  0  0  0
   -5.3330    7.2708  -17.5602 H   0  0  0  0  0  0  0  0  0  0  0  0
   -7.0211    6.8740  -19.1385 H   0  0  0  0  0  0  0  0  0  0  0  0
   -9.1242    5.8514  -19.8533 H   0  0  0  0  0  0  0  0  0  0  0  0
  -11.1703    4.6533  -19.2564 H   0  0  0  0  0  0  0  0  0  0  0  0
  -10.4112    3.0350  -18.9849 H   0  0  0  0  0  0  0  0  0  0  0  0
  -11.3209    3.8544  -17.6533 H   0  0  0  0  0  0  0  0  0  0  0  0
   -9.2906    3.5724  -16.2140 H   0  0  0  0  0  0  0  0  0  0  0  0
  1  2  1  0
  2  3  1  0
  3  4  1  0
  4  5  2  0
  5  6  1  0
  6  7  1  0
  7  8  1  0
  8  9  1  0
  9 10  1  0
  6 11  1  0
 11 12  2  0
  1 13  2  0
  1 14  1  0
 14 15  1  0
 15 16  2  0
 16 17  1  0
 16 18  1  0
 18 19  2  0
 19 20  1  0
 20 21  1  0
 20 22  2  0
 12  4  1  0
 10  5  1  0
 15 22  1  0
  2 23  1  0
  3 24  1  0
  3 25  1  0
  7 26  1  0
  7 27  1  0
  8 28  1  0
  8 29  1  0
  9 30  1  0
  9 31  1  0
 10 32  1  0
 10 33  1  0
 12 34  1  0
 14 35  1  0
 14 36  1  0
 17 37  1  0
 17 38  1  0
 17 39  1  0
 18 40  1  0
 19 41  1  0
 21 42  1  0
 21 43  1  0
 21 44  1  0
 22 45  1  0
A    1
 C1 
A    2
 N1 
A    3
 C2 
A    4
 C3 
A    5
 C4 
A    6
 N2 
A    7
 C5 
A    8
 C6 
A    9
 C7 
A   10
 C8 
A   11
 N3 
A   12
 C9 
A   13
 O1 
A   14
 C10
A   15
 C11
A   16
 C12
A   17
 C13
A   18
 C14
A   19
 C15
A   20
 C16
A   21
 C17
A   22
 C18
A   23
 H1 
A   24
 H2 
A   25
 H3 
A   26
 H4 
A   27
 H5 
A   28
 H6 
A   29
 H7 
A   30
 H8 
A   31
 H9 
A   32
 H10
A   33
 H11
A   34
 H12
A   35
 H13
A   36
 H14
A   37
 H15
A   38
 H16
A   39
 H17
A   40
 H18
A   41
 H19
A   42
 H20
A   43
 H21
A   44
 H22
A   45
 H23
M  END
>  <ref_pdb>  (215) 
x0051_0B

>  <ref_mols>  (215) 
x0969_1B,x0553_0B

>  <original SMILES>  (215) 
[H]c1nn2c(c1C([H])([H])N([H])C(=O)C([H])([H])c1c([H])c(C([H])([H])[H])c([H])c([H])c1C([H])([H])[H])C([H])([H])C([H])([H])C([H])([H])C2([H])[H]

>  <index>  (215) 
215

>  <∆∆G>  (215) 
-7.600924

>  <∆G_bound>  (215) 
-6.925263

>  <∆G_unbound>  (215) 
0.675662

>  <comRMSD>  (215) 
0.929228

>  <N_constrained_atoms>  (215) 
19.0

>  <N_unconstrained_atoms>  (215) 
4.0

>  <runtime>  (215) 
74.568394

>  <LE>  (215) 
0.330475

>  <percent_hybrid>  (215) 
48.0

>  <dist>  (215) 
6.0

>  <ecfp4>  (215) 
0.350649

>  <daylight>  (215) 
0.328358

>  <topodist>  (215) 
3.0

>  <mces>  (215) 
22.0

>  <tdn>  (215) 
1.0

>  <tup>  (215) 
1.0

>  <rdn>  (215) 
0.0

>  <rup>  (215) 
0.0

>  <ldn>  (215) 
0.0

>  <lup>  (215) 
1.0

>  <mut>  (215) 
2.0

>  <maj>  (215) 
2.0

>  <min>  (215) 
0.0

>  <hyb>  (215) 
1.0

>  <sub>  (215) 
0.0

>  <query_index>  (215) 
376.0

>  <max_hit_Tanimoto>  (215) 
0.351812

>  <largest_ring>  (215) 
6

>  <N_interactions_kept>  (215) 
1.0

>  <N_interactions_lost>  (215) 
1.5

>  <interaction_uniqueness_metric>  (215) 
0.225399

>  <ad_hoc_penalty>  (215) 
-24.025643

>  <N_rotatable_bonds>  (215) 
6

>  <N_HA>  (215) 
22

>  <cluster>  (215) 
6022

>  <N_interactions>  (215) 
7

>  <Enamine>  (215) 
0

>  <Mcule>  (215) 
1

>  <N_PAINS>  (215) 
0

>  <UFF_Gibbs>  (215) 
171.049162

>  <strain_per_HA>  (215) 
7.43692

>  <saltbridge:HIS:51>  (215) 
0

>  <pistack:HIS:51>  (215) 
1

>  <hydroph_interaction:HIS:51>  (215) 
1

>  <hbond:ALA:132>  (215) 
0

>  <hbond:SER:135>  (215) 
0

>  <hydroph_interaction:TYR:150>  (215) 
1

>  <pistack:TYR:161>  (215) 
1

>  <hydroph_interaction:TYR:161>  (215) 
1

>  <hydroph_interaction:ASP:83>  (215) 
1

>  <hbond:TYR:130>  (215) 
0

>  <hydroph_interaction:ALA:132>  (215) 
0

>  <hbond:HIS:51>  (215) 
0

>  <hbond:ASP:129>  (215) 
0

>  <hbond:TYR:150>  (215) 
0

>  <hbond:GLY:151>  (215) 
1

>  <hbond:TYR:161>  (215) 
0

>  <hydroph_interaction:TYR:130>  (215) 
0

>  <hydroph_interaction:PRO:131>  (215) 
0

>  <hydroph_interaction:ASP:129>  (215) 
0

>  <saltbridge:ASP:75>  (215) 
0

>  <saltbridge:ASP:83>  (215) 
0

>  <hydroph_interaction:ASN:152>  (215) 
0

>  <halogenbond:TYR:150>  (215) 
0

>  <hbond:ASP:83>  (215) 
0

>  <hydroph_interaction:VAL:155>  (215) 
0

>  <pication:TYR:161>  (215) 
0

>  <hbond:PRO:131>  (215) 
0

>  <hbond:LEU:128>  (215) 
0

>  <saltbridge:ASP:129>  (215) 
0

>  <hbond:THR:134>  (215) 
0

>  <pication:HIS:51>  (215) 
0

>  <hbond:SER:81>  (215) 
0

>  <hbond:GLY:159>  (215) 
0

>  <hydroph_interaction:PRO:101>  (215) 
0

>  <hydroph_interaction:THR:134>  (215) 
0

>  <hbond:GLY:82>  (215) 
0

>  <hydroph_interaction:GLU:104>  (215) 
0

>  <hydroph_interaction:VAL:36>  (215) 
0

>  <hydroph_interaction:MET:49>  (215) 
0

>  <halogenbond:GLU:104>  (215) 
0

>  <hydroph_interaction:LYS:107>  (215) 
0

$$$$
Z2853439340
     RDKit          3D

 46 48  0  0  0  0  0  0  0  0999 V2000
  -10.6822    6.1848  -19.3167 C   0  0  0  0  0  0  0  0  0  0  0  0
  -10.1804    4.8329  -18.8204 C   0  0  0  0  0  0  0  0  0  0  0  0
   -8.7949    4.9573  -18.2455 C   0  0  0  0  0  0  0  0  0  0  0  0
   -7.6697    4.8026  -19.0705 C   0  0  0  0  0  0  0  0  0  0  0  0
   -6.3843    4.9396  -18.5406 C   0  0  0  0  0  0  0  0  0  0  0  0
   -6.2110    5.2461  -17.1886 C   0  0  0  0  0  0  0  0  0  0  0  0
   -7.3268    5.4338  -16.3580 C   0  0  0  0  0  0  0  0  0  0  0  0
   -7.1451    5.7355  -14.8966 C   0  0  0  0  0  0  0  0  0  0  0  0
   -7.2102    4.4875  -14.1257 N   0  0  0  0  0  0  0  0  0  0  0  0
   -7.2409    4.7491  -12.6796 C   0  0  0  0  0  0  0  0  0  0  0  0
   -8.6860    4.9075  -12.1987 C   0  0  0  0  0  0  0  0  0  0  0  0
   -8.7289    5.1005  -10.7130 C   0  0  0  0  0  0  0  0  0  0  0  0
   -8.7758    4.1334   -9.7303 C   0  0  0  0  0  0  0  0  0  0  0  0
   -8.9320    2.6505   -9.8963 C   0  0  0  0  0  0  0  0  0  0  0  0
   -8.5876    1.9262   -8.5852 C   0  0  0  0  0  0  0  0  0  0  0  0
   -9.2357    2.6185   -7.3745 C   0  0  0  0  0  0  0  0  0  0  0  0
   -8.7352    4.0662   -7.2386 C   0  0  0  0  0  0  0  0  0  0  0  0
   -8.7626    4.7451   -8.5327 N   0  0  0  0  0  0  0  0  0  0  0  0
   -8.6538    6.0545   -8.6953 N   0  0  0  0  0  0  0  0  0  0  0  0
   -8.6339    6.2980  -10.0233 C   0  0  0  0  0  0  0  0  0  0  0  0
   -8.6172    5.2792  -16.8900 C   0  0  0  0  0  0  0  0  0  0  0  0
  -11.7039    6.0711  -19.7363 H   0  0  0  0  0  0  0  0  0  0  0  0
  -10.0124    6.5763  -20.1120 H   0  0  0  0  0  0  0  0  0  0  0  0
  -10.7208    6.9130  -18.4784 H   0  0  0  0  0  0  0  0  0  0  0  0
  -10.1813    4.1093  -19.6646 H   0  0  0  0  0  0  0  0  0  0  0  0
  -10.8803    4.4424  -18.0499 H   0  0  0  0  0  0  0  0  0  0  0  0
   -7.7884    4.5724  -20.1221 H   0  0  0  0  0  0  0  0  0  0  0  0
   -5.5203    4.8077  -19.1792 H   0  0  0  0  0  0  0  0  0  0  0  0
   -5.2082    5.3405  -16.7906 H   0  0  0  0  0  0  0  0  0  0  0  0
   -6.1678    6.2427  -14.7277 H   0  0  0  0  0  0  0  0  0  0  0  0
   -7.9436    6.4389  -14.5741 H   0  0  0  0  0  0  0  0  0  0  0  0
   -6.3391    3.9439  -14.3341 H   0  0  0  0  0  0  0  0  0  0  0  0
   -6.6413    5.6500  -12.4131 H   0  0  0  0  0  0  0  0  0  0  0  0
   -6.7871    3.8837  -12.1458 H   0  0  0  0  0  0  0  0  0  0  0  0
   -9.1605    5.7833  -12.6892 H   0  0  0  0  0  0  0  0  0  0  0  0
   -9.2724    4.0042  -12.4729 H   0  0  0  0  0  0  0  0  0  0  0  0
   -8.2669    2.2855  -10.7076 H   0  0  0  0  0  0  0  0  0  0  0  0
   -9.9851    2.4325  -10.1753 H   0  0  0  0  0  0  0  0  0  0  0  0
   -7.4834    1.9079   -8.4509 H   0  0  0  0  0  0  0  0  0  0  0  0
   -8.9415    0.8745   -8.6436 H   0  0  0  0  0  0  0  0  0  0  0  0
  -10.3410    2.6186   -7.4976 H   0  0  0  0  0  0  0  0  0  0  0  0
   -8.9917    2.0551   -6.4483 H   0  0  0  0  0  0  0  0  0  0  0  0
   -9.3747    4.6140   -6.5136 H   0  0  0  0  0  0  0  0  0  0  0  0
   -7.6919    4.0622   -6.8557 H   0  0  0  0  0  0  0  0  0  0  0  0
   -8.5459    7.2835  -10.4608 H   0  0  0  0  0  0  0  0  0  0  0  0
   -9.4819    5.4098  -16.2496 H   0  0  0  0  0  0  0  0  0  0  0  0
  1  2  1  0
  2  3  1  0
  3  4  2  0
  4  5  1  0
  5  6  2  0
  6  7  1  0
  7  8  1  0
  8  9  1  0
  9 10  1  0
 10 11  1  0
 11 12  1  0
 12 13  2  0
 13 14  1  0
 14 15  1  0
 15 16  1  0
 16 17  1  0
 17 18  1  0
 18 19  1  0
 19 20  2  0
  7 21  2  0
 21  3  1  0
 20 12  1  0
 18 13  1  0
  1 22  1  0
  1 23  1  0
  1 24  1  0
  2 25  1  0
  2 26  1  0
  4 27  1  0
  5 28  1  0
  6 29  1  0
  8 30  1  0
  8 31  1  0
  9 32  1  0
 10 33  1  0
 10 34  1  0
 11 35  1  0
 11 36  1  0
 14 37  1  0
 14 38  1  0
 15 39  1  0
 15 40  1  0
 16 41  1  0
 16 42  1  0
 17 43  1  0
 17 44  1  0
 20 45  1  0
 21 46  1  0
A    1
 C1 
A    2
 C2 
A    3
 C3 
A    4
 C4 
A    5
 C5 
A    6
 C6 
A    7
 C7 
A    8
 C8 
A    9
 N1 
A   10
 C9 
A   11
 C10
A   12
 C11
A   13
 C12
A   14
 C13
A   15
 C14
A   16
 C15
A   17
 C16
A   18
 N2 
A   19
 N3 
A   20
 C17
A   21
 C18
A   22
 H1 
A   23
 H2 
A   24
 H3 
A   25
 H4 
A   26
 H5 
A   27
 H6 
A   28
 H7 
A   29
 H8 
A   30
 H9 
A   31
 H10
A   32
 H11
A   33
 H12
A   34
 H13
A   35
 H14
A   36
 H15
A   37
 H16
A   38
 H17
A   39
 H18
A   40
 H19
A   41
 H20
A   42
 H21
A   43
 H22
A   44
 H23
A   45
 H24
A   46
 H25
M  END
>  <ref_pdb>  (216) 
x0051_0B

>  <ref_mols>  (216) 
x0605_0B,x0969_1B

>  <original SMILES>  (216) 
[H]c1nn2c(c1C([H])([H])C([H])([H])N([H])C([H])([H])c1c([H])c([H])c([H])c(C([H])([H])C([H])([H])[H])c1[H])C([H])([H])C([H])([H])C([H])([H])C2([H])[H]

>  <index>  (216) 
371

>  <∆∆G>  (216) 
-8.897142

>  <∆G_bound>  (216) 
-8.658478

>  <∆G_unbound>  (216) 
0.238665

>  <comRMSD>  (216) 
0.628253

>  <N_constrained_atoms>  (216) 
19.0

>  <N_unconstrained_atoms>  (216) 
2.0

>  <runtime>  (216) 
64.534415

>  <LE>  (216) 
0.423673

>  <percent_hybrid>  (216) 
48.0

>  <dist>  (216) 
4.0

>  <ecfp4>  (216) 
0.38806

>  <daylight>  (216) 
0.334615

>  <topodist>  (216) 
0.0

>  <mces>  (216) 
23.0

>  <tdn>  (216) 
0.0

>  <tup>  (216) 
0.0

>  <rdn>  (216) 
0.0

>  <rup>  (216) 
0.0

>  <ldn>  (216) 
0.0

>  <lup>  (216) 
0.0

>  <mut>  (216) 
2.0

>  <maj>  (216) 
2.0

>  <min>  (216) 
0.0

>  <hyb>  (216) 
2.0

>  <sub>  (216) 
0.0

>  <query_index>  (216) 
307.0

>  <max_hit_Tanimoto>  (216) 
0.365541

>  <largest_ring>  (216) 
6

>  <N_interactions_kept>  (216) 
1.5

>  <N_interactions_lost>  (216) 
1.5

>  <interaction_uniqueness_metric>  (216) 
0.192849

>  <ad_hoc_penalty>  (216) 
-23.954335

>  <N_rotatable_bonds>  (216) 
7

>  <N_HA>  (216) 
21

>  <cluster>  (216) 
5878

>  <N_interactions>  (216) 
6

>  <Enamine>  (216) 
1

>  <Mcule>  (216) 
0

>  <N_PAINS>  (216) 
0

>  <UFF_Gibbs>  (216) 
78.951944

>  <strain_per_HA>  (216) 
3.759616

>  <saltbridge:HIS:51>  (216) 
0

>  <pistack:HIS:51>  (216) 
1

>  <hydroph_interaction:HIS:51>  (216) 
0

>  <hbond:ALA:132>  (216) 
0

>  <hbond:SER:135>  (216) 
0

>  <hydroph_interaction:TYR:150>  (216) 
1

>  <pistack:TYR:161>  (216) 
1

>  <hydroph_interaction:TYR:161>  (216) 
1

>  <hydroph_interaction:ASP:83>  (216) 
1

>  <hbond:TYR:130>  (216) 
0

>  <hydroph_interaction:ALA:132>  (216) 
0

>  <hbond:HIS:51>  (216) 
0

>  <hbond:ASP:129>  (216) 
0

>  <hbond:TYR:150>  (216) 
0

>  <hbond:GLY:151>  (216) 
0

>  <hbond:TYR:161>  (216) 
1

>  <hydroph_interaction:TYR:130>  (216) 
0

>  <hydroph_interaction:PRO:131>  (216) 
0

>  <hydroph_interaction:ASP:129>  (216) 
0

>  <saltbridge:ASP:75>  (216) 
0

>  <saltbridge:ASP:83>  (216) 
0

>  <hydroph_interaction:ASN:152>  (216) 
0

>  <halogenbond:TYR:150>  (216) 
0

>  <hbond:ASP:83>  (216) 
0

>  <hydroph_interaction:VAL:155>  (216) 
0

>  <pication:TYR:161>  (216) 
0

>  <hbond:PRO:131>  (216) 
0

>  <hbond:LEU:128>  (216) 
0

>  <saltbridge:ASP:129>  (216) 
0

>  <hbond:THR:134>  (216) 
0

>  <pication:HIS:51>  (216) 
0

>  <hbond:SER:81>  (216) 
0

>  <hbond:GLY:159>  (216) 
0

>  <hydroph_interaction:PRO:101>  (216) 
0

>  <hydroph_interaction:THR:134>  (216) 
0

>  <hbond:GLY:82>  (216) 
0

>  <hydroph_interaction:GLU:104>  (216) 
0

>  <hydroph_interaction:VAL:36>  (216) 
0

>  <hydroph_interaction:MET:49>  (216) 
0

>  <halogenbond:GLU:104>  (216) 
0

>  <hydroph_interaction:LYS:107>  (216) 
0

$$$$
CSSB00020665191
     RDKit          3D

 43 45  0  0  0  0  0  0  0  0999 V2000
   -4.1725    5.6961  -12.4296 C   0  0  0  0  0  0  0  0  0  0  0  0
   -3.2554    5.5190  -13.5691 N   0  0  0  0  0  0  0  0  0  0  0  0
   -3.2433    6.6774  -14.4872 C   0  0  0  0  0  0  0  0  0  0  0  0
   -4.5202    6.7906  -15.3353 C   0  0  0  0  0  0  0  0  0  0  0  0
   -4.8795    5.4948  -15.9206 N   0  0  0  0  0  0  0  0  0  0  0  0
   -4.8028    4.2788  -15.0976 C   0  0  0  0  0  0  0  0  0  0  0  0
   -3.4937    4.2540  -14.3012 C   0  0  0  0  0  0  0  0  0  0  0  0
   -5.6390    5.4631  -17.1407 C   0  0  0  0  0  0  0  0  0  0  0  0
   -6.8614    5.0208  -17.1079 N   0  0  0  0  0  0  0  0  0  0  0  0
   -7.8021    4.8153  -18.1799 C   0  0  0  0  0  0  0  0  0  0  0  0
   -8.8034    3.8536  -17.9364 C   0  0  0  0  0  0  0  0  0  0  0  0
   -9.7810    3.5742  -18.8883 C   0  0  0  0  0  0  0  0  0  0  0  0
   -9.7799    4.2555  -20.1048 C   0  0  0  0  0  0  0  0  0  0  0  0
   -8.8148    5.2293  -20.3612 C   0  0  0  0  0  0  0  0  0  0  0  0
   -7.8308    5.5509  -19.4060 C   0  0  0  0  0  0  0  0  0  0  0  0
   -6.9981    6.7089  -19.6809 N   0  0  0  0  0  0  0  0  0  0  0  0
   -5.6955    6.9386  -19.1341 C   0  0  0  0  0  0  0  0  0  0  0  0
   -5.0593    8.4458  -19.1478 S   0  0  0  0  0  0  0  0  0  0  0  0
   -5.0056    5.8822  -18.3944 C   0  0  0  0  0  0  0  0  0  0  0  0
   -3.8069    5.3831  -18.7481 C   0  0  0  0  0  0  0  0  0  0  0  0
   -3.0907    5.6707  -20.0116 C   0  0  0  0  0  0  0  0  0  0  0  0
   -1.7072    5.1437  -20.2042 C   0  0  0  0  0  0  0  0  0  0  0  0
   -3.6334    6.3001  -20.9461 O   0  0  0  0  0  0  0  0  0  0  0  0
   -4.1219    4.8116  -11.7615 H   0  0  0  0  0  0  0  0  0  0  0  0
   -3.8617    6.5875  -11.8279 H   0  0  0  0  0  0  0  0  0  0  0  0
   -5.2260    5.8298  -12.7566 H   0  0  0  0  0  0  0  0  0  0  0  0
   -2.3794    6.5811  -15.1739 H   0  0  0  0  0  0  0  0  0  0  0  0
   -3.0917    7.6135  -13.9142 H   0  0  0  0  0  0  0  0  0  0  0  0
   -4.3531    7.5434  -16.1428 H   0  0  0  0  0  0  0  0  0  0  0  0
   -5.3536    7.1590  -14.7056 H   0  0  0  0  0  0  0  0  0  0  0  0
   -5.6816    4.2252  -14.4126 H   0  0  0  0  0  0  0  0  0  0  0  0
   -4.8319    3.3701  -15.7514 H   0  0  0  0  0  0  0  0  0  0  0  0
   -3.5067    3.3938  -13.5895 H   0  0  0  0  0  0  0  0  0  0  0  0
   -2.6468    4.0713  -15.0058 H   0  0  0  0  0  0  0  0  0  0  0  0
   -8.8167    3.3002  -16.9922 H   0  0  0  0  0  0  0  0  0  0  0  0
  -10.5451    2.8169  -18.6775 H   0  0  0  0  0  0  0  0  0  0  0  0
  -10.5334    4.0386  -20.8464 H   0  0  0  0  0  0  0  0  0  0  0  0
   -8.8524    5.7693  -21.3043 H   0  0  0  0  0  0  0  0  0  0  0  0
   -7.3467    7.4041  -20.3770 H   0  0  0  0  0  0  0  0  0  0  0  0
   -3.3389    4.6460  -18.0899 H   0  0  0  0  0  0  0  0  0  0  0  0
   -1.0445    5.5388  -19.4026 H   0  0  0  0  0  0  0  0  0  0  0  0
   -1.7125    4.0406  -20.1562 H   0  0  0  0  0  0  0  0  0  0  0  0
   -1.2948    5.4626  -21.1862 H   0  0  0  0  0  0  0  0  0  0  0  0
  1  2  1  0
  2  3  1  0
  3  4  1  0
  4  5  1  0
  5  6  1  0
  6  7  1  0
  5  8  1  0
  8  9  2  0
  9 10  1  0
 10 11  2  0
 11 12  1  0
 12 13  2  0
 13 14  1  0
 14 15  2  0
 15 16  1  0
 16 17  1  0
 17 18  2  0
 17 19  1  0
 19 20  2  0
 20 21  1  0
 21 22  1  0
 21 23  2  0
  7  2  1  0
 19  8  1  0
 15 10  1  0
  1 24  1  0
  1 25  1  0
  1 26  1  0
  3 27  1  0
  3 28  1  0
  4 29  1  0
  4 30  1  0
  6 31  1  0
  6 32  1  0
  7 33  1  0
  7 34  1  0
 11 35  1  0
 12 36  1  0
 13 37  1  0
 14 38  1  0
 16 39  1  0
 20 40  1  0
 22 41  1  0
 22 42  1  0
 22 43  1  0
A    1
 C1 
A    2
 N1 
A    3
 C2 
A    4
 C3 
A    5
 N2 
A    6
 C4 
A    7
 C5 
A    8
 C6 
A    9
 N3 
A   10
 C7 
A   11
 C8 
A   12
 C9 
A   13
 C10
A   14
 C11
A   15
 C12
A   16
 N4 
A   17
 C13
A   18
 S1 
A   19
 C14
A   20
 C15
A   21
 C16
A   22
 C17
A   23
 O1 
A   24
 H1 
A   25
 H2 
A   26
 H3 
A   27
 H4 
A   28
 H5 
A   29
 H6 
A   30
 H7 
A   31
 H8 
A   32
 H9 
A   33
 H10
A   34
 H11
A   35
 H12
A   36
 H13
A   37
 H14
A   38
 H15
A   39
 H16
A   40
 H17
A   41
 H18
A   42
 H19
A   43
 H20
M  END
>  <ref_pdb>  (217) 
x0051_0B

>  <ref_mols>  (217) 
x0429_0B,x0089_0B

>  <original SMILES>  (217) 
[H]/C(C(=O)C([H])([H])[H])=C1/C(=S)N([H])c2c([H])c([H])c([H])c([H])c2N=C1N1C([H])([H])C([H])([H])N(C([H])([H])[H])C([H])([H])C1([H])[H]

>  <index>  (217) 
246

>  <∆∆G>  (217) 
-8.458254

>  <∆G_bound>  (217) 
-6.900358

>  <∆G_unbound>  (217) 
1.557897

>  <comRMSD>  (217) 
0.741281

>  <N_constrained_atoms>  (217) 
19.0

>  <N_unconstrained_atoms>  (217) 
5.0

>  <runtime>  (217) 
31.084337

>  <LE>  (217) 
0.352427

>  <percent_hybrid>  (217) 
34.0

>  <dist>  (217) 
7.0

>  <ecfp4>  (217) 
0.142857

>  <daylight>  (217) 
0.193694

>  <topodist>  (217) 
3.0

>  <mces>  (217) 
22.0

>  <tdn>  (217) 
0.0

>  <tup>  (217) 
2.0

>  <rdn>  (217) 
0.0

>  <rup>  (217) 
0.0

>  <ldn>  (217) 
0.0

>  <lup>  (217) 
1.0

>  <mut>  (217) 
2.0

>  <maj>  (217) 
2.0

>  <min>  (217) 
0.0

>  <hyb>  (217) 
2.0

>  <sub>  (217) 
2.0

>  <query_index>  (217) 
103.0

>  <max_hit_Tanimoto>  (217) 
0.217504

>  <largest_ring>  (217) 
7

>  <N_interactions_kept>  (217) 
2.0

>  <N_interactions_lost>  (217) 
1.5

>  <interaction_uniqueness_metric>  (217) 
0.05615

>  <ad_hoc_penalty>  (217) 
-23.933984

>  <N_rotatable_bonds>  (217) 
3

>  <N_HA>  (217) 
23

>  <cluster>  (217) 
5994

>  <N_interactions>  (217) 
5

>  <Enamine>  (217) 
1

>  <Mcule>  (217) 
0

>  <N_PAINS>  (217) 
0

>  <UFF_Gibbs>  (217) 
121.950779

>  <strain_per_HA>  (217) 
5.081282

>  <saltbridge:HIS:51>  (217) 
0

>  <pistack:HIS:51>  (217) 
0

>  <hydroph_interaction:HIS:51>  (217) 
0

>  <hbond:ALA:132>  (217) 
0

>  <hbond:SER:135>  (217) 
0

>  <hydroph_interaction:TYR:150>  (217) 
1

>  <pistack:TYR:161>  (217) 
0

>  <hydroph_interaction:TYR:161>  (217) 
3

>  <hydroph_interaction:ASP:83>  (217) 
0

>  <hbond:TYR:130>  (217) 
1

>  <hydroph_interaction:ALA:132>  (217) 
0

>  <hbond:HIS:51>  (217) 
0

>  <hbond:ASP:129>  (217) 
0

>  <hbond:TYR:150>  (217) 
0

>  <hbond:GLY:151>  (217) 
0

>  <hbond:TYR:161>  (217) 
0

>  <hydroph_interaction:TYR:130>  (217) 
0

>  <hydroph_interaction:PRO:131>  (217) 
0

>  <hydroph_interaction:ASP:129>  (217) 
0

>  <saltbridge:ASP:75>  (217) 
0

>  <saltbridge:ASP:83>  (217) 
0

>  <hydroph_interaction:ASN:152>  (217) 
0

>  <halogenbond:TYR:150>  (217) 
0

>  <hbond:ASP:83>  (217) 
0

>  <hydroph_interaction:VAL:155>  (217) 
0

>  <pication:TYR:161>  (217) 
0

>  <hbond:PRO:131>  (217) 
0

>  <hbond:LEU:128>  (217) 
0

>  <saltbridge:ASP:129>  (217) 
0

>  <hbond:THR:134>  (217) 
0

>  <pication:HIS:51>  (217) 
0

>  <hbond:SER:81>  (217) 
0

>  <hbond:GLY:159>  (217) 
0

>  <hydroph_interaction:PRO:101>  (217) 
0

>  <hydroph_interaction:THR:134>  (217) 
0

>  <hbond:GLY:82>  (217) 
0

>  <hydroph_interaction:GLU:104>  (217) 
0

>  <hydroph_interaction:VAL:36>  (217) 
0

>  <hydroph_interaction:MET:49>  (217) 
0

>  <halogenbond:GLU:104>  (217) 
0

>  <hydroph_interaction:LYS:107>  (217) 
0

$$$$
CSSS00000005371
     RDKit          3D

 19 20  0  0  0  0  0  0  0  0999 V2000
  -10.2331    4.5744  -15.6590 O   0  0  0  0  0  0  0  0  0  0  0  0
   -9.6221    4.8514  -16.8760 C   0  0  0  0  0  0  0  0  0  0  0  0
   -8.2860    4.8353  -17.0584 N   0  0  0  0  0  0  0  0  0  0  0  0
   -7.9431    5.1394  -18.3422 C   0  0  0  0  0  0  0  0  0  0  0  0
   -9.0328    5.4036  -19.1811 C   0  0  0  0  0  0  0  0  0  0  0  0
  -10.4460    5.2442  -18.2808 S   0  0  0  0  0  0  0  0  0  0  0  0
   -6.5206    5.1881  -18.7722 C   0  0  0  0  0  0  0  0  0  0  0  0
   -5.4962    5.1785  -17.8051 C   0  0  0  0  0  0  0  0  0  0  0  0
   -4.1530    5.2223  -18.1905 C   0  0  0  0  0  0  0  0  0  0  0  0
   -3.8133    5.2721  -19.5433 C   0  0  0  0  0  0  0  0  0  0  0  0
   -4.8164    5.2758  -20.5140 C   0  0  0  0  0  0  0  0  0  0  0  0
   -6.1620    5.2328  -20.1352 C   0  0  0  0  0  0  0  0  0  0  0  0
   -9.6780    4.3436  -14.8440 H   0  0  0  0  0  0  0  0  0  0  0  0
   -8.9989    5.6839  -20.2240 H   0  0  0  0  0  0  0  0  0  0  0  0
   -5.7314    5.1446  -16.7487 H   0  0  0  0  0  0  0  0  0  0  0  0
   -3.3745    5.2181  -17.4385 H   0  0  0  0  0  0  0  0  0  0  0  0
   -2.7729    5.3051  -19.8397 H   0  0  0  0  0  0  0  0  0  0  0  0
   -4.5513    5.3082  -21.5630 H   0  0  0  0  0  0  0  0  0  0  0  0
   -6.9105    5.2196  -20.9144 H   0  0  0  0  0  0  0  0  0  0  0  0
  1  2  1  0
  2  3  2  0
  3  4  1  0
  4  5  2  0
  5  6  1  0
  4  7  1  0
  7  8  2  0
  8  9  1  0
  9 10  2  0
 10 11  1  0
 11 12  2  0
  6  2  1  0
 12  7  1  0
  1 13  1  0
  5 14  1  0
  8 15  1  0
  9 16  1  0
 10 17  1  0
 11 18  1  0
 12 19  1  0
A    1
 O1 
A    2
 C1 
A    3
 N1 
A    4
 C2 
A    5
 C3 
A    6
 S1 
A    7
 C4 
A    8
 C5 
A    9
 C6 
A   10
 C7 
A   11
 C8 
A   12
 C9 
A   13
 H1 
A   14
 H2 
A   15
 H3 
A   16
 H4 
A   17
 H5 
A   18
 H6 
A   19
 H7 
M  END
>  <ref_pdb>  (218) 
x0051_0B

>  <ref_mols>  (218) 
x0680_0B,x0386_0B

>  <original SMILES>  (218) 
[H]Oc1nc(-c2c([H])c([H])c([H])c([H])c2[H])c([H])s1

>  <index>  (218) 
338

>  <∆∆G>  (218) 
-6.751627

>  <∆G_bound>  (218) 
-6.67611

>  <∆G_unbound>  (218) 
0.075517

>  <comRMSD>  (218) 
0.58442

>  <N_constrained_atoms>  (218) 
12.0

>  <N_unconstrained_atoms>  (218) 
1.0

>  <runtime>  (218) 
19.651505

>  <LE>  (218) 
0.519356

>  <percent_hybrid>  (218) 
17.0

>  <dist>  (218) 
4.0

>  <ecfp4>  (218) 
0.137255

>  <daylight>  (218) 
0.183007

>  <topodist>  (218) 
2.0

>  <mces>  (218) 
12.0

>  <tdn>  (218) 
1.0

>  <tup>  (218) 
1.0

>  <rdn>  (218) 
0.0

>  <rup>  (218) 
0.0

>  <ldn>  (218) 
0.0

>  <lup>  (218) 
0.0

>  <mut>  (218) 
2.0

>  <maj>  (218) 
1.0

>  <min>  (218) 
1.0

>  <hyb>  (218) 
0.0

>  <sub>  (218) 
2.0

>  <query_index>  (218) 
296.0

>  <max_hit_Tanimoto>  (218) 
0.092857

>  <largest_ring>  (218) 
6

>  <N_interactions_kept>  (218) 
3.5

>  <N_interactions_lost>  (218) 
0.5

>  <interaction_uniqueness_metric>  (218) 
0.016266

>  <ad_hoc_penalty>  (218) 
-23.92028

>  <N_rotatable_bonds>  (218) 
2

>  <N_HA>  (218) 
12

>  <cluster>  (218) 
5910

>  <N_interactions>  (218) 
3

>  <Enamine>  (218) 
1

>  <Mcule>  (218) 
0

>  <N_PAINS>  (218) 
0

>  <UFF_Gibbs>  (218) 
34.486029

>  <strain_per_HA>  (218) 
2.652771

>  <saltbridge:HIS:51>  (218) 
0

>  <pistack:HIS:51>  (218) 
0

>  <hydroph_interaction:HIS:51>  (218) 
0

>  <hbond:ALA:132>  (218) 
0

>  <hbond:SER:135>  (218) 
0

>  <hydroph_interaction:TYR:150>  (218) 
0

>  <pistack:TYR:161>  (218) 
0

>  <hydroph_interaction:TYR:161>  (218) 
3

>  <hydroph_interaction:ASP:83>  (218) 
0

>  <hbond:TYR:130>  (218) 
0

>  <hydroph_interaction:ALA:132>  (218) 
0

>  <hbond:HIS:51>  (218) 
0

>  <hbond:ASP:129>  (218) 
0

>  <hbond:TYR:150>  (218) 
0

>  <hbond:GLY:151>  (218) 
0

>  <hbond:TYR:161>  (218) 
0

>  <hydroph_interaction:TYR:130>  (218) 
0

>  <hydroph_interaction:PRO:131>  (218) 
0

>  <hydroph_interaction:ASP:129>  (218) 
0

>  <saltbridge:ASP:75>  (218) 
0

>  <saltbridge:ASP:83>  (218) 
0

>  <hydroph_interaction:ASN:152>  (218) 
0

>  <halogenbond:TYR:150>  (218) 
0

>  <hbond:ASP:83>  (218) 
0

>  <hydroph_interaction:VAL:155>  (218) 
0

>  <pication:TYR:161>  (218) 
0

>  <hbond:PRO:131>  (218) 
0

>  <hbond:LEU:128>  (218) 
0

>  <saltbridge:ASP:129>  (218) 
0

>  <hbond:THR:134>  (218) 
0

>  <pication:HIS:51>  (218) 
0

>  <hbond:SER:81>  (218) 
0

>  <hbond:GLY:159>  (218) 
0

>  <hydroph_interaction:PRO:101>  (218) 
0

>  <hydroph_interaction:THR:134>  (218) 
0

>  <hbond:GLY:82>  (218) 
0

>  <hydroph_interaction:GLU:104>  (218) 
0

>  <hydroph_interaction:VAL:36>  (218) 
0

>  <hydroph_interaction:MET:49>  (218) 
0

>  <halogenbond:GLU:104>  (218) 
0

>  <hydroph_interaction:LYS:107>  (218) 
0

$$$$
Z3870404224
     RDKit          3D

 50 53  0  0  0  0  0  0  0  0999 V2000
  -10.2356    3.6222  -19.1595 C   0  0  0  0  0  0  0  0  0  0  0  0
  -10.4427    3.9251  -17.7852 O   0  0  0  0  0  0  0  0  0  0  0  0
   -9.4678    4.5371  -16.9917 C   0  0  0  0  0  0  0  0  0  0  0  0
   -9.7363    4.7924  -15.6467 C   0  0  0  0  0  0  0  0  0  0  0  0
   -8.7436    5.4019  -14.8622 C   0  0  0  0  0  0  0  0  0  0  0  0
   -8.9416    5.6815  -13.4667 N   0  0  0  0  0  0  0  0  0  0  0  0
  -10.1552    5.3096  -12.7381 C   0  0  0  0  0  0  0  0  0  0  0  0
  -10.0292    5.6564  -11.2854 C   0  0  0  0  0  0  0  0  0  0  0  0
   -9.2742    5.0152  -10.3256 C   0  0  0  0  0  0  0  0  0  0  0  0
   -8.4688    3.7581  -10.4684 C   0  0  0  0  0  0  0  0  0  0  0  0
   -7.4900    3.6187   -9.2925 C   0  0  0  0  0  0  0  0  0  0  0  0
   -8.1831    3.9083   -7.9504 C   0  0  0  0  0  0  0  0  0  0  0  0
   -8.7344    5.3438   -7.9141 C   0  0  0  0  0  0  0  0  0  0  0  0
   -9.4336    5.6622   -9.1577 N   0  0  0  0  0  0  0  0  0  0  0  0
  -10.2140    6.7181   -9.3301 N   0  0  0  0  0  0  0  0  0  0  0  0
  -10.5960    6.7339  -10.6256 C   0  0  0  0  0  0  0  0  0  0  0  0
   -7.5570    5.7333  -15.4380 N   0  0  0  0  0  0  0  0  0  0  0  0
   -7.3120    5.4918  -16.7538 C   0  0  0  0  0  0  0  0  0  0  0  0
   -5.9715    5.8427  -17.3427 C   0  0  0  0  0  0  0  0  0  0  0  0
   -6.1110    6.5439  -18.7033 C   0  0  0  0  0  0  0  0  0  0  0  0
   -4.7197    6.8496  -19.3074 C   0  0  0  0  0  0  0  0  0  0  0  0
   -3.6574    6.1872  -18.6381 O   0  0  0  0  0  0  0  0  0  0  0  0
   -3.9516    4.8108  -18.4964 C   0  0  0  0  0  0  0  0  0  0  0  0
   -5.0849    4.5897  -17.4763 C   0  0  0  0  0  0  0  0  0  0  0  0
   -8.2620    4.8852  -17.5151 N   0  0  0  0  0  0  0  0  0  0  0  0
  -10.0322    4.5547  -19.7279 H   0  0  0  0  0  0  0  0  0  0  0  0
   -9.3809    2.9214  -19.2696 H   0  0  0  0  0  0  0  0  0  0  0  0
  -11.1489    3.1435  -19.5690 H   0  0  0  0  0  0  0  0  0  0  0  0
  -10.6969    4.5152  -15.2345 H   0  0  0  0  0  0  0  0  0  0  0  0
   -8.1627    6.1568  -12.9550 H   0  0  0  0  0  0  0  0  0  0  0  0
  -11.0273    5.8438  -13.1726 H   0  0  0  0  0  0  0  0  0  0  0  0
  -10.3247    4.2153  -12.8296 H   0  0  0  0  0  0  0  0  0  0  0  0
   -7.9021    3.7754  -11.4236 H   0  0  0  0  0  0  0  0  0  0  0  0
   -9.1614    2.8900  -10.4817 H   0  0  0  0  0  0  0  0  0  0  0  0
   -7.0747    2.5876   -9.2808 H   0  0  0  0  0  0  0  0  0  0  0  0
   -6.6428    4.3274   -9.4292 H   0  0  0  0  0  0  0  0  0  0  0  0
   -9.0160    3.1867   -7.8024 H   0  0  0  0  0  0  0  0  0  0  0  0
   -7.4577    3.7714   -7.1205 H   0  0  0  0  0  0  0  0  0  0  0  0
   -9.4293    5.4539   -7.0542 H   0  0  0  0  0  0  0  0  0  0  0  0
   -7.8941    6.0582   -7.7811 H   0  0  0  0  0  0  0  0  0  0  0  0
  -11.2392    7.4880  -11.0621 H   0  0  0  0  0  0  0  0  0  0  0  0
   -5.4634    6.5554  -16.6534 H   0  0  0  0  0  0  0  0  0  0  0  0
   -6.6893    7.4870  -18.5880 H   0  0  0  0  0  0  0  0  0  0  0  0
   -6.6690    5.8861  -19.4077 H   0  0  0  0  0  0  0  0  0  0  0  0
   -4.5347    7.9424  -19.2348 H   0  0  0  0  0  0  0  0  0  0  0  0
   -4.7055    6.5951  -20.3906 H   0  0  0  0  0  0  0  0  0  0  0  0
   -3.0385    4.2861  -18.1445 H   0  0  0  0  0  0  0  0  0  0  0  0
   -4.2199    4.3596  -19.4797 H   0  0  0  0  0  0  0  0  0  0  0  0
   -4.6510    4.3493  -16.4810 H   0  0  0  0  0  0  0  0  0  0  0  0
   -5.6877    3.7129  -17.8025 H   0  0  0  0  0  0  0  0  0  0  0  0
  1  2  1  0
  2  3  1  0
  3  4  2  0
  4  5  1  0
  5  6  1  0
  6  7  1  0
  7  8  1  0
  8  9  2  0
  9 10  1  0
 10 11  1  0
 11 12  1  0
 12 13  1  0
 13 14  1  0
 14 15  1  0
 15 16  2  0
  5 17  2  0
 17 18  1  0
 18 19  1  0
 19 20  1  0
 20 21  1  0
 21 22  1  0
 22 23  1  0
 23 24  1  0
 18 25  2  0
 25  3  1  0
 16  8  1  0
 14  9  1  0
 24 19  1  0
  1 26  1  0
  1 27  1  0
  1 28  1  0
  4 29  1  0
  6 30  1  0
  7 31  1  0
  7 32  1  0
 10 33  1  0
 10 34  1  0
 11 35  1  0
 11 36  1  0
 12 37  1  0
 12 38  1  0
 13 39  1  0
 13 40  1  0
 16 41  1  0
 19 42  1  0
 20 43  1  0
 20 44  1  0
 21 45  1  0
 21 46  1  0
 23 47  1  0
 23 48  1  0
 24 49  1  0
 24 50  1  0
A    1
 C1 
A    2
 O1 
A    3
 C2 
A    4
 C3 
A    5
 C4 
A    6
 N1 
A    7
 C5 
A    8
 C6 
A    9
 C7 
A   10
 C8 
A   11
 C9 
A   12
 C10
A   13
 C11
A   14
 N2 
A   15
 N3 
A   16
 C12
A   17
 N4 
A   18
 C13
A   19
 C14
A   20
 C15
A   21
 C16
A   22
 O2 
A   23
 C17
A   24
 C18
A   25
 N5 
A   26
 H1 
A   27
 H2 
A   28
 H3 
A   29
 H4 
A   30
 H5 
A   31
 H6 
A   32
 H7 
A   33
 H8 
A   34
 H9 
A   35
 H10
A   36
 H11
A   37
 H12
A   38
 H13
A   39
 H14
A   40
 H15
A   41
 H16
A   42
 H17
A   43
 H18
A   44
 H19
A   45
 H20
A   46
 H21
A   47
 H22
A   48
 H23
A   49
 H24
A   50
 H25
M  END
>  <ref_pdb>  (219) 
x0051_0B

>  <ref_mols>  (219) 
x0969_1B,x0945_0B

>  <original SMILES>  (219) 
[H]c1nn2c(c1C([H])([H])N([H])c1nc(C3([H])C([H])([H])C([H])([H])OC([H])([H])C3([H])[H])nc(OC([H])([H])[H])c1[H])C([H])([H])C([H])([H])C([H])([H])C2([H])[H]

>  <index>  (219) 
260

>  <∆∆G>  (219) 
-8.336887

>  <∆G_bound>  (219) 
-6.917419

>  <∆G_unbound>  (219) 
1.419468

>  <comRMSD>  (219) 
0.500357

>  <N_constrained_atoms>  (219) 
24.0

>  <N_unconstrained_atoms>  (219) 
1.0

>  <runtime>  (219) 
49.43531

>  <LE>  (219) 
0.333475

>  <percent_hybrid>  (219) 
42.0

>  <dist>  (219) 
5.0

>  <ecfp4>  (219) 
0.379747

>  <daylight>  (219) 
0.330556

>  <topodist>  (219) 
1.0

>  <mces>  (219) 
28.0

>  <tdn>  (219) 
0.0

>  <tup>  (219) 
0.0

>  <rdn>  (219) 
0.0

>  <rup>  (219) 
0.0

>  <ldn>  (219) 
1.0

>  <lup>  (219) 
0.0

>  <mut>  (219) 
4.0

>  <maj>  (219) 
4.0

>  <min>  (219) 
0.0

>  <hyb>  (219) 
0.0

>  <sub>  (219) 
0.0

>  <query_index>  (219) 
258.0

>  <max_hit_Tanimoto>  (219) 
0.320789

>  <largest_ring>  (219) 
6

>  <N_interactions_kept>  (219) 
1.5

>  <N_interactions_lost>  (219) 
0.5

>  <interaction_uniqueness_metric>  (219) 
0.135106

>  <ad_hoc_penalty>  (219) 
-23.888995

>  <N_rotatable_bonds>  (219) 
6

>  <N_HA>  (219) 
25

>  <cluster>  (219) 
5980

>  <N_interactions>  (219) 
4

>  <Enamine>  (219) 
1

>  <Mcule>  (219) 
0

>  <N_PAINS>  (219) 
0

>  <UFF_Gibbs>  (219) 
136.114436

>  <strain_per_HA>  (219) 
5.444577

>  <saltbridge:HIS:51>  (219) 
0

>  <pistack:HIS:51>  (219) 
1

>  <hydroph_interaction:HIS:51>  (219) 
0

>  <hbond:ALA:132>  (219) 
0

>  <hbond:SER:135>  (219) 
0

>  <hydroph_interaction:TYR:150>  (219) 
0

>  <pistack:TYR:161>  (219) 
1

>  <hydroph_interaction:TYR:161>  (219) 
1

>  <hydroph_interaction:ASP:83>  (219) 
1

>  <hbond:TYR:130>  (219) 
0

>  <hydroph_interaction:ALA:132>  (219) 
0

>  <hbond:HIS:51>  (219) 
0

>  <hbond:ASP:129>  (219) 
0

>  <hbond:TYR:150>  (219) 
0

>  <hbond:GLY:151>  (219) 
0

>  <hbond:TYR:161>  (219) 
0

>  <hydroph_interaction:TYR:130>  (219) 
0

>  <hydroph_interaction:PRO:131>  (219) 
0

>  <hydroph_interaction:ASP:129>  (219) 
0

>  <saltbridge:ASP:75>  (219) 
0

>  <saltbridge:ASP:83>  (219) 
0

>  <hydroph_interaction:ASN:152>  (219) 
0

>  <halogenbond:TYR:150>  (219) 
0

>  <hbond:ASP:83>  (219) 
0

>  <hydroph_interaction:VAL:155>  (219) 
0

>  <pication:TYR:161>  (219) 
0

>  <hbond:PRO:131>  (219) 
0

>  <hbond:LEU:128>  (219) 
0

>  <saltbridge:ASP:129>  (219) 
0

>  <hbond:THR:134>  (219) 
0

>  <pication:HIS:51>  (219) 
0

>  <hbond:SER:81>  (219) 
0

>  <hbond:GLY:159>  (219) 
0

>  <hydroph_interaction:PRO:101>  (219) 
0

>  <hydroph_interaction:THR:134>  (219) 
0

>  <hbond:GLY:82>  (219) 
0

>  <hydroph_interaction:GLU:104>  (219) 
0

>  <hydroph_interaction:VAL:36>  (219) 
0

>  <hydroph_interaction:MET:49>  (219) 
0

>  <halogenbond:GLU:104>  (219) 
0

>  <hydroph_interaction:LYS:107>  (219) 
0

$$$$
Z3132343346
     RDKit          3D

 41 43  0  0  0  0  0  0  0  0999 V2000
  -10.5571    3.7517  -17.8939 C   0  0  0  0  0  0  0  0  0  0  0  0
   -9.2796    4.3194  -17.3493 C   0  0  0  0  0  0  0  0  0  0  0  0
   -8.6491    5.3902  -18.0003 C   0  0  0  0  0  0  0  0  0  0  0  0
   -7.4335    5.8983  -17.5187 C   0  0  0  0  0  0  0  0  0  0  0  0
   -6.7906    7.0775  -18.1873 C   0  0  0  0  0  0  0  0  0  0  0  0
   -6.8571    5.3396  -16.3684 C   0  0  0  0  0  0  0  0  0  0  0  0
   -7.4673    4.2527  -15.7235 C   0  0  0  0  0  0  0  0  0  0  0  0
   -6.8542    3.6539  -14.4867 C   0  0  0  0  0  0  0  0  0  0  0  0
   -7.6562    3.9883  -13.3123 N   0  0  0  0  0  0  0  0  0  0  0  0
   -7.6191    5.2873  -12.7028 C   0  0  0  0  0  0  0  0  0  0  0  0
   -6.9811    6.2221  -13.2586 O   0  0  0  0  0  0  0  0  0  0  0  0
   -8.3426    5.5679  -11.4478 C   0  0  0  0  0  0  0  0  0  0  0  0
   -8.7100    4.7086  -10.4245 C   0  0  0  0  0  0  0  0  0  0  0  0
   -8.4967    3.2271  -10.2896 C   0  0  0  0  0  0  0  0  0  0  0  0
   -8.6067    2.8078   -8.8812 N   0  0  0  0  0  0  0  0  0  0  0  0
   -9.8233    3.3490   -8.2493 C   0  0  0  0  0  0  0  0  0  0  0  0
   -9.7862    4.8874   -8.1953 C   0  0  0  0  0  0  0  0  0  0  0  0
   -9.3333    5.4235   -9.4746 N   0  0  0  0  0  0  0  0  0  0  0  0
   -9.3539    6.7040   -9.8052 N   0  0  0  0  0  0  0  0  0  0  0  0
   -8.7564    6.8179  -11.0098 C   0  0  0  0  0  0  0  0  0  0  0  0
   -8.6760    3.7435  -16.2218 C   0  0  0  0  0  0  0  0  0  0  0  0
  -11.1738    3.3193  -17.0773 H   0  0  0  0  0  0  0  0  0  0  0  0
  -11.1563    4.5427  -18.3931 H   0  0  0  0  0  0  0  0  0  0  0  0
  -10.3224    2.9556  -18.6309 H   0  0  0  0  0  0  0  0  0  0  0  0
   -9.1053    5.8290  -18.8801 H   0  0  0  0  0  0  0  0  0  0  0  0
   -7.1698    8.0141  -17.7278 H   0  0  0  0  0  0  0  0  0  0  0  0
   -5.6863    7.0389  -18.0728 H   0  0  0  0  0  0  0  0  0  0  0  0
   -7.0220    7.0873  -19.2738 H   0  0  0  0  0  0  0  0  0  0  0  0
   -5.9326    5.7489  -15.9785 H   0  0  0  0  0  0  0  0  0  0  0  0
   -6.8172    2.5489  -14.6022 H   0  0  0  0  0  0  0  0  0  0  0  0
   -5.8074    3.9989  -14.3396 H   0  0  0  0  0  0  0  0  0  0  0  0
   -8.3405    3.2773  -12.9752 H   0  0  0  0  0  0  0  0  0  0  0  0
   -9.2619    2.6905  -10.8897 H   0  0  0  0  0  0  0  0  0  0  0  0
   -7.4899    2.9555  -10.6735 H   0  0  0  0  0  0  0  0  0  0  0  0
   -7.7703    3.1610   -8.3583 H   0  0  0  0  0  0  0  0  0  0  0  0
   -9.9112    2.9474   -7.2171 H   0  0  0  0  0  0  0  0  0  0  0  0
  -10.7207    3.0151   -8.8160 H   0  0  0  0  0  0  0  0  0  0  0  0
  -10.7986    5.2797   -7.9596 H   0  0  0  0  0  0  0  0  0  0  0  0
   -9.0834    5.2124   -7.3983 H   0  0  0  0  0  0  0  0  0  0  0  0
   -8.6265    7.7550  -11.5349 H   0  0  0  0  0  0  0  0  0  0  0  0
   -9.1500    2.9045  -15.7256 H   0  0  0  0  0  0  0  0  0  0  0  0
  1  2  1  0
  2  3  2  0
  3  4  1  0
  4  5  1  0
  4  6  2  0
  6  7  1  0
  7  8  1  0
  8  9  1  0
  9 10  1  0
 10 11  2  0
 10 12  1  0
 12 13  2  0
 13 14  1  0
 14 15  1  0
 15 16  1  0
 16 17  1  0
 17 18  1  0
 18 19  1  0
 19 20  2  0
  7 21  2  0
 21  2  1  0
 20 12  1  0
 18 13  1  0
  1 22  1  0
  1 23  1  0
  1 24  1  0
  3 25  1  0
  5 26  1  0
  5 27  1  0
  5 28  1  0
  6 29  1  0
  8 30  1  0
  8 31  1  0
  9 32  1  0
 14 33  1  0
 14 34  1  0
 15 35  1  0
 16 36  1  0
 16 37  1  0
 17 38  1  0
 17 39  1  0
 20 40  1  0
 21 41  1  0
A    1
 C1 
A    2
 C2 
A    3
 C3 
A    4
 C4 
A    5
 C5 
A    6
 C6 
A    7
 C7 
A    8
 C8 
A    9
 N1 
A   10
 C9 
A   11
 O1 
A   12
 C10
A   13
 C11
A   14
 C12
A   15
 N2 
A   16
 C13
A   17
 C14
A   18
 N3 
A   19
 N4 
A   20
 C15
A   21
 C16
A   22
 H1 
A   23
 H2 
A   24
 H3 
A   25
 H4 
A   26
 H5 
A   27
 H6 
A   28
 H7 
A   29
 H8 
A   30
 H9 
A   31
 H10
A   32
 H11
A   33
 H12
A   34
 H13
A   35
 H14
A   36
 H15
A   37
 H16
A   38
 H17
A   39
 H18
A   40
 H19
A   41
 H20
M  END
>  <ref_pdb>  (220) 
x0051_0B

>  <ref_mols>  (220) 
x0969_1B,x0589_0B

>  <original SMILES>  (220) 
[H]c1nn2c(c1C(=O)N([H])C([H])([H])c1c([H])c(C([H])([H])[H])c([H])c(C([H])([H])[H])c1[H])C([H])([H])N([H])C([H])([H])C2([H])[H]

>  <index>  (220) 
443

>  <∆∆G>  (220) 
-8.294386

>  <∆G_bound>  (220) 
-7.855681

>  <∆G_unbound>  (220) 
0.438705

>  <comRMSD>  (220) 
0.436553

>  <N_constrained_atoms>  (220) 
18.0

>  <N_unconstrained_atoms>  (220) 
3.0

>  <runtime>  (220) 
56.684184

>  <LE>  (220) 
0.394971

>  <percent_hybrid>  (220) 
45.0

>  <dist>  (220) 
4.0

>  <ecfp4>  (220) 
0.46875

>  <daylight>  (220) 
0.533333

>  <topodist>  (220) 
1.0

>  <mces>  (220) 
22.0

>  <tdn>  (220) 
0.0

>  <tup>  (220) 
1.0

>  <rdn>  (220) 
0.0

>  <rup>  (220) 
0.0

>  <ldn>  (220) 
0.0

>  <lup>  (220) 
0.0

>  <mut>  (220) 
2.0

>  <maj>  (220) 
2.0

>  <min>  (220) 
0.0

>  <hyb>  (220) 
1.0

>  <sub>  (220) 
0.0

>  <query_index>  (220) 
380.0

>  <max_hit_Tanimoto>  (220) 
0.603073

>  <largest_ring>  (220) 
6

>  <N_interactions_kept>  (220) 
0.5

>  <N_interactions_lost>  (220) 
2.0

>  <interaction_uniqueness_metric>  (220) 
0.243625

>  <ad_hoc_penalty>  (220) 
-23.847677

>  <N_rotatable_bonds>  (220) 
5

>  <N_HA>  (220) 
21

>  <cluster>  (220) 
5816

>  <N_interactions>  (220) 
6

>  <Enamine>  (220) 
1

>  <Mcule>  (220) 
0

>  <N_PAINS>  (220) 
0

>  <UFF_Gibbs>  (220) 
75.832225

>  <strain_per_HA>  (220) 
3.611058

>  <saltbridge:HIS:51>  (220) 
0

>  <pistack:HIS:51>  (220) 
0

>  <hydroph_interaction:HIS:51>  (220) 
0

>  <hbond:ALA:132>  (220) 
0

>  <hbond:SER:135>  (220) 
0

>  <hydroph_interaction:TYR:150>  (220) 
1

>  <pistack:TYR:161>  (220) 
1

>  <hydroph_interaction:TYR:161>  (220) 
1

>  <hydroph_interaction:ASP:83>  (220) 
0

>  <hbond:TYR:130>  (220) 
0

>  <hydroph_interaction:ALA:132>  (220) 
0

>  <hbond:HIS:51>  (220) 
0

>  <hbond:ASP:129>  (220) 
0

>  <hbond:TYR:150>  (220) 
0

>  <hbond:GLY:151>  (220) 
1

>  <hbond:TYR:161>  (220) 
1

>  <hydroph_interaction:TYR:130>  (220) 
0

>  <hydroph_interaction:PRO:131>  (220) 
0

>  <hydroph_interaction:ASP:129>  (220) 
0

>  <saltbridge:ASP:75>  (220) 
0

>  <saltbridge:ASP:83>  (220) 
0

>  <hydroph_interaction:ASN:152>  (220) 
0

>  <halogenbond:TYR:150>  (220) 
0

>  <hbond:ASP:83>  (220) 
1

>  <hydroph_interaction:VAL:155>  (220) 
0

>  <pication:TYR:161>  (220) 
0

>  <hbond:PRO:131>  (220) 
0

>  <hbond:LEU:128>  (220) 
0

>  <saltbridge:ASP:129>  (220) 
0

>  <hbond:THR:134>  (220) 
0

>  <pication:HIS:51>  (220) 
0

>  <hbond:SER:81>  (220) 
0

>  <hbond:GLY:159>  (220) 
0

>  <hydroph_interaction:PRO:101>  (220) 
0

>  <hydroph_interaction:THR:134>  (220) 
0

>  <hbond:GLY:82>  (220) 
0

>  <hydroph_interaction:GLU:104>  (220) 
0

>  <hydroph_interaction:VAL:36>  (220) 
0

>  <hydroph_interaction:MET:49>  (220) 
0

>  <halogenbond:GLU:104>  (220) 
0

>  <hydroph_interaction:LYS:107>  (220) 
0

$$$$
Z3168640148
     RDKit          3D

 41 44  0  0  0  0  0  0  0  0999 V2000
   -5.5799    4.4102  -19.2072 C   0  0  0  0  0  0  0  0  0  0  0  0
   -6.1256    4.9640  -17.9323 C   0  0  0  0  0  0  0  0  0  0  0  0
   -5.5929    6.0145  -17.2681 N   0  0  0  0  0  0  0  0  0  0  0  0
   -6.3604    6.2734  -16.2150 N   0  0  0  0  0  0  0  0  0  0  0  0
   -7.3905    5.4019  -16.2015 C   0  0  0  0  0  0  0  0  0  0  0  0
   -8.4718    5.2993  -15.3020 C   0  0  0  0  0  0  0  0  0  0  0  0
   -8.6334    6.1630  -14.1087 C   0  0  0  0  0  0  0  0  0  0  0  0
   -7.6979    6.9149  -13.7244 O   0  0  0  0  0  0  0  0  0  0  0  0
   -9.8337    6.1210  -13.3877 O   0  0  0  0  0  0  0  0  0  0  0  0
  -10.0415    6.8259  -12.1661 C   0  0  0  0  0  0  0  0  0  0  0  0
   -9.2054    6.2343  -11.0723 C   0  0  0  0  0  0  0  0  0  0  0  0
   -9.2168    4.9376  -10.6020 C   0  0  0  0  0  0  0  0  0  0  0  0
  -10.1213    3.8119  -11.0085 C   0  0  0  0  0  0  0  0  0  0  0  0
   -9.5658    2.4724  -10.5008 C   0  0  0  0  0  0  0  0  0  0  0  0
   -9.1152    2.5722   -9.0340 C   0  0  0  0  0  0  0  0  0  0  0  0
   -7.9997    3.6187   -8.8715 C   0  0  0  0  0  0  0  0  0  0  0  0
   -8.3330    4.8457   -9.5925 N   0  0  0  0  0  0  0  0  0  0  0  0
   -7.7238    6.0081   -9.4177 N   0  0  0  0  0  0  0  0  0  0  0  0
   -8.2472    6.8783  -10.3077 C   0  0  0  0  0  0  0  0  0  0  0  0
   -9.4340    4.2966  -15.5778 C   0  0  0  0  0  0  0  0  0  0  0  0
   -9.3022    3.4470  -16.6978 C   0  0  0  0  0  0  0  0  0  0  0  0
   -8.2092    3.5777  -17.5679 C   0  0  0  0  0  0  0  0  0  0  0  0
   -7.2739    4.5669  -17.2819 C   0  0  0  0  0  0  0  0  0  0  0  0
   -4.5442    4.7758  -19.3691 H   0  0  0  0  0  0  0  0  0  0  0  0
   -6.2175    4.7358  -20.0554 H   0  0  0  0  0  0  0  0  0  0  0  0
   -5.5652    3.3013  -19.1618 H   0  0  0  0  0  0  0  0  0  0  0  0
   -6.1686    7.0507  -15.5482 H   0  0  0  0  0  0  0  0  0  0  0  0
   -9.8039    7.9031  -12.3037 H   0  0  0  0  0  0  0  0  0  0  0  0
  -11.1112    6.7424  -11.8825 H   0  0  0  0  0  0  0  0  0  0  0  0
  -10.2163    3.7765  -12.1142 H   0  0  0  0  0  0  0  0  0  0  0  0
  -11.1268    3.9872  -10.5703 H   0  0  0  0  0  0  0  0  0  0  0  0
  -10.3503    1.6910  -10.5947 H   0  0  0  0  0  0  0  0  0  0  0  0
   -8.7017    2.1664  -11.1312 H   0  0  0  0  0  0  0  0  0  0  0  0
   -9.9844    2.8558   -8.4006 H   0  0  0  0  0  0  0  0  0  0  0  0
   -8.7458    1.5824   -8.6897 H   0  0  0  0  0  0  0  0  0  0  0  0
   -7.8573    3.8447   -7.7928 H   0  0  0  0  0  0  0  0  0  0  0  0
   -7.0476    3.2106   -9.2748 H   0  0  0  0  0  0  0  0  0  0  0  0
   -7.9486    7.9146  -10.3936 H   0  0  0  0  0  0  0  0  0  0  0  0
  -10.2868    4.1589  -14.9248 H   0  0  0  0  0  0  0  0  0  0  0  0
  -10.0502    2.6881  -16.8871 H   0  0  0  0  0  0  0  0  0  0  0  0
   -8.1036    2.9337  -18.4313 H   0  0  0  0  0  0  0  0  0  0  0  0
  1  2  1  0
  2  3  2  0
  3  4  1  0
  4  5  1  0
  5  6  2  0
  6  7  1  0
  7  8  2  0
  7  9  1  0
  9 10  1  0
 10 11  1  0
 11 12  2  0
 12 13  1  0
 13 14  1  0
 14 15  1  0
 15 16  1  0
 16 17  1  0
 17 18  1  0
 18 19  2  0
  6 20  1  0
 20 21  2  0
 21 22  1  0
 22 23  2  0
 23  2  1  0
 23  5  1  0
 19 11  1  0
 17 12  1  0
  1 24  1  0
  1 25  1  0
  1 26  1  0
  4 27  1  0
 10 28  1  0
 10 29  1  0
 13 30  1  0
 13 31  1  0
 14 32  1  0
 14 33  1  0
 15 34  1  0
 15 35  1  0
 16 36  1  0
 16 37  1  0
 19 38  1  0
 20 39  1  0
 21 40  1  0
 22 41  1  0
A    1
 C1 
A    2
 C2 
A    3
 N1 
A    4
 N2 
A    5
 C3 
A    6
 C4 
A    7
 C5 
A    8
 O1 
A    9
 O2 
A   10
 C6 
A   11
 C7 
A   12
 C8 
A   13
 C9 
A   14
 C10
A   15
 C11
A   16
 C12
A   17
 N3 
A   18
 N4 
A   19
 C13
A   20
 C14
A   21
 C15
A   22
 C16
A   23
 C17
A   24
 H1 
A   25
 H2 
A   26
 H3 
A   27
 H4 
A   28
 H5 
A   29
 H6 
A   30
 H7 
A   31
 H8 
A   32
 H9 
A   33
 H10
A   34
 H11
A   35
 H12
A   36
 H13
A   37
 H14
A   38
 H15
A   39
 H16
A   40
 H17
A   41
 H18
M  END
>  <ref_pdb>  (221) 
x0051_0B

>  <ref_mols>  (221) 
x0435_0B,x0969_1B

>  <original SMILES>  (221) 
[H]c1nn2c(c1C([H])([H])OC(=O)c1c([H])c([H])c([H])c3c(C([H])([H])[H])nn([H])c13)C([H])([H])C([H])([H])C([H])([H])C2([H])[H]

>  <index>  (221) 
321

>  <∆∆G>  (221) 
-8.505779

>  <∆G_bound>  (221) 
-7.155748

>  <∆G_unbound>  (221) 
1.350031

>  <comRMSD>  (221) 
0.459061

>  <N_constrained_atoms>  (221) 
20.0

>  <N_unconstrained_atoms>  (221) 
3.0

>  <runtime>  (221) 
52.776127

>  <LE>  (221) 
0.369816

>  <percent_hybrid>  (221) 
50.0

>  <dist>  (221) 
7.0

>  <ecfp4>  (221) 
0.211765

>  <daylight>  (221) 
0.255952

>  <topodist>  (221) 
1.0

>  <mces>  (221) 
25.0

>  <tdn>  (221) 
0.0

>  <tup>  (221) 
1.0

>  <rdn>  (221) 
0.0

>  <rup>  (221) 
0.0

>  <ldn>  (221) 
0.0

>  <lup>  (221) 
0.0

>  <mut>  (221) 
5.0

>  <maj>  (221) 
5.0

>  <min>  (221) 
0.0

>  <hyb>  (221) 
1.0

>  <sub>  (221) 
0.0

>  <query_index>  (221) 
311.0

>  <max_hit_Tanimoto>  (221) 
0.299475

>  <largest_ring>  (221) 
6

>  <N_interactions_kept>  (221) 
2.5

>  <N_interactions_lost>  (221) 
1.0

>  <interaction_uniqueness_metric>  (221) 
0.056308

>  <ad_hoc_penalty>  (221) 
-23.834378

>  <N_rotatable_bonds>  (221) 
4

>  <N_HA>  (221) 
23

>  <cluster>  (221) 
5927

>  <N_interactions>  (221) 
4

>  <Enamine>  (221) 
1

>  <Mcule>  (221) 
0

>  <N_PAINS>  (221) 
0

>  <UFF_Gibbs>  (221) 
82.997821

>  <strain_per_HA>  (221) 
3.608601

>  <saltbridge:HIS:51>  (221) 
0

>  <pistack:HIS:51>  (221) 
1

>  <hydroph_interaction:HIS:51>  (221) 
0

>  <hbond:ALA:132>  (221) 
0

>  <hbond:SER:135>  (221) 
0

>  <hydroph_interaction:TYR:150>  (221) 
0

>  <pistack:TYR:161>  (221) 
2

>  <hydroph_interaction:TYR:161>  (221) 
1

>  <hydroph_interaction:ASP:83>  (221) 
0

>  <hbond:TYR:130>  (221) 
0

>  <hydroph_interaction:ALA:132>  (221) 
0

>  <hbond:HIS:51>  (221) 
0

>  <hbond:ASP:129>  (221) 
0

>  <hbond:TYR:150>  (221) 
0

>  <hbond:GLY:151>  (221) 
0

>  <hbond:TYR:161>  (221) 
0

>  <hydroph_interaction:TYR:130>  (221) 
0

>  <hydroph_interaction:PRO:131>  (221) 
0

>  <hydroph_interaction:ASP:129>  (221) 
0

>  <saltbridge:ASP:75>  (221) 
0

>  <saltbridge:ASP:83>  (221) 
0

>  <hydroph_interaction:ASN:152>  (221) 
0

>  <halogenbond:TYR:150>  (221) 
0

>  <hbond:ASP:83>  (221) 
0

>  <hydroph_interaction:VAL:155>  (221) 
0

>  <pication:TYR:161>  (221) 
0

>  <hbond:PRO:131>  (221) 
0

>  <hbond:LEU:128>  (221) 
0

>  <saltbridge:ASP:129>  (221) 
0

>  <hbond:THR:134>  (221) 
0

>  <pication:HIS:51>  (221) 
0

>  <hbond:SER:81>  (221) 
0

>  <hbond:GLY:159>  (221) 
0

>  <hydroph_interaction:PRO:101>  (221) 
0

>  <hydroph_interaction:THR:134>  (221) 
0

>  <hbond:GLY:82>  (221) 
0

>  <hydroph_interaction:GLU:104>  (221) 
0

>  <hydroph_interaction:VAL:36>  (221) 
0

>  <hydroph_interaction:MET:49>  (221) 
0

>  <halogenbond:GLU:104>  (221) 
0

>  <hydroph_interaction:LYS:107>  (221) 
0

$$$$
MCULE-5087736613
     RDKit          3D

 29 31  0  0  0  0  0  0  0  0999 V2000
   -6.1480    6.3493  -18.2163 N   0  0  0  0  0  0  0  0  0  0  0  0
   -7.3363    5.6990  -18.1493 C   0  0  0  0  0  0  0  0  0  0  0  0
   -7.9440    5.0042  -17.0922 C   0  0  0  0  0  0  0  0  0  0  0  0
   -9.1984    4.4111  -17.3230 C   0  0  0  0  0  0  0  0  0  0  0  0
   -9.8169    4.5110  -18.5861 C   0  0  0  0  0  0  0  0  0  0  0  0
   -9.1822    5.1986  -19.6331 C   0  0  0  0  0  0  0  0  0  0  0  0
   -7.9415    5.7762  -19.3753 C   0  0  0  0  0  0  0  0  0  0  0  0
   -7.1739    6.4525  -20.2441 N   0  0  0  0  0  0  0  0  0  0  0  0
   -6.0888    6.7825  -19.5024 C   0  0  0  0  0  0  0  0  0  0  0  0
   -5.0765    6.6172  -17.2327 C   0  0  1  0  0  0  0  0  0  0  0  0
   -5.5400    6.8504  -15.7941 C   0  0  0  0  0  0  0  0  0  0  0  0
   -4.7837    5.5964  -15.3423 C   0  0  0  0  0  0  0  0  0  0  0  0
   -4.2578    5.3926  -16.7738 C   0  0  1  0  0  0  0  0  0  0  0  0
   -4.6116    4.0329  -17.3936 C   0  0  0  0  0  0  0  0  0  0  0  0
   -2.8678    5.6150  -16.8741 O   0  0  0  0  0  0  0  0  0  0  0  0
   -7.4795    4.8779  -16.1300 H   0  0  0  0  0  0  0  0  0  0  0  0
   -9.6889    3.8656  -16.5273 H   0  0  0  0  0  0  0  0  0  0  0  0
  -10.7810    4.0483  -18.7523 H   0  0  0  0  0  0  0  0  0  0  0  0
   -9.6421    5.2730  -20.6101 H   0  0  0  0  0  0  0  0  0  0  0  0
   -5.2562    7.3453  -19.9052 H   0  0  0  0  0  0  0  0  0  0  0  0
   -4.4274    7.4568  -17.5728 H   0  0  0  0  0  0  0  0  0  0  0  0
   -6.6332    6.8231  -15.6289 H   0  0  0  0  0  0  0  0  0  0  0  0
   -5.0871    7.7713  -15.3650 H   0  0  0  0  0  0  0  0  0  0  0  0
   -3.9859    5.8271  -14.6025 H   0  0  0  0  0  0  0  0  0  0  0  0
   -5.4657    4.7923  -14.9929 H   0  0  0  0  0  0  0  0  0  0  0  0
   -5.6430    3.7140  -17.1577 H   0  0  0  0  0  0  0  0  0  0  0  0
   -4.4864    4.0772  -18.4960 H   0  0  0  0  0  0  0  0  0  0  0  0
   -3.9262    3.2559  -16.9940 H   0  0  0  0  0  0  0  0  0  0  0  0
   -2.6440    6.4724  -16.4247 H   0  0  0  0  0  0  0  0  0  0  0  0
  1  2  1  0
  2  3  2  0
  3  4  1  0
  4  5  2  0
  5  6  1  0
  6  7  2  0
  7  8  1  0
  8  9  2  0
  1 10  1  0
 10 11  1  0
 11 12  1  0
 12 13  1  0
 13 14  1  0
 13 15  1  1
  9  1  1  0
  2  7  1  0
 13 10  1  0
  3 16  1  0
  4 17  1  0
  5 18  1  0
  6 19  1  0
  9 20  1  0
 10 21  1  6
 11 22  1  0
 11 23  1  0
 12 24  1  0
 12 25  1  0
 14 26  1  0
 14 27  1  0
 14 28  1  0
 15 29  1  0
A    1
 N1 
A    2
 C1 
A    3
 C2 
A    4
 C3 
A    5
 C4 
A    6
 C5 
A    7
 C6 
A    8
 N2 
A    9
 C7 
A   10
 C8 
A   11
 C9 
A   12
 C10
A   13
 C11
A   14
 C12
A   15
 O1 
A   16
 H1 
A   17
 H2 
A   18
 H3 
A   19
 H4 
A   20
 H5 
A   21
 H6 
A   22
 H7 
A   23
 H8 
A   24
 H9 
A   25
 H10
A   26
 H11
A   27
 H12
A   28
 H13
A   29
 H14
M  END
>  <ref_pdb>  (222) 
x0051_0B

>  <ref_mols>  (222) 
x0490_0B,x0472_0B

>  <original SMILES>  (222) 
[H]O[C@@]1(C([H])([H])[H])C([H])([H])C([H])([H])[C@]1([H])n1c([H])nc2c([H])c([H])c([H])c([H])c21

>  <index>  (222) 
138

>  <∆∆G>  (222) 
-5.672175

>  <∆G_bound>  (222) 
-5.834065

>  <∆G_unbound>  (222) 
-0.16189

>  <comRMSD>  (222) 
0.925138

>  <N_constrained_atoms>  (222) 
15.0

>  <N_unconstrained_atoms>  (222) 
0.0

>  <runtime>  (222) 
24.20159

>  <LE>  (222) 
0.378145

>  <percent_hybrid>  (222) 
43.0

>  <dist>  (222) 
3.0

>  <ecfp4>  (222) 
0.365385

>  <daylight>  (222) 
0.66

>  <topodist>  (222) 
2.0

>  <mces>  (222) 
15.0

>  <tdn>  (222) 
0.0

>  <tup>  (222) 
1.0

>  <rdn>  (222) 
0.0

>  <rup>  (222) 
1.0

>  <ldn>  (222) 
0.0

>  <lup>  (222) 
0.0

>  <mut>  (222) 
1.0

>  <maj>  (222) 
1.0

>  <min>  (222) 
0.0

>  <hyb>  (222) 
0.0

>  <sub>  (222) 
2.0

>  <query_index>  (222) 
228.0

>  <max_hit_Tanimoto>  (222) 
0.511438

>  <largest_ring>  (222) 
6

>  <N_interactions_kept>  (222) 
3.0

>  <N_interactions_lost>  (222) 
1.0

>  <interaction_uniqueness_metric>  (222) 
0.056279

>  <ad_hoc_penalty>  (222) 
-23.829799

>  <N_rotatable_bonds>  (222) 
3

>  <N_HA>  (222) 
15

>  <cluster>  (222) 
6092

>  <N_interactions>  (222) 
6

>  <Enamine>  (222) 
0

>  <Mcule>  (222) 
1

>  <N_PAINS>  (222) 
0

>  <UFF_Gibbs>  (222) 
132.356194

>  <strain_per_HA>  (222) 
8.823746

>  <saltbridge:HIS:51>  (222) 
0

>  <pistack:HIS:51>  (222) 
0

>  <hydroph_interaction:HIS:51>  (222) 
0

>  <hbond:ALA:132>  (222) 
0

>  <hbond:SER:135>  (222) 
0

>  <hydroph_interaction:TYR:150>  (222) 
1

>  <pistack:TYR:161>  (222) 
0

>  <hydroph_interaction:TYR:161>  (222) 
4

>  <hydroph_interaction:ASP:83>  (222) 
0

>  <hbond:TYR:130>  (222) 
0

>  <hydroph_interaction:ALA:132>  (222) 
1

>  <hbond:HIS:51>  (222) 
0

>  <hbond:ASP:129>  (222) 
0

>  <hbond:TYR:150>  (222) 
0

>  <hbond:GLY:151>  (222) 
0

>  <hbond:TYR:161>  (222) 
0

>  <hydroph_interaction:TYR:130>  (222) 
0

>  <hydroph_interaction:PRO:131>  (222) 
0

>  <hydroph_interaction:ASP:129>  (222) 
0

>  <saltbridge:ASP:75>  (222) 
0

>  <saltbridge:ASP:83>  (222) 
0

>  <hydroph_interaction:ASN:152>  (222) 
0

>  <halogenbond:TYR:150>  (222) 
0

>  <hbond:ASP:83>  (222) 
0

>  <hydroph_interaction:VAL:155>  (222) 
0

>  <pication:TYR:161>  (222) 
0

>  <hbond:PRO:131>  (222) 
0

>  <hbond:LEU:128>  (222) 
0

>  <saltbridge:ASP:129>  (222) 
0

>  <hbond:THR:134>  (222) 
0

>  <pication:HIS:51>  (222) 
0

>  <hbond:SER:81>  (222) 
0

>  <hbond:GLY:159>  (222) 
0

>  <hydroph_interaction:PRO:101>  (222) 
0

>  <hydroph_interaction:THR:134>  (222) 
0

>  <hbond:GLY:82>  (222) 
0

>  <hydroph_interaction:GLU:104>  (222) 
0

>  <hydroph_interaction:VAL:36>  (222) 
0

>  <hydroph_interaction:MET:49>  (222) 
0

>  <halogenbond:GLU:104>  (222) 
0

>  <hydroph_interaction:LYS:107>  (222) 
0

$$$$
Z4076801657
     RDKit          3D

 42 45  0  0  0  0  0  0  0  0999 V2000
   -9.1452    4.3731  -18.0574 C   0  0  0  0  0  0  0  0  0  0  0  0
   -8.2817    4.8935  -17.0001 N   0  0  0  0  0  0  0  0  0  0  0  0
   -8.5190    4.7893  -15.6815 C   0  0  0  0  0  0  0  0  0  0  0  0
   -7.4499    5.3490  -15.0119 C   0  0  0  0  0  0  0  0  0  0  0  0
   -7.2763    5.4548  -13.5527 C   0  0  0  0  0  0  0  0  0  0  0  0
   -6.2733    6.0719  -13.1041 O   0  0  0  0  0  0  0  0  0  0  0  0
   -8.2092    4.8367  -12.6510 N   0  0  0  0  0  0  0  0  0  0  0  0
   -8.2838    5.1366  -11.2486 C   0  0  0  0  0  0  0  0  0  0  0  0
   -8.9604    4.4122  -10.2920 C   0  0  0  0  0  0  0  0  0  0  0  0
   -9.7766    3.1671  -10.4738 C   0  0  0  0  0  0  0  0  0  0  0  0
  -10.0758    2.5207   -9.1116 C   0  0  0  0  0  0  0  0  0  0  0  0
  -10.5248    3.5683   -8.0789 C   0  0  0  0  0  0  0  0  0  0  0  0
   -9.4266    4.6208   -7.8522 C   0  0  0  0  0  0  0  0  0  0  0  0
   -8.8844    5.0827   -9.1286 N   0  0  0  0  0  0  0  0  0  0  0  0
   -8.1693    6.1866   -9.2860 N   0  0  0  0  0  0  0  0  0  0  0  0
   -7.7964    6.2517  -10.5827 C   0  0  0  0  0  0  0  0  0  0  0  0
   -6.5493    5.8142  -15.9020 N   0  0  0  0  0  0  0  0  0  0  0  0
   -7.0924    5.5352  -17.1067 C   0  0  0  0  0  0  0  0  0  0  0  0
   -6.4035    5.8741  -18.3677 C   0  0  0  0  0  0  0  0  0  0  0  0
   -7.1018    6.3537  -19.4879 C   0  0  0  0  0  0  0  0  0  0  0  0
   -6.3960    6.6849  -20.6465 C   0  0  0  0  0  0  0  0  0  0  0  0
   -5.0075    6.5522  -20.6772 C   0  0  0  0  0  0  0  0  0  0  0  0
   -4.3412    6.0970  -19.5384 C   0  0  0  0  0  0  0  0  0  0  0  0
   -5.0456    5.7775  -18.4199 N   0  0  0  0  0  0  0  0  0  0  0  0
   -9.7521    3.5253  -17.6736 H   0  0  0  0  0  0  0  0  0  0  0  0
   -9.8331    5.1708  -18.4062 H   0  0  0  0  0  0  0  0  0  0  0  0
   -8.5352    3.9985  -18.9060 H   0  0  0  0  0  0  0  0  0  0  0  0
   -9.3993    4.3315  -15.2496 H   0  0  0  0  0  0  0  0  0  0  0  0
   -8.8446    4.0951  -13.0189 H   0  0  0  0  0  0  0  0  0  0  0  0
  -10.7311    3.4363  -10.9749 H   0  0  0  0  0  0  0  0  0  0  0  0
   -9.2286    2.4443  -11.1152 H   0  0  0  0  0  0  0  0  0  0  0  0
  -10.8737    1.7574   -9.2355 H   0  0  0  0  0  0  0  0  0  0  0  0
   -9.1642    2.0039   -8.7384 H   0  0  0  0  0  0  0  0  0  0  0  0
  -11.4494    4.0696   -8.4403 H   0  0  0  0  0  0  0  0  0  0  0  0
  -10.7587    3.0657   -7.1158 H   0  0  0  0  0  0  0  0  0  0  0  0
   -8.6048    4.1749   -7.2516 H   0  0  0  0  0  0  0  0  0  0  0  0
   -9.8478    5.4813   -7.2894 H   0  0  0  0  0  0  0  0  0  0  0  0
   -7.2380    7.0743  -11.0065 H   0  0  0  0  0  0  0  0  0  0  0  0
   -8.1719    6.5026  -19.4622 H   0  0  0  0  0  0  0  0  0  0  0  0
   -6.9241    7.0549  -21.5159 H   0  0  0  0  0  0  0  0  0  0  0  0
   -4.4524    6.8098  -21.5699 H   0  0  0  0  0  0  0  0  0  0  0  0
   -3.2638    6.0001  -19.5419 H   0  0  0  0  0  0  0  0  0  0  0  0
  1  2  1  0
  2  3  1  0
  3  4  2  0
  4  5  1  0
  5  6  2  0
  5  7  1  0
  7  8  1  0
  8  9  2  0
  9 10  1  0
 10 11  1  0
 11 12  1  0
 12 13  1  0
 13 14  1  0
 14 15  1  0
 15 16  2  0
  4 17  1  0
 17 18  2  0
 18 19  1  0
 19 20  2  0
 20 21  1  0
 21 22  2  0
 22 23  1  0
 23 24  2  0
 18  2  1  0
 16  8  1  0
 14  9  1  0
 24 19  1  0
  1 25  1  0
  1 26  1  0
  1 27  1  0
  3 28  1  0
  7 29  1  0
 10 30  1  0
 10 31  1  0
 11 32  1  0
 11 33  1  0
 12 34  1  0
 12 35  1  0
 13 36  1  0
 13 37  1  0
 16 38  1  0
 20 39  1  0
 21 40  1  0
 22 41  1  0
 23 42  1  0
A    1
 C1 
A    2
 N1 
A    3
 C2 
A    4
 C3 
A    5
 C4 
A    6
 O1 
A    7
 N2 
A    8
 C5 
A    9
 C6 
A   10
 C7 
A   11
 C8 
A   12
 C9 
A   13
 C10
A   14
 N3 
A   15
 N4 
A   16
 C11
A   17
 N5 
A   18
 C12
A   19
 C13
A   20
 C14
A   21
 C15
A   22
 C16
A   23
 C17
A   24
 N6 
A   25
 H1 
A   26
 H2 
A   27
 H3 
A   28
 H4 
A   29
 H5 
A   30
 H6 
A   31
 H7 
A   32
 H8 
A   33
 H9 
A   34
 H10
A   35
 H11
A   36
 H12
A   37
 H13
A   38
 H14
A   39
 H15
A   40
 H16
A   41
 H17
A   42
 H18
M  END
>  <ref_pdb>  (223) 
x0051_0B

>  <ref_mols>  (223) 
x0969_1B,x0917_0B

>  <original SMILES>  (223) 
[H]c1nc(-c2nc(C(=O)N([H])c3c([H])nn4c3C([H])([H])C([H])([H])C([H])([H])C4([H])[H])c([H])n2C([H])([H])[H])c([H])c([H])c1[H]

>  <index>  (223) 
377

>  <∆∆G>  (223) 
-7.142973

>  <∆G_bound>  (223) 
-6.717586

>  <∆G_unbound>  (223) 
0.425387

>  <comRMSD>  (223) 
0.600329

>  <N_constrained_atoms>  (223) 
24.0

>  <N_unconstrained_atoms>  (223) 
0.0

>  <runtime>  (223) 
98.191425

>  <LE>  (223) 
0.297624

>  <percent_hybrid>  (223) 
40.0

>  <dist>  (223) 
11.0

>  <ecfp4>  (223) 
0.228261

>  <daylight>  (223) 
0.285

>  <topodist>  (223) 
1.0

>  <mces>  (223) 
27.0

>  <tdn>  (223) 
1.0

>  <tup>  (223) 
0.0

>  <rdn>  (223) 
0.0

>  <rup>  (223) 
0.0

>  <ldn>  (223) 
0.0

>  <lup>  (223) 
0.0

>  <mut>  (223) 
5.0

>  <maj>  (223) 
5.0

>  <min>  (223) 
0.0

>  <hyb>  (223) 
5.0

>  <sub>  (223) 
0.0

>  <query_index>  (223) 
70.0

>  <max_hit_Tanimoto>  (223) 
0.284884

>  <largest_ring>  (223) 
6

>  <N_interactions_kept>  (223) 
2.5

>  <N_interactions_lost>  (223) 
1.5

>  <interaction_uniqueness_metric>  (223) 
0.138244

>  <ad_hoc_penalty>  (223) 
-23.744775

>  <N_rotatable_bonds>  (223) 
4

>  <N_HA>  (223) 
24

>  <cluster>  (223) 
5872

>  <N_interactions>  (223) 
5

>  <Enamine>  (223) 
1

>  <Mcule>  (223) 
0

>  <N_PAINS>  (223) 
0

>  <UFF_Gibbs>  (223) 
84.813633

>  <strain_per_HA>  (223) 
3.533901

>  <saltbridge:HIS:51>  (223) 
0

>  <pistack:HIS:51>  (223) 
1

>  <hydroph_interaction:HIS:51>  (223) 
1

>  <hbond:ALA:132>  (223) 
0

>  <hbond:SER:135>  (223) 
0

>  <hydroph_interaction:TYR:150>  (223) 
0

>  <pistack:TYR:161>  (223) 
1

>  <hydroph_interaction:TYR:161>  (223) 
0

>  <hydroph_interaction:ASP:83>  (223) 
0

>  <hbond:TYR:130>  (223) 
0

>  <hydroph_interaction:ALA:132>  (223) 
1

>  <hbond:HIS:51>  (223) 
0

>  <hbond:ASP:129>  (223) 
0

>  <hbond:TYR:150>  (223) 
0

>  <hbond:GLY:151>  (223) 
1

>  <hbond:TYR:161>  (223) 
0

>  <hydroph_interaction:TYR:130>  (223) 
0

>  <hydroph_interaction:PRO:131>  (223) 
0

>  <hydroph_interaction:ASP:129>  (223) 
0

>  <saltbridge:ASP:75>  (223) 
0

>  <saltbridge:ASP:83>  (223) 
0

>  <hydroph_interaction:ASN:152>  (223) 
0

>  <halogenbond:TYR:150>  (223) 
0

>  <hbond:ASP:83>  (223) 
0

>  <hydroph_interaction:VAL:155>  (223) 
0

>  <pication:TYR:161>  (223) 
0

>  <hbond:PRO:131>  (223) 
0

>  <hbond:LEU:128>  (223) 
0

>  <saltbridge:ASP:129>  (223) 
0

>  <hbond:THR:134>  (223) 
0

>  <pication:HIS:51>  (223) 
0

>  <hbond:SER:81>  (223) 
0

>  <hbond:GLY:159>  (223) 
0

>  <hydroph_interaction:PRO:101>  (223) 
0

>  <hydroph_interaction:THR:134>  (223) 
0

>  <hbond:GLY:82>  (223) 
0

>  <hydroph_interaction:GLU:104>  (223) 
0

>  <hydroph_interaction:VAL:36>  (223) 
0

>  <hydroph_interaction:MET:49>  (223) 
0

>  <halogenbond:GLU:104>  (223) 
0

>  <hydroph_interaction:LYS:107>  (223) 
0

$$$$
Z1256109612
     RDKit          3D

 51 55  0  0  0  0  0  0  0  0999 V2000
   -8.9856    4.8669  -19.3668 C   0  0  0  0  0  0  0  0  0  0  0  0
   -7.8117    5.8390  -19.2276 C   0  0  0  0  0  0  0  0  0  0  0  0
   -7.3429    5.8934  -17.7998 C   0  0  0  0  0  0  0  0  0  0  0  0
   -8.0598    6.3471  -16.7084 C   0  0  0  0  0  0  0  0  0  0  0  0
   -7.2285    6.1896  -15.6122 C   0  0  0  0  0  0  0  0  0  0  0  0
   -6.0453    5.6492  -16.0801 C   0  0  0  0  0  0  0  0  0  0  0  0
   -6.1332    5.4583  -17.4096 N   0  0  0  0  0  0  0  0  0  0  0  0
   -5.0825    4.9876  -18.3054 C   0  0  0  0  0  0  0  0  0  0  0  0
   -5.6910    4.4826  -19.6200 C   0  0  0  0  0  0  0  0  0  0  0  0
   -6.7041    5.4288  -20.1180 N   0  0  0  0  0  0  0  0  0  0  0  0
   -6.8202    5.6411  -21.5388 C   0  0  0  0  0  0  0  0  0  0  0  0
   -6.5160    4.7111  -22.3340 O   0  0  0  0  0  0  0  0  0  0  0  0
   -7.2800    6.9344  -22.0871 C   0  0  0  0  0  0  0  0  0  0  0  0
   -8.0820    6.9685  -23.2410 C   0  0  0  0  0  0  0  0  0  0  0  0
   -8.5232    8.1913  -23.7558 C   0  0  0  0  0  0  0  0  0  0  0  0
   -8.1476    9.3917  -23.1385 C   0  0  0  0  0  0  0  0  0  0  0  0
   -8.7301   10.9610  -23.7870 S   0  0  0  0  0  0  0  0  0  0  0  0
   -7.3012   11.2196  -24.8931 C   0  0  0  0  0  0  0  0  0  0  0  0
   -7.3538   10.2789  -26.0552 C   0  0  0  0  0  0  0  0  0  0  0  0
   -6.3680    9.3812  -26.3289 N   0  0  0  0  0  0  0  0  0  0  0  0
   -6.8371    8.7553  -27.4226 C   0  0  0  0  0  0  0  0  0  0  0  0
   -6.2363    7.7223  -28.1384 C   0  0  0  0  0  0  0  0  0  0  0  0
   -6.9259    7.2157  -29.2584 C   0  0  0  0  0  0  0  0  0  0  0  0
   -8.1834    7.7467  -29.6278 C   0  0  0  0  0  0  0  0  0  0  0  0
   -8.7625    8.7895  -28.8801 C   0  0  0  0  0  0  0  0  0  0  0  0
   -8.0498    9.2655  -27.7808 C   0  0  0  0  0  0  0  0  0  0  0  0
   -8.3919   10.2359  -26.9271 N   0  0  0  0  0  0  0  0  0  0  0  0
   -7.3351    9.3650  -21.9990 C   0  0  0  0  0  0  0  0  0  0  0  0
   -6.9005    8.1429  -21.4769 C   0  0  0  0  0  0  0  0  0  0  0  0
   -9.3361    4.8396  -20.4207 H   0  0  0  0  0  0  0  0  0  0  0  0
   -9.8341    5.1963  -18.7321 H   0  0  0  0  0  0  0  0  0  0  0  0
   -8.6828    3.8433  -19.0623 H   0  0  0  0  0  0  0  0  0  0  0  0
   -8.1656    6.8557  -19.4982 H   0  0  0  0  0  0  0  0  0  0  0  0
   -9.0650    6.7481  -16.7086 H   0  0  0  0  0  0  0  0  0  0  0  0
   -7.4601    6.4459  -14.5864 H   0  0  0  0  0  0  0  0  0  0  0  0
   -5.1729    5.4160  -15.4830 H   0  0  0  0  0  0  0  0  0  0  0  0
   -4.3845    5.8252  -18.5183 H   0  0  0  0  0  0  0  0  0  0  0  0
   -4.5135    4.1657  -17.8195 H   0  0  0  0  0  0  0  0  0  0  0  0
   -6.1679    3.4898  -19.4542 H   0  0  0  0  0  0  0  0  0  0  0  0
   -4.8688    4.3560  -20.3605 H   0  0  0  0  0  0  0  0  0  0  0  0
   -8.3835    6.0493  -23.7302 H   0  0  0  0  0  0  0  0  0  0  0  0
   -9.1551    8.2043  -24.6347 H   0  0  0  0  0  0  0  0  0  0  0  0
   -6.3551   11.0927  -24.3305 H   0  0  0  0  0  0  0  0  0  0  0  0
   -7.3370   12.2612  -25.2745 H   0  0  0  0  0  0  0  0  0  0  0  0
   -5.2730    7.3210  -27.8468 H   0  0  0  0  0  0  0  0  0  0  0  0
   -6.4920    6.4116  -29.8401 H   0  0  0  0  0  0  0  0  0  0  0  0
   -8.7056    7.3496  -30.4915 H   0  0  0  0  0  0  0  0  0  0  0  0
   -9.7268    9.2033  -29.1480 H   0  0  0  0  0  0  0  0  0  0  0  0
   -9.2640   10.8104  -26.9250 H   0  0  0  0  0  0  0  0  0  0  0  0
   -7.0384   10.2898  -21.5174 H   0  0  0  0  0  0  0  0  0  0  0  0
   -6.2618    8.1411  -20.6016 H   0  0  0  0  0  0  0  0  0  0  0  0
  1  2  1  0
  2  3  1  0
  3  4  2  0
  4  5  1  0
  5  6  2  0
  6  7  1  0
  7  8  1  0
  8  9  1  0
  9 10  1  0
 10 11  1  0
 11 12  2  0
 11 13  1  0
 13 14  2  0
 14 15  1  0
 15 16  2  0
 16 17  1  0
 17 18  1  0
 18 19  1  0
 19 20  2  0
 20 21  1  0
 21 22  2  0
 22 23  1  0
 23 24  2  0
 24 25  1  0
 25 26  2  0
 26 27  1  0
 16 28  1  0
 28 29  2  0
 10  2  1  0
  7  3  1  0
 29 13  1  0
 27 19  1  0
 26 21  1  0
  1 30  1  0
  1 31  1  0
  1 32  1  0
  2 33  1  0
  4 34  1  0
  5 35  1  0
  6 36  1  0
  8 37  1  0
  8 38  1  0
  9 39  1  0
  9 40  1  0
 14 41  1  0
 15 42  1  0
 18 43  1  0
 18 44  1  0
 22 45  1  0
 23 46  1  0
 24 47  1  0
 25 48  1  0
 27 49  1  0
 28 50  1  0
 29 51  1  0
A    1
 C1 
A    2
 C2 
A    3
 C3 
A    4
 C4 
A    5
 C5 
A    6
 C6 
A    7
 N1 
A    8
 C7 
A    9
 C8 
A   10
 N2 
A   11
 C9 
A   12
 O1 
A   13
 C10
A   14
 C11
A   15
 C12
A   16
 C13
A   17
 S1 
A   18
 C14
A   19
 C15
A   20
 N3 
A   21
 C16
A   22
 C17
A   23
 C18
A   24
 C19
A   25
 C20
A   26
 C21
A   27
 N4 
A   28
 C22
A   29
 C23
A   30
 H1 
A   31
 H2 
A   32
 H3 
A   33
 H4 
A   34
 H5 
A   35
 H6 
A   36
 H7 
A   37
 H8 
A   38
 H9 
A   39
 H10
A   40
 H11
A   41
 H12
A   42
 H13
A   43
 H14
A   44
 H15
A   45
 H16
A   46
 H17
A   47
 H18
A   48
 H19
A   49
 H20
A   50
 H21
A   51
 H22
M  END
>  <ref_pdb>  (224) 
x0051_0B

>  <ref_mols>  (224) 
x0846_1B,x0969_0B

>  <original SMILES>  (224) 
[H]c1c([H])c(C(=O)N2C([H])([H])C([H])([H])n3c([H])c([H])c([H])c3C2([H])C([H])([H])[H])c([H])c([H])c1SC([H])([H])c1nc2c([H])c([H])c([H])c([H])c2n1[H]

>  <index>  (224) 
425

>  <∆∆G>  (224) 
-9.704889

>  <∆G_bound>  (224) 
-9.047405

>  <∆G_unbound>  (224) 
0.657484

>  <comRMSD>  (224) 
0.732357

>  <N_constrained_atoms>  (224) 
28.0

>  <N_unconstrained_atoms>  (224) 
3.0

>  <runtime>  (224) 
44.417021

>  <LE>  (224) 
0.313061

>  <percent_hybrid>  (224) 
36.0

>  <dist>  (224) 
8.0

>  <ecfp4>  (224) 
0.207921

>  <daylight>  (224) 
0.322684

>  <topodist>  (224) 
4.0

>  <mces>  (224) 
31.0

>  <tdn>  (224) 
2.0

>  <tup>  (224) 
2.0

>  <rdn>  (224) 
0.0

>  <rup>  (224) 
0.0

>  <ldn>  (224) 
0.0

>  <lup>  (224) 
0.0

>  <mut>  (224) 
4.0

>  <maj>  (224) 
4.0

>  <min>  (224) 
0.0

>  <hyb>  (224) 
0.0

>  <sub>  (224) 
3.0

>  <query_index>  (224) 
45.0

>  <max_hit_Tanimoto>  (224) 
0.252444

>  <largest_ring>  (224) 
6

>  <N_interactions_kept>  (224) 
0.5

>  <N_interactions_lost>  (224) 
2.0

>  <interaction_uniqueness_metric>  (224) 
0.16668

>  <ad_hoc_penalty>  (224) 
-23.697992

>  <N_rotatable_bonds>  (224) 
5

>  <N_HA>  (224) 
29

>  <cluster>  (224) 
5833

>  <N_interactions>  (224) 
5

>  <Enamine>  (224) 
1

>  <Mcule>  (224) 
0

>  <N_PAINS>  (224) 
0

>  <UFF_Gibbs>  (224) 
96.184458

>  <strain_per_HA>  (224) 
3.102724

>  <saltbridge:HIS:51>  (224) 
0

>  <pistack:HIS:51>  (224) 
0

>  <hydroph_interaction:HIS:51>  (224) 
0

>  <hbond:ALA:132>  (224) 
0

>  <hbond:SER:135>  (224) 
0

>  <hydroph_interaction:TYR:150>  (224) 
0

>  <pistack:TYR:161>  (224) 
1

>  <hydroph_interaction:TYR:161>  (224) 
1

>  <hydroph_interaction:ASP:83>  (224) 
0

>  <hbond:TYR:130>  (224) 
0

>  <hydroph_interaction:ALA:132>  (224) 
0

>  <hbond:HIS:51>  (224) 
0

>  <hbond:ASP:129>  (224) 
1

>  <hbond:TYR:150>  (224) 
0

>  <hbond:GLY:151>  (224) 
0

>  <hbond:TYR:161>  (224) 
0

>  <hydroph_interaction:TYR:130>  (224) 
1

>  <hydroph_interaction:PRO:131>  (224) 
1

>  <hydroph_interaction:ASP:129>  (224) 
0

>  <saltbridge:ASP:75>  (224) 
0

>  <saltbridge:ASP:83>  (224) 
0

>  <hydroph_interaction:ASN:152>  (224) 
0

>  <halogenbond:TYR:150>  (224) 
0

>  <hbond:ASP:83>  (224) 
0

>  <hydroph_interaction:VAL:155>  (224) 
0

>  <pication:TYR:161>  (224) 
0

>  <hbond:PRO:131>  (224) 
0

>  <hbond:LEU:128>  (224) 
0

>  <saltbridge:ASP:129>  (224) 
0

>  <hbond:THR:134>  (224) 
0

>  <pication:HIS:51>  (224) 
0

>  <hbond:SER:81>  (224) 
0

>  <hbond:GLY:159>  (224) 
0

>  <hydroph_interaction:PRO:101>  (224) 
0

>  <hydroph_interaction:THR:134>  (224) 
0

>  <hbond:GLY:82>  (224) 
0

>  <hydroph_interaction:GLU:104>  (224) 
0

>  <hydroph_interaction:VAL:36>  (224) 
0

>  <hydroph_interaction:MET:49>  (224) 
0

>  <halogenbond:GLU:104>  (224) 
0

>  <hydroph_interaction:LYS:107>  (224) 
0

$$$$
MCULE-7806067323
     RDKit          3D

 18 19  0  0  0  0  0  0  0  0999 V2000
   -7.9138    5.0420  -18.1861 C   0  0  0  0  0  0  0  0  0  0  0  0
   -8.3464    5.1088  -16.8727 C   0  0  0  0  0  0  0  0  0  0  0  0
   -9.7022    4.8623  -16.9071 C   0  0  0  0  0  0  0  0  0  0  0  0
  -10.0846    4.6556  -18.1454 O   0  0  0  0  0  0  0  0  0  0  0  0
   -9.0424    4.7550  -18.9376 C   0  0  0  0  0  0  0  0  0  0  0  0
   -6.5275    5.2377  -18.6845 C   0  0  0  0  0  0  0  0  0  0  0  0
   -5.4387    5.2819  -17.7950 C   0  0  0  0  0  0  0  0  0  0  0  0
   -4.1418    5.4658  -18.2772 C   0  0  0  0  0  0  0  0  0  0  0  0
   -3.9354    5.6061  -19.6491 C   0  0  0  0  0  0  0  0  0  0  0  0
   -4.9914    5.5637  -20.5021 N   0  0  0  0  0  0  0  0  0  0  0  0
   -6.2648    5.3845  -20.0596 C   0  0  0  0  0  0  0  0  0  0  0  0
   -2.6828    5.7854  -20.1339 F   0  0  0  0  0  0  0  0  0  0  0  0
   -7.7602    5.3222  -15.9895 H   0  0  0  0  0  0  0  0  0  0  0  0
  -10.3643    4.8403  -16.0519 H   0  0  0  0  0  0  0  0  0  0  0  0
   -9.0909    4.6215  -20.0093 H   0  0  0  0  0  0  0  0  0  0  0  0
   -5.5812    5.1645  -16.7296 H   0  0  0  0  0  0  0  0  0  0  0  0
   -3.3043    5.4968  -17.5921 H   0  0  0  0  0  0  0  0  0  0  0  0
   -7.0653    5.3691  -20.7852 H   0  0  0  0  0  0  0  0  0  0  0  0
  1  2  1  0
  2  3  2  0
  3  4  1  0
  4  5  1  0
  1  6  1  0
  6  7  2  0
  7  8  1  0
  8  9  2  0
  9 10  1  0
 10 11  2  0
  9 12  1  0
  1  5  2  0
  6 11  1  0
  2 13  1  0
  3 14  1  0
  5 15  1  0
  7 16  1  0
  8 17  1  0
 11 18  1  0
A    1
 C1 
A    2
 C2 
A    3
 C3 
A    4
 O1 
A    5
 C4 
A    6
 C5 
A    7
 C6 
A    8
 C7 
A    9
 C8 
A   10
 N1 
A   11
 C9 
A   12
 F1 
A   13
 H1 
A   14
 H2 
A   15
 H3 
A   16
 H4 
A   17
 H5 
A   18
 H6 
M  END
>  <ref_pdb>  (225) 
x0051_0B

>  <ref_mols>  (225) 
x0680_0B,x0386_0B

>  <original SMILES>  (225) 
[H]c1nc(F)c([H])c([H])c1-c1c([H])oc([H])c1[H]

>  <index>  (225) 
393

>  <∆∆G>  (225) 
-5.368879

>  <∆G_bound>  (225) 
-5.360322

>  <∆G_unbound>  (225) 
0.008557

>  <comRMSD>  (225) 
0.612815

>  <N_constrained_atoms>  (225) 
13.0

>  <N_unconstrained_atoms>  (225) 
1.0

>  <runtime>  (225) 
22.07489

>  <LE>  (225) 
0.383491

>  <percent_hybrid>  (225) 
25.0

>  <dist>  (225) 
3.0

>  <ecfp4>  (225) 
0.215686

>  <daylight>  (225) 
0.414815

>  <topodist>  (225) 
2.0

>  <mces>  (225) 
12.0

>  <tdn>  (225) 
1.0

>  <tup>  (225) 
1.0

>  <rdn>  (225) 
0.0

>  <rup>  (225) 
0.0

>  <ldn>  (225) 
0.0

>  <lup>  (225) 
0.0

>  <mut>  (225) 
1.0

>  <maj>  (225) 
1.0

>  <min>  (225) 
0.0

>  <hyb>  (225) 
0.0

>  <sub>  (225) 
2.0

>  <query_index>  (225) 
296.0

>  <max_hit_Tanimoto>  (225) 
0.136861

>  <largest_ring>  (225) 
6

>  <N_interactions_kept>  (225) 
3.5

>  <N_interactions_lost>  (225) 
0.5

>  <interaction_uniqueness_metric>  (225) 
0.016266

>  <ad_hoc_penalty>  (225) 
-23.618119

>  <N_rotatable_bonds>  (225) 
1

>  <N_HA>  (225) 
12

>  <cluster>  (225) 
5858

>  <N_interactions>  (225) 
3

>  <Enamine>  (225) 
0

>  <Mcule>  (225) 
1

>  <N_PAINS>  (225) 
0

>  <UFF_Gibbs>  (225) 
28.709708

>  <strain_per_HA>  (225) 
2.050693

>  <saltbridge:HIS:51>  (225) 
0

>  <pistack:HIS:51>  (225) 
0

>  <hydroph_interaction:HIS:51>  (225) 
0

>  <hbond:ALA:132>  (225) 
0

>  <hbond:SER:135>  (225) 
0

>  <hydroph_interaction:TYR:150>  (225) 
0

>  <pistack:TYR:161>  (225) 
0

>  <hydroph_interaction:TYR:161>  (225) 
3

>  <hydroph_interaction:ASP:83>  (225) 
0

>  <hbond:TYR:130>  (225) 
0

>  <hydroph_interaction:ALA:132>  (225) 
0

>  <hbond:HIS:51>  (225) 
0

>  <hbond:ASP:129>  (225) 
0

>  <hbond:TYR:150>  (225) 
0

>  <hbond:GLY:151>  (225) 
0

>  <hbond:TYR:161>  (225) 
0

>  <hydroph_interaction:TYR:130>  (225) 
0

>  <hydroph_interaction:PRO:131>  (225) 
0

>  <hydroph_interaction:ASP:129>  (225) 
0

>  <saltbridge:ASP:75>  (225) 
0

>  <saltbridge:ASP:83>  (225) 
0

>  <hydroph_interaction:ASN:152>  (225) 
0

>  <halogenbond:TYR:150>  (225) 
0

>  <hbond:ASP:83>  (225) 
0

>  <hydroph_interaction:VAL:155>  (225) 
0

>  <pication:TYR:161>  (225) 
0

>  <hbond:PRO:131>  (225) 
0

>  <hbond:LEU:128>  (225) 
0

>  <saltbridge:ASP:129>  (225) 
0

>  <hbond:THR:134>  (225) 
0

>  <pication:HIS:51>  (225) 
0

>  <hbond:SER:81>  (225) 
0

>  <hbond:GLY:159>  (225) 
0

>  <hydroph_interaction:PRO:101>  (225) 
0

>  <hydroph_interaction:THR:134>  (225) 
0

>  <hbond:GLY:82>  (225) 
0

>  <hydroph_interaction:GLU:104>  (225) 
0

>  <hydroph_interaction:VAL:36>  (225) 
0

>  <hydroph_interaction:MET:49>  (225) 
0

>  <halogenbond:GLU:104>  (225) 
0

>  <hydroph_interaction:LYS:107>  (225) 
0

$$$$
MCULE-5163825503
     RDKit          3D

 34 35  0  0  0  0  0  0  0  0999 V2000
  -11.2781    4.6781  -18.6559 C   0  0  0  0  0  0  0  0  0  0  0  0
   -9.9826    5.0505  -17.9972 C   0  0  0  0  0  0  0  0  0  0  0  0
   -8.8051    5.1344  -18.7534 C   0  0  0  0  0  0  0  0  0  0  0  0
   -7.5781    5.4446  -18.1405 C   0  0  0  0  0  0  0  0  0  0  0  0
   -6.3856    5.5741  -18.9342 N   0  0  0  0  0  0  0  0  0  0  0  0
   -5.9921    4.6118  -19.9298 C   0  0  0  0  0  0  0  0  0  0  0  0
   -4.7454    4.7851  -20.7127 C   0  0  0  0  0  0  0  0  0  0  0  0
   -3.6298    5.4529  -20.1723 C   0  0  0  0  0  0  0  0  0  0  0  0
   -2.4552    5.6032  -20.9249 C   0  0  0  0  0  0  0  0  0  0  0  0
   -1.3261    6.2821  -20.3681 N   0  0  0  0  0  0  0  0  0  0  0  0
   -2.3904    5.0780  -22.2219 C   0  0  0  0  0  0  0  0  0  0  0  0
   -3.4867    4.4019  -22.7602 C   0  0  0  0  0  0  0  0  0  0  0  0
   -4.6560    4.2511  -22.0106 C   0  0  0  0  0  0  0  0  0  0  0  0
   -6.7119    3.5977  -20.1430 O   0  0  0  0  0  0  0  0  0  0  0  0
   -7.5381    5.6807  -16.7479 C   0  0  0  0  0  0  0  0  0  0  0  0
   -6.2485    6.0389  -16.0605 C   0  0  0  0  0  0  0  0  0  0  0  0
   -8.7209    5.5877  -15.9966 C   0  0  0  0  0  0  0  0  0  0  0  0
   -9.9299    5.2622  -16.6139 C   0  0  0  0  0  0  0  0  0  0  0  0
  -11.3125    5.0632  -19.6973 H   0  0  0  0  0  0  0  0  0  0  0  0
  -11.3776    3.5727  -18.6751 H   0  0  0  0  0  0  0  0  0  0  0  0
  -12.1394    5.1097  -18.1027 H   0  0  0  0  0  0  0  0  0  0  0  0
   -8.8496    4.9835  -19.8248 H   0  0  0  0  0  0  0  0  0  0  0  0
   -5.7716    6.3969  -18.7480 H   0  0  0  0  0  0  0  0  0  0  0  0
   -3.6522    5.8335  -19.1599 H   0  0  0  0  0  0  0  0  0  0  0  0
   -0.4460    6.3964  -20.9187 H   0  0  0  0  0  0  0  0  0  0  0  0
   -1.3619    6.6764  -19.4016 H   0  0  0  0  0  0  0  0  0  0  0  0
   -1.4893    5.1875  -22.8121 H   0  0  0  0  0  0  0  0  0  0  0  0
   -3.4306    3.9937  -23.7611 H   0  0  0  0  0  0  0  0  0  0  0  0
   -5.4960    3.7274  -22.4503 H   0  0  0  0  0  0  0  0  0  0  0  0
   -5.4399    5.3482  -16.3807 H   0  0  0  0  0  0  0  0  0  0  0  0
   -6.3415    5.9634  -14.9561 H   0  0  0  0  0  0  0  0  0  0  0  0
   -5.9657    7.0804  -16.3204 H   0  0  0  0  0  0  0  0  0  0  0  0
   -8.7085    5.7626  -14.9279 H   0  0  0  0  0  0  0  0  0  0  0  0
  -10.8273    5.1834  -16.0126 H   0  0  0  0  0  0  0  0  0  0  0  0
  1  2  1  0
  2  3  2  0
  3  4  1  0
  4  5  1  0
  5  6  1  0
  6  7  1  0
  7  8  2  0
  8  9  1  0
  9 10  1  0
  9 11  2  0
 11 12  1  0
 12 13  2  0
  6 14  2  0
  4 15  2  0
 15 16  1  0
 15 17  1  0
 17 18  2  0
 18  2  1  0
 13  7  1  0
  1 19  1  0
  1 20  1  0
  1 21  1  0
  3 22  1  0
  5 23  1  0
  8 24  1  0
 10 25  1  0
 10 26  1  0
 11 27  1  0
 12 28  1  0
 13 29  1  0
 16 30  1  0
 16 31  1  0
 16 32  1  0
 17 33  1  0
 18 34  1  0
A    1
 C1 
A    2
 C2 
A    3
 C3 
A    4
 C4 
A    5
 N1 
A    6
 C5 
A    7
 C6 
A    8
 C7 
A    9
 C8 
A   10
 N2 
A   11
 C9 
A   12
 C10
A   13
 C11
A   14
 O1 
A   15
 C12
A   16
 C13
A   17
 C14
A   18
 C15
A   19
 H1 
A   20
 H2 
A   21
 H3 
A   22
 H4 
A   23
 H5 
A   24
 H6 
A   25
 H7 
A   26
 H8 
A   27
 H9 
A   28
 H10
A   29
 H11
A   30
 H12
A   31
 H13
A   32
 H14
A   33
 H15
A   34
 H16
M  END
>  <ref_pdb>  (226) 
x0051_0B

>  <ref_mols>  (226) 
x0852_0B,x0605_0B

>  <original SMILES>  (226) 
[H]c1c([H])c(C(=O)N([H])c2c([H])c(C([H])([H])[H])c([H])c([H])c2C([H])([H])[H])c([H])c(N([H])[H])c1[H]

>  <index>  (226) 
293

>  <∆∆G>  (226) 
-8.241471

>  <∆G_bound>  (226) 
-8.221957

>  <∆G_unbound>  (226) 
0.019514

>  <comRMSD>  (226) 
0.576373

>  <N_constrained_atoms>  (226) 
21.0

>  <N_unconstrained_atoms>  (226) 
1.0

>  <runtime>  (226) 
37.737039

>  <LE>  (226) 
0.374612

>  <percent_hybrid>  (226) 
20.0

>  <dist>  (226) 
4.0

>  <ecfp4>  (226) 
0.238095

>  <daylight>  (226) 
0.492308

>  <topodist>  (226) 
3.0

>  <mces>  (226) 
18.0

>  <tdn>  (226) 
2.0

>  <tup>  (226) 
1.0

>  <rdn>  (226) 
0.0

>  <rup>  (226) 
0.0

>  <ldn>  (226) 
0.0

>  <lup>  (226) 
0.0

>  <mut>  (226) 
1.0

>  <maj>  (226) 
1.0

>  <min>  (226) 
0.0

>  <hyb>  (226) 
0.0

>  <sub>  (226) 
3.0

>  <query_index>  (226) 
176.0

>  <max_hit_Tanimoto>  (226) 
0.44051

>  <largest_ring>  (226) 
6

>  <N_interactions_kept>  (226) 
3.0

>  <N_interactions_lost>  (226) 
3.0

>  <interaction_uniqueness_metric>  (226) 
0.244473

>  <ad_hoc_penalty>  (226) 
-23.604641

>  <N_rotatable_bonds>  (226) 
5

>  <N_HA>  (226) 
18

>  <cluster>  (226) 
5949

>  <N_interactions>  (226) 
8

>  <Enamine>  (226) 
0

>  <Mcule>  (226) 
1

>  <N_PAINS>  (226) 
0

>  <UFF_Gibbs>  (226) 
113.294519

>  <strain_per_HA>  (226) 
5.149751

>  <saltbridge:HIS:51>  (226) 
0

>  <pistack:HIS:51>  (226) 
0

>  <hydroph_interaction:HIS:51>  (226) 
0

>  <hbond:ALA:132>  (226) 
0

>  <hbond:SER:135>  (226) 
0

>  <hydroph_interaction:TYR:150>  (226) 
1

>  <pistack:TYR:161>  (226) 
0

>  <hydroph_interaction:TYR:161>  (226) 
4

>  <hydroph_interaction:ASP:83>  (226) 
0

>  <hbond:TYR:130>  (226) 
1

>  <hydroph_interaction:ALA:132>  (226) 
0

>  <hbond:HIS:51>  (226) 
0

>  <hbond:ASP:129>  (226) 
0

>  <hbond:TYR:150>  (226) 
0

>  <hbond:GLY:151>  (226) 
0

>  <hbond:TYR:161>  (226) 
0

>  <hydroph_interaction:TYR:130>  (226) 
0

>  <hydroph_interaction:PRO:131>  (226) 
0

>  <hydroph_interaction:ASP:129>  (226) 
1

>  <saltbridge:ASP:75>  (226) 
0

>  <saltbridge:ASP:83>  (226) 
0

>  <hydroph_interaction:ASN:152>  (226) 
0

>  <halogenbond:TYR:150>  (226) 
0

>  <hbond:ASP:83>  (226) 
0

>  <hydroph_interaction:VAL:155>  (226) 
0

>  <pication:TYR:161>  (226) 
0

>  <hbond:PRO:131>  (226) 
0

>  <hbond:LEU:128>  (226) 
0

>  <saltbridge:ASP:129>  (226) 
0

>  <hbond:THR:134>  (226) 
0

>  <pication:HIS:51>  (226) 
0

>  <hbond:SER:81>  (226) 
0

>  <hbond:GLY:159>  (226) 
1

>  <hydroph_interaction:PRO:101>  (226) 
0

>  <hydroph_interaction:THR:134>  (226) 
0

>  <hbond:GLY:82>  (226) 
0

>  <hydroph_interaction:GLU:104>  (226) 
0

>  <hydroph_interaction:VAL:36>  (226) 
0

>  <hydroph_interaction:MET:49>  (226) 
0

>  <halogenbond:GLU:104>  (226) 
0

>  <hydroph_interaction:LYS:107>  (226) 
0

$$$$
HRISILJTHVDORW-UHFFFAOYSA-N
     RDKit          3D

 34 36  0  0  0  0  0  0  0  0999 V2000
   -5.4390    5.5594  -17.2643 N   0  0  0  0  0  0  0  0  0  0  0  0
   -4.0384    5.4049  -17.7108 C   0  0  0  0  0  0  0  0  0  0  0  0
   -3.1530    4.9477  -16.5379 C   0  0  0  0  0  0  0  0  0  0  0  0
   -3.4389    3.5211  -16.0707 C   0  0  0  0  0  0  0  0  0  0  0  0
   -2.0376    3.1026  -16.4946 C   0  0  0  0  0  0  0  0  0  0  0  0
   -1.7484    4.5224  -16.9631 C   0  0  0  0  0  0  0  0  0  0  0  0
   -6.4352    5.2045  -18.3151 C   0  0  0  0  0  0  0  0  0  0  0  0
   -6.2931    6.0356  -19.6073 C   0  0  0  0  0  0  0  0  0  0  0  0
   -7.8282    5.3629  -17.7672 C   0  0  0  0  0  0  0  0  0  0  0  0
   -8.0903    6.1997  -16.6960 C   0  0  0  0  0  0  0  0  0  0  0  0
   -9.7366    6.1669  -16.3680 S   0  0  0  0  0  0  0  0  0  0  0  0
  -10.1412    5.1155  -17.6227 C   0  0  0  0  0  0  0  0  0  0  0  0
   -8.9786    4.7662  -18.3015 C   0  0  0  0  0  0  0  0  0  0  0  0
   -7.0310    6.8761  -15.8868 C   0  0  0  0  0  0  0  0  0  0  0  0
   -5.6951    6.8843  -16.6478 C   0  0  0  0  0  0  0  0  0  0  0  0
   -3.6448    6.3620  -18.1210 H   0  0  0  0  0  0  0  0  0  0  0  0
   -3.9657    4.6432  -18.5210 H   0  0  0  0  0  0  0  0  0  0  0  0
   -3.1248    5.6706  -15.6937 H   0  0  0  0  0  0  0  0  0  0  0  0
   -4.2301    2.9993  -16.6537 H   0  0  0  0  0  0  0  0  0  0  0  0
   -3.5842    3.4585  -14.9701 H   0  0  0  0  0  0  0  0  0  0  0  0
   -1.4032    2.7988  -15.6334 H   0  0  0  0  0  0  0  0  0  0  0  0
   -2.0468    2.3713  -17.3323 H   0  0  0  0  0  0  0  0  0  0  0  0
   -0.9562    5.0132  -16.3564 H   0  0  0  0  0  0  0  0  0  0  0  0
   -1.5649    4.5774  -18.0591 H   0  0  0  0  0  0  0  0  0  0  0  0
   -6.3001    4.1318  -18.5782 H   0  0  0  0  0  0  0  0  0  0  0  0
   -6.5279    7.1056  -19.4327 H   0  0  0  0  0  0  0  0  0  0  0  0
   -5.2722    5.9534  -20.0320 H   0  0  0  0  0  0  0  0  0  0  0  0
   -7.0004    5.6542  -20.3744 H   0  0  0  0  0  0  0  0  0  0  0  0
  -11.1368    4.7658  -17.8593 H   0  0  0  0  0  0  0  0  0  0  0  0
   -8.9668    4.1003  -19.1543 H   0  0  0  0  0  0  0  0  0  0  0  0
   -7.3402    7.9176  -15.6559 H   0  0  0  0  0  0  0  0  0  0  0  0
   -6.9073    6.3203  -14.9328 H   0  0  0  0  0  0  0  0  0  0  0  0
   -5.7006    7.6870  -17.4153 H   0  0  0  0  0  0  0  0  0  0  0  0
   -4.8953    7.1391  -15.9205 H   0  0  0  0  0  0  0  0  0  0  0  0
  1  2  1  0
  2  3  1  0
  3  4  1  0
  4  5  1  0
  5  6  1  0
  1  7  1  0
  7  8  1  0
  7  9  1  0
  9 10  2  0
 10 11  1  0
 11 12  1  0
 12 13  2  0
 10 14  1  0
 14 15  1  0
 15  1  1  0
  6  3  1  0
 13  9  1  0
  2 16  1  0
  2 17  1  0
  3 18  1  0
  4 19  1  0
  4 20  1  0
  5 21  1  0
  5 22  1  0
  6 23  1  0
  6 24  1  0
  7 25  1  0
  8 26  1  0
  8 27  1  0
  8 28  1  0
 12 29  1  0
 13 30  1  0
 14 31  1  0
 14 32  1  0
 15 33  1  0
 15 34  1  0
A    1
 N1 
A    2
 C1 
A    3
 C2 
A    4
 C3 
A    5
 C4 
A    6
 C5 
A    7
 C6 
A    8
 C7 
A    9
 C8 
A   10
 C9 
A   11
 S1 
A   12
 C10
A   13
 C11
A   14
 C12
A   15
 C13
A   16
 H1 
A   17
 H2 
A   18
 H3 
A   19
 H4 
A   20
 H5 
A   21
 H6 
A   22
 H7 
A   23
 H8 
A   24
 H9 
A   25
 H10
A   26
 H11
A   27
 H12
A   28
 H13
A   29
 H14
A   30
 H15
A   31
 H16
A   32
 H17
A   33
 H18
A   34
 H19
M  END
>  <ref_pdb>  (227) 
x0051_0B

>  <ref_mols>  (227) 
x0472_0B,x0227_0B

>  <original SMILES>  (227) 
[H]c1sc2c(c1[H])C([H])(C([H])([H])[H])N(C([H])([H])C1([H])C([H])([H])C([H])([H])C1([H])[H])C([H])([H])C2([H])[H]

>  <index>  (227) 
343

>  <∆∆G>  (227) 
-6.941716

>  <∆G_bound>  (227) 
-6.843605

>  <∆G_unbound>  (227) 
0.098111

>  <comRMSD>  (227) 
0.587992

>  <N_constrained_atoms>  (227) 
18.0

>  <N_unconstrained_atoms>  (227) 
2.0

>  <runtime>  (227) 
18.590182

>  <LE>  (227) 
0.347086

>  <percent_hybrid>  (227) 
50.0

>  <dist>  (227) 
4.0

>  <ecfp4>  (227) 
0.4

>  <daylight>  (227) 
0.780303

>  <topodist>  (227) 
3.0

>  <mces>  (227) 
15.0

>  <tdn>  (227) 
1.0

>  <tup>  (227) 
0.0

>  <rdn>  (227) 
0.0

>  <rup>  (227) 
1.0

>  <ldn>  (227) 
0.0

>  <lup>  (227) 
1.0

>  <mut>  (227) 
1.0

>  <maj>  (227) 
1.0

>  <min>  (227) 
0.0

>  <hyb>  (227) 
0.0

>  <sub>  (227) 
2.0

>  <query_index>  (227) 
78.0

>  <max_hit_Tanimoto>  (227) 
0.63135

>  <largest_ring>  (227) 
6

>  <N_interactions_kept>  (227) 
3.5

>  <N_interactions_lost>  (227) 
1.5

>  <interaction_uniqueness_metric>  (227) 
0.134253

>  <ad_hoc_penalty>  (227) 
-23.577872

>  <N_rotatable_bonds>  (227) 
3

>  <N_HA>  (227) 
15

>  <cluster>  (227) 
5905

>  <N_interactions>  (227) 
5

>  <Enamine>  (227) 
0

>  <Mcule>  (227) 
1

>  <N_PAINS>  (227) 
0

>  <UFF_Gibbs>  (227) 
83.273536

>  <strain_per_HA>  (227) 
4.163677

>  <saltbridge:HIS:51>  (227) 
0

>  <pistack:HIS:51>  (227) 
0

>  <hydroph_interaction:HIS:51>  (227) 
0

>  <hbond:ALA:132>  (227) 
0

>  <hbond:SER:135>  (227) 
0

>  <hydroph_interaction:TYR:150>  (227) 
0

>  <pistack:TYR:161>  (227) 
0

>  <hydroph_interaction:TYR:161>  (227) 
3

>  <hydroph_interaction:ASP:83>  (227) 
0

>  <hbond:TYR:130>  (227) 
0

>  <hydroph_interaction:ALA:132>  (227) 
0

>  <hbond:HIS:51>  (227) 
0

>  <hbond:ASP:129>  (227) 
0

>  <hbond:TYR:150>  (227) 
0

>  <hbond:GLY:151>  (227) 
0

>  <hbond:TYR:161>  (227) 
0

>  <hydroph_interaction:TYR:130>  (227) 
0

>  <hydroph_interaction:PRO:131>  (227) 
0

>  <hydroph_interaction:ASP:129>  (227) 
0

>  <saltbridge:ASP:75>  (227) 
0

>  <saltbridge:ASP:83>  (227) 
0

>  <hydroph_interaction:ASN:152>  (227) 
0

>  <halogenbond:TYR:150>  (227) 
0

>  <hbond:ASP:83>  (227) 
0

>  <hydroph_interaction:VAL:155>  (227) 
1

>  <pication:TYR:161>  (227) 
1

>  <hbond:PRO:131>  (227) 
0

>  <hbond:LEU:128>  (227) 
0

>  <saltbridge:ASP:129>  (227) 
0

>  <hbond:THR:134>  (227) 
0

>  <pication:HIS:51>  (227) 
0

>  <hbond:SER:81>  (227) 
0

>  <hbond:GLY:159>  (227) 
0

>  <hydroph_interaction:PRO:101>  (227) 
0

>  <hydroph_interaction:THR:134>  (227) 
0

>  <hbond:GLY:82>  (227) 
0

>  <hydroph_interaction:GLU:104>  (227) 
0

>  <hydroph_interaction:VAL:36>  (227) 
0

>  <hydroph_interaction:MET:49>  (227) 
0

>  <halogenbond:GLU:104>  (227) 
0

>  <hydroph_interaction:LYS:107>  (227) 
0

$$$$
XSALUZVOKIZVBY-UHFFFAOYSA-N
     RDKit          3D

 44 48  0  0  0  0  0  0  0  0999 V2000
   -9.0639    6.2658  -14.3303 C   0  0  0  0  0  0  0  0  0  0  0  0
   -8.3267    5.7023  -15.4256 N   0  0  0  0  0  0  0  0  0  0  0  0
   -8.6957    5.7077  -16.8115 C   0  0  0  0  0  0  0  0  0  0  0  0
   -9.9421    5.9347  -17.4041 C   0  0  0  0  0  0  0  0  0  0  0  0
  -10.0296    5.8630  -18.8155 C   0  0  0  0  0  0  0  0  0  0  0  0
   -8.8859    5.5663  -19.6026 C   0  0  0  0  0  0  0  0  0  0  0  0
   -7.6478    5.3369  -18.9732 C   0  0  0  0  0  0  0  0  0  0  0  0
   -7.6143    5.4142  -17.5923 C   0  0  0  0  0  0  0  0  0  0  0  0
   -6.4914    5.2228  -16.8473 C   0  0  0  0  0  0  0  0  0  0  0  0
   -5.2727    4.9349  -17.4620 C   0  0  0  0  0  0  0  0  0  0  0  0
   -5.2544    4.8398  -18.8748 C   0  0  0  0  0  0  0  0  0  0  0  0
   -6.4390    5.0395  -19.6333 C   0  0  0  0  0  0  0  0  0  0  0  0
   -6.9136    5.4220  -15.4628 C   0  0  0  0  0  0  0  0  0  0  0  0
   -6.1547    5.4254  -14.4576 O   0  0  0  0  0  0  0  0  0  0  0  0
   -9.8723    7.2083  -14.5493 O   0  0  0  0  0  0  0  0  0  0  0  0
   -8.8949    5.7572  -12.9501 C   0  0  0  0  0  0  0  0  0  0  0  0
   -9.1933    6.5716  -11.8476 C   0  0  0  0  0  0  0  0  0  0  0  0
   -9.0445    6.0808  -10.5496 C   0  0  0  0  0  0  0  0  0  0  0  0
   -8.5965    4.7660  -10.3535 C   0  0  0  0  0  0  0  0  0  0  0  0
   -8.4428    4.2244   -9.0277 N   0  0  0  0  0  0  0  0  0  0  0  0
   -8.6224    2.7845   -8.8183 C   0  0  0  0  0  0  0  0  0  0  0  0
   -8.9970    2.5138   -7.3578 C   0  0  0  0  0  0  0  0  0  0  0  0
   -8.0687    3.1208   -6.4792 O   0  0  0  0  0  0  0  0  0  0  0  0
   -8.1358    4.5280   -6.6118 C   0  0  0  0  0  0  0  0  0  0  0  0
   -7.6872    4.9645   -8.0097 C   0  0  0  0  0  0  0  0  0  0  0  0
   -8.3407    3.9827  -11.4381 N   0  0  0  0  0  0  0  0  0  0  0  0
   -8.4768    4.4389  -12.7111 C   0  0  0  0  0  0  0  0  0  0  0  0
  -10.8177    6.1507  -16.8071 H   0  0  0  0  0  0  0  0  0  0  0  0
  -10.9816    6.0348  -19.3005 H   0  0  0  0  0  0  0  0  0  0  0  0
   -8.9713    5.5175  -20.6809 H   0  0  0  0  0  0  0  0  0  0  0  0
   -4.3726    4.7903  -16.8792 H   0  0  0  0  0  0  0  0  0  0  0  0
   -4.3257    4.6154  -19.3829 H   0  0  0  0  0  0  0  0  0  0  0  0
   -6.4066    4.9661  -20.7131 H   0  0  0  0  0  0  0  0  0  0  0  0
   -9.5383    7.5883  -11.9894 H   0  0  0  0  0  0  0  0  0  0  0  0
   -9.3019    6.7149   -9.7118 H   0  0  0  0  0  0  0  0  0  0  0  0
   -7.6759    2.2560   -9.0648 H   0  0  0  0  0  0  0  0  0  0  0  0
   -9.4316    2.3952   -9.4744 H   0  0  0  0  0  0  0  0  0  0  0  0
  -10.0343    2.8637   -7.1507 H   0  0  0  0  0  0  0  0  0  0  0  0
   -8.9828    1.4172   -7.1842 H   0  0  0  0  0  0  0  0  0  0  0  0
   -9.1624    4.9041   -6.3974 H   0  0  0  0  0  0  0  0  0  0  0  0
   -7.4579    4.9861   -5.8612 H   0  0  0  0  0  0  0  0  0  0  0  0
   -6.6038    4.7489   -8.1338 H   0  0  0  0  0  0  0  0  0  0  0  0
   -7.8353    6.0595   -8.1066 H   0  0  0  0  0  0  0  0  0  0  0  0
   -8.2728    3.7655  -13.5332 H   0  0  0  0  0  0  0  0  0  0  0  0
  1  2  1  0
  2  3  1  0
  3  4  2  0
  4  5  1  0
  5  6  2  0
  6  7  1  0
  7  8  2  0
  8  9  1  0
  9 10  2  0
 10 11  1  0
 11 12  2  0
  9 13  1  0
 13 14  2  0
  1 15  2  0
  1 16  1  0
 16 17  2  0
 17 18  1  0
 18 19  2  0
 19 20  1  0
 20 21  1  0
 21 22  1  0
 22 23  1  0
 23 24  1  0
 24 25  1  0
 19 26  1  0
 26 27  2  0
 13  2  1  0
  8  3  1  0
  7 12  1  0
 27 16  1  0
 25 20  1  0
  4 28  1  0
  5 29  1  0
  6 30  1  0
 10 31  1  0
 11 32  1  0
 12 33  1  0
 17 34  1  0
 18 35  1  0
 21 36  1  0
 21 37  1  0
 22 38  1  0
 22 39  1  0
 24 40  1  0
 24 41  1  0
 25 42  1  0
 25 43  1  0
 27 44  1  0
A    1
 C1 
A    2
 N1 
A    3
 C2 
A    4
 C3 
A    5
 C4 
A    6
 C5 
A    7
 C6 
A    8
 C7 
A    9
 C8 
A   10
 C9 
A   11
 C10
A   12
 C11
A   13
 C12
A   14
 O1 
A   15
 O2 
A   16
 C13
A   17
 C14
A   18
 C15
A   19
 C16
A   20
 N2 
A   21
 C17
A   22
 C18
A   23
 O3 
A   24
 C19
A   25
 C20
A   26
 N3 
A   27
 C21
A   28
 H1 
A   29
 H2 
A   30
 H3 
A   31
 H4 
A   32
 H5 
A   33
 H6 
A   34
 H7 
A   35
 H8 
A   36
 H9 
A   37
 H10
A   38
 H11
A   39
 H12
A   40
 H13
A   41
 H14
A   42
 H15
A   43
 H16
A   44
 H17
M  END
>  <ref_pdb>  (228) 
x0051_0B

>  <ref_mols>  (228) 
x0727_0B,x0404_0B

>  <original SMILES>  (228) 
[H]c1nc(N2C([H])([H])C([H])([H])OC([H])([H])C2([H])[H])c([H])c([H])c1C(=O)N1C(=O)c2c([H])c([H])c([H])c3c([H])c([H])c([H])c1c23

>  <index>  (228) 
487

>  <∆∆G>  (228) 
-8.176912

>  <∆G_bound>  (228) 
-7.765244

>  <∆G_unbound>  (228) 
0.411668

>  <comRMSD>  (228) 
0.603351

>  <N_constrained_atoms>  (228) 
26.0

>  <N_unconstrained_atoms>  (228) 
1.0

>  <runtime>  (228) 
101.869813

>  <LE>  (228) 
0.302849

>  <percent_hybrid>  (228) 
47.0

>  <dist>  (228) 
10.0

>  <ecfp4>  (228) 
0.207317

>  <daylight>  (228) 
0.25498

>  <topodist>  (228) 
3.0

>  <mces>  (228) 
30.0

>  <tdn>  (228) 
1.0

>  <tup>  (228) 
0.0

>  <rdn>  (228) 
0.0

>  <rup>  (228) 
1.0

>  <ldn>  (228) 
1.0

>  <lup>  (228) 
0.0

>  <mut>  (228) 
6.0

>  <maj>  (228) 
6.0

>  <min>  (228) 
0.0

>  <hyb>  (228) 
1.0

>  <sub>  (228) 
0.0

>  <query_index>  (228) 
0.0

>  <max_hit_Tanimoto>  (228) 
0.208294

>  <largest_ring>  (228) 
6

>  <N_interactions_kept>  (228) 
1.5

>  <N_interactions_lost>  (228) 
3.0

>  <interaction_uniqueness_metric>  (228) 
0.073289

>  <ad_hoc_penalty>  (228) 
-23.498865

>  <N_rotatable_bonds>  (228) 
2

>  <N_HA>  (228) 
27

>  <cluster>  (228) 
5774

>  <N_interactions>  (228) 
6

>  <Enamine>  (228) 
0

>  <Mcule>  (228) 
1

>  <N_PAINS>  (228) 
0

>  <UFF_Gibbs>  (228) 
37.960332

>  <strain_per_HA>  (228) 
1.405938

>  <saltbridge:HIS:51>  (228) 
0

>  <pistack:HIS:51>  (228) 
1

>  <hydroph_interaction:HIS:51>  (228) 
0

>  <hbond:ALA:132>  (228) 
0

>  <hbond:SER:135>  (228) 
0

>  <hydroph_interaction:TYR:150>  (228) 
1

>  <pistack:TYR:161>  (228) 
1

>  <hydroph_interaction:TYR:161>  (228) 
3

>  <hydroph_interaction:ASP:83>  (228) 
0

>  <hbond:TYR:130>  (228) 
0

>  <hydroph_interaction:ALA:132>  (228) 
0

>  <hbond:HIS:51>  (228) 
0

>  <hbond:ASP:129>  (228) 
0

>  <hbond:TYR:150>  (228) 
0

>  <hbond:GLY:151>  (228) 
0

>  <hbond:TYR:161>  (228) 
0

>  <hydroph_interaction:TYR:130>  (228) 
0

>  <hydroph_interaction:PRO:131>  (228) 
0

>  <hydroph_interaction:ASP:129>  (228) 
0

>  <saltbridge:ASP:75>  (228) 
0

>  <saltbridge:ASP:83>  (228) 
0

>  <hydroph_interaction:ASN:152>  (228) 
0

>  <halogenbond:TYR:150>  (228) 
0

>  <hbond:ASP:83>  (228) 
0

>  <hydroph_interaction:VAL:155>  (228) 
0

>  <pication:TYR:161>  (228) 
0

>  <hbond:PRO:131>  (228) 
0

>  <hbond:LEU:128>  (228) 
0

>  <saltbridge:ASP:129>  (228) 
0

>  <hbond:THR:134>  (228) 
0

>  <pication:HIS:51>  (228) 
0

>  <hbond:SER:81>  (228) 
0

>  <hbond:GLY:159>  (228) 
0

>  <hydroph_interaction:PRO:101>  (228) 
0

>  <hydroph_interaction:THR:134>  (228) 
0

>  <hbond:GLY:82>  (228) 
0

>  <hydroph_interaction:GLU:104>  (228) 
0

>  <hydroph_interaction:VAL:36>  (228) 
0

>  <hydroph_interaction:MET:49>  (228) 
0

>  <halogenbond:GLU:104>  (228) 
0

>  <hydroph_interaction:LYS:107>  (228) 
0

$$$$
LHNGKXLBQHDPFT-UHFFFAOYSA-N
     RDKit          3D

 39 42  0  0  0  0  0  0  0  0999 V2000
   -7.3082    4.9618  -12.0054 C   0  0  0  0  0  0  0  0  0  0  0  0
   -7.7442    3.9520  -12.9276 N   0  0  0  0  0  0  0  0  0  0  0  0
   -6.8843    3.4478  -13.9951 C   0  0  0  0  0  0  0  0  0  0  0  0
   -6.7535    4.4693  -15.0816 C   0  0  0  0  0  0  0  0  0  0  0  0
   -7.7492    4.9095  -15.9299 C   0  0  0  0  0  0  0  0  0  0  0  0
   -7.1552    5.8621  -16.7070 C   0  0  0  0  0  0  0  0  0  0  0  0
   -7.8564    6.5508  -17.6942 C   0  0  0  0  0  0  0  0  0  0  0  0
   -9.2167    6.2306  -17.8698 C   0  0  0  0  0  0  0  0  0  0  0  0
   -9.8320    5.2446  -17.0627 C   0  0  0  0  0  0  0  0  0  0  0  0
   -9.0927    4.5684  -16.0732 C   0  0  0  0  0  0  0  0  0  0  0  0
   -5.8679    5.9972  -16.3495 N   0  0  0  0  0  0  0  0  0  0  0  0
   -5.6154    5.1529  -15.3547 N   0  0  0  0  0  0  0  0  0  0  0  0
   -6.2046    5.5433  -12.1902 O   0  0  0  0  0  0  0  0  0  0  0  0
   -8.1413    5.3658  -10.8558 C   0  0  0  0  0  0  0  0  0  0  0  0
   -9.0946    4.6449  -10.1524 C   0  0  0  0  0  0  0  0  0  0  0  0
   -9.5732    5.4275   -9.1660 N   0  0  0  0  0  0  0  0  0  0  0  0
  -10.5161    5.0081   -8.1297 C   0  0  0  0  0  0  0  0  0  0  0  0
  -11.2546    3.7267   -8.5463 C   0  0  0  0  0  0  0  0  0  0  0  0
  -10.2723    2.6971   -9.1251 C   0  0  0  0  0  0  0  0  0  0  0  0
   -9.5775    3.2405  -10.3824 C   0  0  0  0  0  0  0  0  0  0  0  0
   -8.9491    6.5939   -9.1701 N   0  0  0  0  0  0  0  0  0  0  0  0
   -8.0725    6.5825  -10.1948 C   0  0  0  0  0  0  0  0  0  0  0  0
   -8.7306    3.6156  -12.9007 H   0  0  0  0  0  0  0  0  0  0  0  0
   -7.3294    2.5243  -14.4237 H   0  0  0  0  0  0  0  0  0  0  0  0
   -5.8852    3.1853  -13.5853 H   0  0  0  0  0  0  0  0  0  0  0  0
   -7.3754    7.3053  -18.3029 H   0  0  0  0  0  0  0  0  0  0  0  0
   -9.7956    6.7435  -18.6268 H   0  0  0  0  0  0  0  0  0  0  0  0
  -10.8783    5.0085  -17.2062 H   0  0  0  0  0  0  0  0  0  0  0  0
   -9.5531    3.8134  -15.4494 H   0  0  0  0  0  0  0  0  0  0  0  0
   -5.1678    6.6518  -16.7635 H   0  0  0  0  0  0  0  0  0  0  0  0
   -9.9558    4.8201   -7.1884 H   0  0  0  0  0  0  0  0  0  0  0  0
  -11.2534    5.8183   -7.9438 H   0  0  0  0  0  0  0  0  0  0  0  0
  -11.7710    3.2939   -7.6626 H   0  0  0  0  0  0  0  0  0  0  0  0
  -12.0248    3.9733   -9.3099 H   0  0  0  0  0  0  0  0  0  0  0  0
   -9.5082    2.4426   -8.3577 H   0  0  0  0  0  0  0  0  0  0  0  0
  -10.8211    1.7658   -9.3827 H   0  0  0  0  0  0  0  0  0  0  0  0
   -8.7230    2.5801  -10.6426 H   0  0  0  0  0  0  0  0  0  0  0  0
  -10.3053    3.2446  -11.2215 H   0  0  0  0  0  0  0  0  0  0  0  0
   -7.4192    7.4090  -10.4418 H   0  0  0  0  0  0  0  0  0  0  0  0
  1  2  1  0
  2  3  1  0
  3  4  1  0
  4  5  1  0
  5  6  1  0
  6  7  2  0
  7  8  1  0
  8  9  2  0
  9 10  1  0
  6 11  1  0
 11 12  1  0
  1 13  2  0
  1 14  1  0
 14 15  2  0
 15 16  1  0
 16 17  1  0
 17 18  1  0
 18 19  1  0
 19 20  1  0
 16 21  1  0
 21 22  2  0
  4 12  2  0
 10  5  2  0
 22 14  1  0
 20 15  1  0
  2 23  1  0
  3 24  1  0
  3 25  1  0
  7 26  1  0
  8 27  1  0
  9 28  1  0
 10 29  1  0
 11 30  1  0
 17 31  1  0
 17 32  1  0
 18 33  1  0
 18 34  1  0
 19 35  1  0
 19 36  1  0
 20 37  1  0
 20 38  1  0
 22 39  1  0
A    1
 C1 
A    2
 N1 
A    3
 C2 
A    4
 C3 
A    5
 C4 
A    6
 C5 
A    7
 C6 
A    8
 C7 
A    9
 C8 
A   10
 C9 
A   11
 N2 
A   12
 N3 
A   13
 O1 
A   14
 C10
A   15
 C11
A   16
 N4 
A   17
 C12
A   18
 C13
A   19
 C14
A   20
 C15
A   21
 N5 
A   22
 C16
A   23
 H1 
A   24
 H2 
A   25
 H3 
A   26
 H4 
A   27
 H5 
A   28
 H6 
A   29
 H7 
A   30
 H8 
A   31
 H9 
A   32
 H10
A   33
 H11
A   34
 H12
A   35
 H13
A   36
 H14
A   37
 H15
A   38
 H16
A   39
 H17
M  END
>  <ref_pdb>  (229) 
x0051_0B

>  <ref_mols>  (229) 
x0951_0B,x0969_1B

>  <original SMILES>  (229) 
[H]c1nn2c(c1C(=O)N([H])C([H])([H])c1nn([H])c3c([H])c([H])c([H])c([H])c13)C([H])([H])C([H])([H])C([H])([H])C2([H])[H]

>  <index>  (229) 
408

>  <∆∆G>  (229) 
-6.161338

>  <∆G_bound>  (229) 
-5.605573

>  <∆G_unbound>  (229) 
0.555765

>  <comRMSD>  (229) 
0.467475

>  <N_constrained_atoms>  (229) 
22.0

>  <N_unconstrained_atoms>  (229) 
1.0

>  <runtime>  (229) 
55.734247

>  <LE>  (229) 
0.267884

>  <percent_hybrid>  (229) 
46.0

>  <dist>  (229) 
6.0

>  <ecfp4>  (229) 
0.170732

>  <daylight>  (229) 
0.320635

>  <topodist>  (229) 
1.0

>  <mces>  (229) 
24.0

>  <tdn>  (229) 
0.0

>  <tup>  (229) 
0.0

>  <rdn>  (229) 
0.0

>  <rup>  (229) 
0.0

>  <ldn>  (229) 
0.0

>  <lup>  (229) 
1.0

>  <mut>  (229) 
4.0

>  <maj>  (229) 
4.0

>  <min>  (229) 
0.0

>  <hyb>  (229) 
1.0

>  <sub>  (229) 
0.0

>  <query_index>  (229) 
201.0

>  <max_hit_Tanimoto>  (229) 
0.348771

>  <largest_ring>  (229) 
6

>  <N_interactions_kept>  (229) 
1.0

>  <N_interactions_lost>  (229) 
2.0

>  <interaction_uniqueness_metric>  (229) 
0.173507

>  <ad_hoc_penalty>  (229) 
-23.448571

>  <N_rotatable_bonds>  (229) 
3

>  <N_HA>  (229) 
22

>  <cluster>  (229) 
5846

>  <N_interactions>  (229) 
6

>  <Enamine>  (229) 
0

>  <Mcule>  (229) 
1

>  <N_PAINS>  (229) 
0

>  <UFF_Gibbs>  (229) 
86.350176

>  <strain_per_HA>  (229) 
3.754355

>  <saltbridge:HIS:51>  (229) 
0

>  <pistack:HIS:51>  (229) 
1

>  <hydroph_interaction:HIS:51>  (229) 
1

>  <hbond:ALA:132>  (229) 
0

>  <hbond:SER:135>  (229) 
0

>  <hydroph_interaction:TYR:150>  (229) 
1

>  <pistack:TYR:161>  (229) 
2

>  <hydroph_interaction:TYR:161>  (229) 
0

>  <hydroph_interaction:ASP:83>  (229) 
0

>  <hbond:TYR:130>  (229) 
0

>  <hydroph_interaction:ALA:132>  (229) 
0

>  <hbond:HIS:51>  (229) 
1

>  <hbond:ASP:129>  (229) 
0

>  <hbond:TYR:150>  (229) 
0

>  <hbond:GLY:151>  (229) 
0

>  <hbond:TYR:161>  (229) 
0

>  <hydroph_interaction:TYR:130>  (229) 
0

>  <hydroph_interaction:PRO:131>  (229) 
0

>  <hydroph_interaction:ASP:129>  (229) 
0

>  <saltbridge:ASP:75>  (229) 
0

>  <saltbridge:ASP:83>  (229) 
0

>  <hydroph_interaction:ASN:152>  (229) 
0

>  <halogenbond:TYR:150>  (229) 
0

>  <hbond:ASP:83>  (229) 
0

>  <hydroph_interaction:VAL:155>  (229) 
0

>  <pication:TYR:161>  (229) 
0

>  <hbond:PRO:131>  (229) 
0

>  <hbond:LEU:128>  (229) 
0

>  <saltbridge:ASP:129>  (229) 
0

>  <hbond:THR:134>  (229) 
0

>  <pication:HIS:51>  (229) 
0

>  <hbond:SER:81>  (229) 
0

>  <hbond:GLY:159>  (229) 
0

>  <hydroph_interaction:PRO:101>  (229) 
0

>  <hydroph_interaction:THR:134>  (229) 
0

>  <hbond:GLY:82>  (229) 
0

>  <hydroph_interaction:GLU:104>  (229) 
0

>  <hydroph_interaction:VAL:36>  (229) 
0

>  <hydroph_interaction:MET:49>  (229) 
0

>  <halogenbond:GLU:104>  (229) 
0

>  <hydroph_interaction:LYS:107>  (229) 
0

$$$$
CSSB00015213507
     RDKit          3D

 23 25  0  0  0  0  0  0  0  0999 V2000
   -5.5506    5.6785  -15.8140 C   0  0  0  0  0  0  0  0  0  0  0  0
   -6.6414    5.5292  -14.7838 C   0  0  0  0  0  0  0  0  0  0  0  0
   -7.9112    5.2732  -15.1064 C   0  0  0  0  0  0  0  0  0  0  0  0
   -8.3237    5.1196  -16.5128 C   0  0  0  0  0  0  0  0  0  0  0  0
   -9.6635    4.8509  -16.8276 C   0  0  0  0  0  0  0  0  0  0  0  0
  -10.0592    4.7045  -18.1595 C   0  0  0  0  0  0  0  0  0  0  0  0
   -9.1239    4.8246  -19.1901 C   0  0  0  0  0  0  0  0  0  0  0  0
   -7.7793    5.0932  -18.8937 C   0  0  0  0  0  0  0  0  0  0  0  0
   -6.8327    5.2156  -19.9210 C   0  0  0  0  0  0  0  0  0  0  0  0
   -5.4968    5.4832  -19.6152 C   0  0  0  0  0  0  0  0  0  0  0  0
   -5.0933    5.6308  -18.2860 C   0  0  0  0  0  0  0  0  0  0  0  0
   -6.0227    5.5126  -17.2417 C   0  0  0  0  0  0  0  0  0  0  0  0
   -7.3740    5.2423  -17.5443 C   0  0  0  0  0  0  0  0  0  0  0  0
   -5.0980    6.6864  -15.6992 H   0  0  0  0  0  0  0  0  0  0  0  0
   -4.7662    4.9207  -15.6038 H   0  0  0  0  0  0  0  0  0  0  0  0
   -6.3776    5.6353  -13.7390 H   0  0  0  0  0  0  0  0  0  0  0  0
   -8.6465    5.1777  -14.3164 H   0  0  0  0  0  0  0  0  0  0  0  0
  -10.4031    4.7543  -16.0422 H   0  0  0  0  0  0  0  0  0  0  0  0
  -11.0953    4.4971  -18.3939 H   0  0  0  0  0  0  0  0  0  0  0  0
   -9.4507    4.7077  -20.2166 H   0  0  0  0  0  0  0  0  0  0  0  0
   -7.1254    5.1045  -20.9583 H   0  0  0  0  0  0  0  0  0  0  0  0
   -4.7702    5.5766  -20.4120 H   0  0  0  0  0  0  0  0  0  0  0  0
   -4.0526    5.8382  -18.0685 H   0  0  0  0  0  0  0  0  0  0  0  0
  1  2  1  0
  2  3  2  0
  3  4  1  0
  4  5  1  0
  5  6  2  0
  6  7  1  0
  7  8  2  0
  8  9  1  0
  9 10  2  0
 10 11  1  0
 11 12  2  0
 12 13  1  0
 12  1  1  0
 13  4  2  0
 13  8  1  0
  1 14  1  0
  1 15  1  0
  2 16  1  0
  3 17  1  0
  5 18  1  0
  6 19  1  0
  7 20  1  0
  9 21  1  0
 10 22  1  0
 11 23  1  0
A    1
 C1 
A    2
 C2 
A    3
 C3 
A    4
 C4 
A    5
 C5 
A    6
 C6 
A    7
 C7 
A    8
 C8 
A    9
 C9 
A   10
 C10
A   11
 C11
A   12
 C12
A   13
 C13
A   14
 H1 
A   15
 H2 
A   16
 H3 
A   17
 H4 
A   18
 H5 
A   19
 H6 
A   20
 H7 
A   21
 H8 
A   22
 H9 
A   23
 H10
M  END
>  <ref_pdb>  (230) 
x0051_0B

>  <ref_mols>  (230) 
x0727_0B,x0455_0B

>  <original SMILES>  (230) 
[H]C1=C([H])C([H])([H])c2c([H])c([H])c([H])c3c([H])c([H])c([H])c1c23

>  <index>  (230) 
467

>  <∆∆G>  (230) 
-6.982584

>  <∆G_bound>  (230) 
-6.97662

>  <∆G_unbound>  (230) 
0.005964

>  <comRMSD>  (230) 
0.390878

>  <N_constrained_atoms>  (230) 
14.0

>  <N_unconstrained_atoms>  (230) 
0.0

>  <runtime>  (230) 
18.0905

>  <LE>  (230) 
0.498756

>  <percent_hybrid>  (230) 
34.0

>  <dist>  (230) 
4.0

>  <ecfp4>  (230) 
0.255814

>  <daylight>  (230) 
0.236364

>  <topodist>  (230) 
1.0

>  <mces>  (230) 
15.0

>  <tdn>  (230) 
1.0

>  <tup>  (230) 
0.0

>  <rdn>  (230) 
0.0

>  <rup>  (230) 
0.0

>  <ldn>  (230) 
0.0

>  <lup>  (230) 
0.0

>  <mut>  (230) 
1.0

>  <maj>  (230) 
1.0

>  <min>  (230) 
0.0

>  <hyb>  (230) 
2.0

>  <sub>  (230) 
1.0

>  <query_index>  (230) 
57.0

>  <max_hit_Tanimoto>  (230) 
0.160714

>  <largest_ring>  (230) 
6

>  <N_interactions_kept>  (230) 
0.0

>  <N_interactions_lost>  (230) 
3.0

>  <interaction_uniqueness_metric>  (230) 
0.050285

>  <ad_hoc_penalty>  (230) 
-23.354129

>  <N_rotatable_bonds>  (230) 
0

>  <N_HA>  (230) 
13

>  <cluster>  (230) 
5794

>  <N_interactions>  (230) 
6

>  <Enamine>  (230) 
1

>  <Mcule>  (230) 
0

>  <N_PAINS>  (230) 
0

>  <UFF_Gibbs>  (230) 
21.840526

>  <strain_per_HA>  (230) 
1.560038

>  <saltbridge:HIS:51>  (230) 
0

>  <pistack:HIS:51>  (230) 
0

>  <hydroph_interaction:HIS:51>  (230) 
0

>  <hbond:ALA:132>  (230) 
0

>  <hbond:SER:135>  (230) 
0

>  <hydroph_interaction:TYR:150>  (230) 
1

>  <pistack:TYR:161>  (230) 
2

>  <hydroph_interaction:TYR:161>  (230) 
3

>  <hydroph_interaction:ASP:83>  (230) 
0

>  <hbond:TYR:130>  (230) 
0

>  <hydroph_interaction:ALA:132>  (230) 
0

>  <hbond:HIS:51>  (230) 
0

>  <hbond:ASP:129>  (230) 
0

>  <hbond:TYR:150>  (230) 
0

>  <hbond:GLY:151>  (230) 
0

>  <hbond:TYR:161>  (230) 
0

>  <hydroph_interaction:TYR:130>  (230) 
0

>  <hydroph_interaction:PRO:131>  (230) 
0

>  <hydroph_interaction:ASP:129>  (230) 
0

>  <saltbridge:ASP:75>  (230) 
0

>  <saltbridge:ASP:83>  (230) 
0

>  <hydroph_interaction:ASN:152>  (230) 
0

>  <halogenbond:TYR:150>  (230) 
0

>  <hbond:ASP:83>  (230) 
0

>  <hydroph_interaction:VAL:155>  (230) 
0

>  <pication:TYR:161>  (230) 
0

>  <hbond:PRO:131>  (230) 
0

>  <hbond:LEU:128>  (230) 
0

>  <saltbridge:ASP:129>  (230) 
0

>  <hbond:THR:134>  (230) 
0

>  <pication:HIS:51>  (230) 
0

>  <hbond:SER:81>  (230) 
0

>  <hbond:GLY:159>  (230) 
0

>  <hydroph_interaction:PRO:101>  (230) 
0

>  <hydroph_interaction:THR:134>  (230) 
0

>  <hbond:GLY:82>  (230) 
0

>  <hydroph_interaction:GLU:104>  (230) 
0

>  <hydroph_interaction:VAL:36>  (230) 
0

>  <hydroph_interaction:MET:49>  (230) 
0

>  <halogenbond:GLU:104>  (230) 
0

>  <hydroph_interaction:LYS:107>  (230) 
0

$$$$
Z1256088212
     RDKit          3D

 49 52  0  0  0  0  0  0  0  0999 V2000
   -9.5858    6.5828  -16.6074 N   0  0  0  0  0  0  0  0  0  0  0  0
   -8.3703    5.9400  -16.9885 C   0  0  0  0  0  0  0  0  0  0  0  0
   -7.7884    5.1804  -16.1682 O   0  0  0  0  0  0  0  0  0  0  0  0
   -7.8446    6.1325  -18.3107 N   0  0  0  0  0  0  0  0  0  0  0  0
   -6.5366    5.7088  -18.7340 C   0  0  0  0  0  0  0  0  0  0  0  0
   -5.4376    5.7288  -17.8570 C   0  0  0  0  0  0  0  0  0  0  0  0
   -4.1757    5.3256  -18.3004 C   0  0  0  0  0  0  0  0  0  0  0  0
   -3.9917    4.9221  -19.6247 C   0  0  0  0  0  0  0  0  0  0  0  0
   -5.0649    4.9379  -20.5260 C   0  0  0  0  0  0  0  0  0  0  0  0
   -4.8486    4.5279  -21.8880 N   0  0  0  0  0  0  0  0  0  0  0  0
   -5.6587    4.9473  -22.9976 C   0  0  0  0  0  0  0  0  0  0  0  0
   -5.8838    4.1286  -23.9288 O   0  0  0  0  0  0  0  0  0  0  0  0
   -6.1948    6.3257  -23.0976 C   0  0  0  0  0  0  0  0  0  0  0  0
   -7.3882    6.5692  -23.7992 C   0  0  0  0  0  0  0  0  0  0  0  0
   -7.9012    7.8659  -23.8925 C   0  0  0  0  0  0  0  0  0  0  0  0
   -7.2184    8.9365  -23.3044 C   0  0  0  0  0  0  0  0  0  0  0  0
   -7.8711   10.6041  -23.4392 S   0  0  0  0  0  0  0  0  0  0  0  0
   -6.9151   11.0300  -24.9363 C   0  0  0  0  0  0  0  0  0  0  0  0
   -7.4174   10.2630  -26.1176 C   0  0  0  0  0  0  0  0  0  0  0  0
   -6.7416    9.2138  -26.6589 N   0  0  0  0  0  0  0  0  0  0  0  0
   -7.5776    8.7912  -27.6236 C   0  0  0  0  0  0  0  0  0  0  0  0
   -7.3981    7.7226  -28.4990 C   0  0  0  0  0  0  0  0  0  0  0  0
   -8.4265    7.4552  -29.4232 C   0  0  0  0  0  0  0  0  0  0  0  0
   -9.5956    8.2513  -29.4442 C   0  0  0  0  0  0  0  0  0  0  0  0
   -9.7455    9.3215  -28.5416 C   0  0  0  0  0  0  0  0  0  0  0  0
   -8.7050    9.5573  -27.6464 C   0  0  0  0  0  0  0  0  0  0  0  0
   -8.6217   10.4954  -26.6958 N   0  0  0  0  0  0  0  0  0  0  0  0
   -6.0277    8.7039  -22.6093 C   0  0  0  0  0  0  0  0  0  0  0  0
   -5.5141    7.4076  -22.5108 C   0  0  0  0  0  0  0  0  0  0  0  0
   -6.3394    5.3216  -20.0686 C   0  0  0  0  0  0  0  0  0  0  0  0
   -9.9803    6.4423  -15.6507 H   0  0  0  0  0  0  0  0  0  0  0  0
  -10.0876    7.2086  -17.2754 H   0  0  0  0  0  0  0  0  0  0  0  0
   -8.4860    6.5376  -19.0301 H   0  0  0  0  0  0  0  0  0  0  0  0
   -5.5454    6.0756  -16.8384 H   0  0  0  0  0  0  0  0  0  0  0  0
   -3.3352    5.3368  -17.6185 H   0  0  0  0  0  0  0  0  0  0  0  0
   -3.0067    4.6173  -19.9559 H   0  0  0  0  0  0  0  0  0  0  0  0
   -4.0891    3.8358  -22.0797 H   0  0  0  0  0  0  0  0  0  0  0  0
   -7.9309    5.7546  -24.2628 H   0  0  0  0  0  0  0  0  0  0  0  0
   -8.8241    8.0392  -24.4317 H   0  0  0  0  0  0  0  0  0  0  0  0
   -5.8356   10.8253  -24.7719 H   0  0  0  0  0  0  0  0  0  0  0  0
   -7.0326   12.1158  -25.1344 H   0  0  0  0  0  0  0  0  0  0  0  0
   -6.5009    7.1181  -28.4697 H   0  0  0  0  0  0  0  0  0  0  0  0
   -8.3216    6.6351  -30.1207 H   0  0  0  0  0  0  0  0  0  0  0  0
  -10.3805    8.0357  -30.1575 H   0  0  0  0  0  0  0  0  0  0  0  0
  -10.6362    9.9363  -28.5436 H   0  0  0  0  0  0  0  0  0  0  0  0
   -9.3282   11.2223  -26.4443 H   0  0  0  0  0  0  0  0  0  0  0  0
   -5.4937    9.5280  -22.1534 H   0  0  0  0  0  0  0  0  0  0  0  0
   -4.5786    7.2548  -21.9881 H   0  0  0  0  0  0  0  0  0  0  0  0
   -7.1873    5.3021  -20.7411 H   0  0  0  0  0  0  0  0  0  0  0  0
  1  2  1  0
  2  3  2  0
  2  4  1  0
  4  5  1  0
  5  6  2  0
  6  7  1  0
  7  8  2  0
  8  9  1  0
  9 10  1  0
 10 11  1  0
 11 12  2  0
 11 13  1  0
 13 14  2  0
 14 15  1  0
 15 16  2  0
 16 17  1  0
 17 18  1  0
 18 19  1  0
 19 20  2  0
 20 21  1  0
 21 22  2  0
 22 23  1  0
 23 24  2  0
 24 25  1  0
 25 26  2  0
 26 27  1  0
 16 28  1  0
 28 29  2  0
  9 30  2  0
 30  5  1  0
 29 13  1  0
 27 19  1  0
 26 21  1  0
  1 31  1  0
  1 32  1  0
  4 33  1  0
  6 34  1  0
  7 35  1  0
  8 36  1  0
 10 37  1  0
 14 38  1  0
 15 39  1  0
 18 40  1  0
 18 41  1  0
 22 42  1  0
 23 43  1  0
 24 44  1  0
 25 45  1  0
 27 46  1  0
 28 47  1  0
 29 48  1  0
 30 49  1  0
A    1
 N1 
A    2
 C1 
A    3
 O1 
A    4
 N2 
A    5
 C2 
A    6
 C3 
A    7
 C4 
A    8
 C5 
A    9
 C6 
A   10
 N3 
A   11
 C7 
A   12
 O2 
A   13
 C8 
A   14
 C9 
A   15
 C10
A   16
 C11
A   17
 S1 
A   18
 C12
A   19
 C13
A   20
 N4 
A   21
 C14
A   22
 C15
A   23
 C16
A   24
 C17
A   25
 C18
A   26
 C19
A   27
 N5 
A   28
 C20
A   29
 C21
A   30
 C22
A   31
 H1 
A   32
 H2 
A   33
 H3 
A   34
 H4 
A   35
 H5 
A   36
 H6 
A   37
 H7 
A   38
 H8 
A   39
 H9 
A   40
 H10
A   41
 H11
A   42
 H12
A   43
 H13
A   44
 H14
A   45
 H15
A   46
 H16
A   47
 H17
A   48
 H18
A   49
 H19
M  END
>  <ref_pdb>  (231) 
x0051_0B

>  <ref_mols>  (231) 
x0846_1B,x0680_0B

>  <original SMILES>  (231) 
[H]c1c([H])c(N([H])C(=O)c2c([H])c([H])c(SC([H])([H])c3nc4c([H])c([H])c([H])c([H])c4n3[H])c([H])c2[H])c([H])c(N([H])C(=O)N([H])[H])c1[H]

>  <index>  (231) 
287

>  <∆∆G>  (231) 
-7.540854

>  <∆G_bound>  (231) 
-6.744474

>  <∆G_unbound>  (231) 
0.79638

>  <comRMSD>  (231) 
0.650011

>  <N_constrained_atoms>  (231) 
29.0

>  <N_unconstrained_atoms>  (231) 
2.0

>  <runtime>  (231) 
46.538776

>  <LE>  (231) 
0.243253

>  <percent_hybrid>  (231) 
38.0

>  <dist>  (231) 
8.0

>  <ecfp4>  (231) 
0.22093

>  <daylight>  (231) 
0.422111

>  <topodist>  (231) 
4.0

>  <mces>  (231) 
31.0

>  <tdn>  (231) 
2.0

>  <tup>  (231) 
1.0

>  <rdn>  (231) 
0.0

>  <rup>  (231) 
0.0

>  <ldn>  (231) 
0.0

>  <lup>  (231) 
1.0

>  <mut>  (231) 
4.0

>  <maj>  (231) 
4.0

>  <min>  (231) 
0.0

>  <hyb>  (231) 
0.0

>  <sub>  (231) 
2.0

>  <query_index>  (231) 
100.0

>  <max_hit_Tanimoto>  (231) 
0.3137

>  <largest_ring>  (231) 
6

>  <N_interactions_kept>  (231) 
1.5

>  <N_interactions_lost>  (231) 
2.5

>  <interaction_uniqueness_metric>  (231) 
0.281715

>  <ad_hoc_penalty>  (231) 
-23.339648

>  <N_rotatable_bonds>  (231) 
6

>  <N_HA>  (231) 
30

>  <cluster>  (231) 
5955

>  <N_interactions>  (231) 
8

>  <Enamine>  (231) 
1

>  <Mcule>  (231) 
0

>  <N_PAINS>  (231) 
0

>  <UFF_Gibbs>  (231) 
217.958107

>  <strain_per_HA>  (231) 
7.030907

>  <saltbridge:HIS:51>  (231) 
0

>  <pistack:HIS:51>  (231) 
0

>  <hydroph_interaction:HIS:51>  (231) 
0

>  <hbond:ALA:132>  (231) 
0

>  <hbond:SER:135>  (231) 
0

>  <hydroph_interaction:TYR:150>  (231) 
0

>  <pistack:TYR:161>  (231) 
1

>  <hydroph_interaction:TYR:161>  (231) 
1

>  <hydroph_interaction:ASP:83>  (231) 
0

>  <hbond:TYR:130>  (231) 
2

>  <hydroph_interaction:ALA:132>  (231) 
0

>  <hbond:HIS:51>  (231) 
0

>  <hbond:ASP:129>  (231) 
1

>  <hbond:TYR:150>  (231) 
1

>  <hbond:GLY:151>  (231) 
0

>  <hbond:TYR:161>  (231) 
0

>  <hydroph_interaction:TYR:130>  (231) 
1

>  <hydroph_interaction:PRO:131>  (231) 
1

>  <hydroph_interaction:ASP:129>  (231) 
0

>  <saltbridge:ASP:75>  (231) 
0

>  <saltbridge:ASP:83>  (231) 
0

>  <hydroph_interaction:ASN:152>  (231) 
0

>  <halogenbond:TYR:150>  (231) 
0

>  <hbond:ASP:83>  (231) 
0

>  <hydroph_interaction:VAL:155>  (231) 
0

>  <pication:TYR:161>  (231) 
0

>  <hbond:PRO:131>  (231) 
0

>  <hbond:LEU:128>  (231) 
0

>  <saltbridge:ASP:129>  (231) 
0

>  <hbond:THR:134>  (231) 
0

>  <pication:HIS:51>  (231) 
0

>  <hbond:SER:81>  (231) 
0

>  <hbond:GLY:159>  (231) 
0

>  <hydroph_interaction:PRO:101>  (231) 
0

>  <hydroph_interaction:THR:134>  (231) 
0

>  <hbond:GLY:82>  (231) 
0

>  <hydroph_interaction:GLU:104>  (231) 
0

>  <hydroph_interaction:VAL:36>  (231) 
0

>  <hydroph_interaction:MET:49>  (231) 
0

>  <halogenbond:GLU:104>  (231) 
0

>  <hydroph_interaction:LYS:107>  (231) 
0

$$$$
CSSB00010002175
     RDKit          3D

 30 31  0  0  0  0  0  0  0  0999 V2000
   -2.8911    5.1229  -19.8752 C   0  0  0  0  0  0  0  0  0  0  0  0
   -4.0027    5.2569  -20.8070 N   0  0  0  0  0  0  0  0  0  0  0  0
   -5.3574    5.2919  -20.3514 C   0  0  0  0  0  0  0  0  0  0  0  0
   -6.2877    5.4353  -21.1900 O   0  0  0  0  0  0  0  0  0  0  0  0
   -5.6315    5.2244  -18.9782 O   0  0  0  0  0  0  0  0  0  0  0  0
   -6.8932    4.9894  -18.4088 C   0  0  0  0  0  0  0  0  0  0  0  0
   -7.8571    4.1922  -19.0553 C   0  0  0  0  0  0  0  0  0  0  0  0
   -9.1082    3.9802  -18.4712 C   0  0  0  0  0  0  0  0  0  0  0  0
   -9.4117    4.5498  -17.2341 C   0  0  0  0  0  0  0  0  0  0  0  0
   -8.4514    5.3161  -16.5610 C   0  0  0  0  0  0  0  0  0  0  0  0
   -7.1885    5.5299  -17.1405 C   0  0  0  0  0  0  0  0  0  0  0  0
   -6.2099    6.4037  -16.3955 C   0  0  0  0  0  0  0  0  0  0  0  0
   -6.1848    6.0437  -14.8997 C   0  0  0  0  0  0  0  0  0  0  0  0
   -7.5834    5.8220  -14.2649 C   0  0  0  0  0  0  0  0  0  0  0  0
   -8.7620    5.9713  -15.2426 C   0  0  0  0  0  0  0  0  0  0  0  0
   -2.8895    5.9772  -19.1657 H   0  0  0  0  0  0  0  0  0  0  0  0
   -1.9306    5.1161  -20.4322 H   0  0  0  0  0  0  0  0  0  0  0  0
   -2.9862    4.1717  -19.3102 H   0  0  0  0  0  0  0  0  0  0  0  0
   -3.8041    5.3279  -21.8305 H   0  0  0  0  0  0  0  0  0  0  0  0
   -7.6387    3.7134  -19.9998 H   0  0  0  0  0  0  0  0  0  0  0  0
   -9.8447    3.3713  -18.9795 H   0  0  0  0  0  0  0  0  0  0  0  0
  -10.3905    4.3885  -16.7999 H   0  0  0  0  0  0  0  0  0  0  0  0
   -6.5195    7.4646  -16.5144 H   0  0  0  0  0  0  0  0  0  0  0  0
   -5.1801    6.3043  -16.8003 H   0  0  0  0  0  0  0  0  0  0  0  0
   -5.5857    5.1145  -14.7753 H   0  0  0  0  0  0  0  0  0  0  0  0
   -5.6500    6.8474  -14.3484 H   0  0  0  0  0  0  0  0  0  0  0  0
   -7.7265    6.5349  -13.4240 H   0  0  0  0  0  0  0  0  0  0  0  0
   -7.6184    4.7992  -13.8289 H   0  0  0  0  0  0  0  0  0  0  0  0
   -8.9583    7.0506  -15.4210 H   0  0  0  0  0  0  0  0  0  0  0  0
   -9.6734    5.5308  -14.7825 H   0  0  0  0  0  0  0  0  0  0  0  0
  1  2  1  0
  2  3  1  0
  3  4  2  0
  3  5  1  0
  5  6  1  0
  6  7  2  0
  7  8  1  0
  8  9  2  0
  9 10  1  0
 10 11  2  0
 11 12  1  0
 12 13  1  0
 13 14  1  0
 14 15  1  0
 11  6  1  0
 15 10  1  0
  1 16  1  0
  1 17  1  0
  1 18  1  0
  2 19  1  0
  7 20  1  0
  8 21  1  0
  9 22  1  0
 12 23  1  0
 12 24  1  0
 13 25  1  0
 13 26  1  0
 14 27  1  0
 14 28  1  0
 15 29  1  0
 15 30  1  0
A    1
 C1 
A    2
 N1 
A    3
 C2 
A    4
 O1 
A    5
 O2 
A    6
 C3 
A    7
 C4 
A    8
 C5 
A    9
 C6 
A   10
 C7 
A   11
 C8 
A   12
 C9 
A   13
 C10
A   14
 C11
A   15
 C12
A   16
 H1 
A   17
 H2 
A   18
 H3 
A   19
 H4 
A   20
 H5 
A   21
 H6 
A   22
 H7 
A   23
 H8 
A   24
 H9 
A   25
 H10
A   26
 H11
A   27
 H12
A   28
 H13
A   29
 H14
A   30
 H15
M  END
>  <ref_pdb>  (232) 
x0051_0B

>  <ref_mols>  (232) 
x0904_0B,x0455_0B

>  <original SMILES>  (232) 
[H]c1c([H])c(OC(=O)N([H])C([H])([H])[H])c2c(c1[H])C([H])([H])C([H])([H])C([H])([H])C2([H])[H]

>  <index>  (232) 
411

>  <∆∆G>  (232) 
-5.753182

>  <∆G_bound>  (232) 
-4.73497

>  <∆G_unbound>  (232) 
1.018212

>  <comRMSD>  (232) 
0.676832

>  <N_constrained_atoms>  (232) 
16.0

>  <N_unconstrained_atoms>  (232) 
1.0

>  <runtime>  (232) 
32.867193

>  <LE>  (232) 
0.338422

>  <percent_hybrid>  (232) 
40.0

>  <dist>  (232) 
7.0

>  <ecfp4>  (232) 
0.126984

>  <daylight>  (232) 
0.110553

>  <topodist>  (232) 
2.0

>  <mces>  (232) 
16.0

>  <tdn>  (232) 
1.0

>  <tup>  (232) 
0.0

>  <rdn>  (232) 
0.0

>  <rup>  (232) 
0.0

>  <ldn>  (232) 
1.0

>  <lup>  (232) 
0.0

>  <mut>  (232) 
1.0

>  <maj>  (232) 
1.0

>  <min>  (232) 
0.0

>  <hyb>  (232) 
4.0

>  <sub>  (232) 
1.0

>  <query_index>  (232) 
160.0

>  <max_hit_Tanimoto>  (232) 
0.174326

>  <largest_ring>  (232) 
6

>  <N_interactions_kept>  (232) 
1.0

>  <N_interactions_lost>  (232) 
2.0

>  <interaction_uniqueness_metric>  (232) 
0.114212

>  <ad_hoc_penalty>  (232) 
-23.312582

>  <N_rotatable_bonds>  (232) 
2

>  <N_HA>  (232) 
15

>  <cluster>  (232) 
5844

>  <N_interactions>  (232) 
6

>  <Enamine>  (232) 
1

>  <Mcule>  (232) 
0

>  <N_PAINS>  (232) 
0

>  <UFF_Gibbs>  (232) 
52.794189

>  <strain_per_HA>  (232) 
3.105541

>  <saltbridge:HIS:51>  (232) 
0

>  <pistack:HIS:51>  (232) 
0

>  <hydroph_interaction:HIS:51>  (232) 
0

>  <hbond:ALA:132>  (232) 
0

>  <hbond:SER:135>  (232) 
0

>  <hydroph_interaction:TYR:150>  (232) 
1

>  <pistack:TYR:161>  (232) 
0

>  <hydroph_interaction:TYR:161>  (232) 
2

>  <hydroph_interaction:ASP:83>  (232) 
0

>  <hbond:TYR:130>  (232) 
1

>  <hydroph_interaction:ALA:132>  (232) 
1

>  <hbond:HIS:51>  (232) 
0

>  <hbond:ASP:129>  (232) 
1

>  <hbond:TYR:150>  (232) 
0

>  <hbond:GLY:151>  (232) 
0

>  <hbond:TYR:161>  (232) 
0

>  <hydroph_interaction:TYR:130>  (232) 
0

>  <hydroph_interaction:PRO:131>  (232) 
0

>  <hydroph_interaction:ASP:129>  (232) 
0

>  <saltbridge:ASP:75>  (232) 
0

>  <saltbridge:ASP:83>  (232) 
0

>  <hydroph_interaction:ASN:152>  (232) 
0

>  <halogenbond:TYR:150>  (232) 
0

>  <hbond:ASP:83>  (232) 
0

>  <hydroph_interaction:VAL:155>  (232) 
0

>  <pication:TYR:161>  (232) 
0

>  <hbond:PRO:131>  (232) 
0

>  <hbond:LEU:128>  (232) 
0

>  <saltbridge:ASP:129>  (232) 
0

>  <hbond:THR:134>  (232) 
0

>  <pication:HIS:51>  (232) 
0

>  <hbond:SER:81>  (232) 
0

>  <hbond:GLY:159>  (232) 
0

>  <hydroph_interaction:PRO:101>  (232) 
0

>  <hydroph_interaction:THR:134>  (232) 
0

>  <hbond:GLY:82>  (232) 
0

>  <hydroph_interaction:GLU:104>  (232) 
0

>  <hydroph_interaction:VAL:36>  (232) 
0

>  <hydroph_interaction:MET:49>  (232) 
0

>  <halogenbond:GLU:104>  (232) 
0

>  <hydroph_interaction:LYS:107>  (232) 
0

$$$$
CSSB00103157836
     RDKit          3D

 32 34  0  0  0  0  0  0  0  0999 V2000
  -11.2689    4.9942  -18.5006 F   0  0  0  0  0  0  0  0  0  0  0  0
   -9.9709    5.0268  -18.1103 C   0  0  0  0  0  0  0  0  0  0  0  0
   -9.6457    4.9015  -16.7567 C   0  0  0  0  0  0  0  0  0  0  0  0
   -8.3080    4.9247  -16.3523 C   0  0  0  0  0  0  0  0  0  0  0  0
   -7.2884    5.0821  -17.3016 C   0  0  0  0  0  0  0  0  0  0  0  0
   -5.9167    5.1226  -16.8908 N   0  0  0  0  0  0  0  0  0  0  0  0
   -4.8894    5.5361  -17.8000 C   0  0  0  0  0  0  0  0  0  0  0  0
   -3.6900    5.5352  -17.4096 O   0  0  0  0  0  0  0  0  0  0  0  0
   -5.2613    6.0715  -19.1778 C   0  0  0  0  0  0  0  0  0  0  0  0
   -5.5669    7.5872  -19.0396 C   0  0  0  0  0  0  0  0  0  0  0  0
   -5.7034    8.2917  -20.4008 C   0  0  0  0  0  0  0  0  0  0  0  0
   -4.5211    8.0753  -21.2446 N   0  0  0  0  0  0  0  0  0  0  0  0
   -4.2941    6.6443  -21.4847 C   0  0  0  0  0  0  0  0  0  0  0  0
   -4.0765    5.8836  -20.1668 C   0  0  0  0  0  0  0  0  0  0  0  0
   -6.5076    5.2835  -19.6879 C   0  0  0  0  0  0  0  0  0  0  0  0
   -7.6134    5.2151  -18.6633 C   0  0  0  0  0  0  0  0  0  0  0  0
   -8.9584    5.1739  -19.0634 C   0  0  0  0  0  0  0  0  0  0  0  0
  -10.4299    4.7834  -16.0200 H   0  0  0  0  0  0  0  0  0  0  0  0
   -8.0662    4.8265  -15.3015 H   0  0  0  0  0  0  0  0  0  0  0  0
   -5.6602    4.8851  -15.9058 H   0  0  0  0  0  0  0  0  0  0  0  0
   -4.7418    8.0821  -18.4795 H   0  0  0  0  0  0  0  0  0  0  0  0
   -6.4981    7.7477  -18.4541 H   0  0  0  0  0  0  0  0  0  0  0  0
   -5.8246    9.3826  -20.2263 H   0  0  0  0  0  0  0  0  0  0  0  0
   -6.6175    7.9536  -20.9330 H   0  0  0  0  0  0  0  0  0  0  0  0
   -3.6819    8.4777  -20.7637 H   0  0  0  0  0  0  0  0  0  0  0  0
   -3.3895    6.5259  -22.1194 H   0  0  0  0  0  0  0  0  0  0  0  0
   -5.1437    6.2134  -22.0561 H   0  0  0  0  0  0  0  0  0  0  0  0
   -3.1346    6.2673  -19.7161 H   0  0  0  0  0  0  0  0  0  0  0  0
   -3.9198    4.8045  -20.3852 H   0  0  0  0  0  0  0  0  0  0  0  0
   -6.2124    4.2374  -19.9226 H   0  0  0  0  0  0  0  0  0  0  0  0
   -6.8978    5.7211  -20.6288 H   0  0  0  0  0  0  0  0  0  0  0  0
   -9.2212    5.2493  -20.1113 H   0  0  0  0  0  0  0  0  0  0  0  0
  1  2  1  0
  2  3  2  0
  3  4  1  0
  4  5  2  0
  5  6  1  0
  6  7  1  0
  7  8  2  0
  7  9  1  0
  9 10  1  0
 10 11  1  0
 11 12  1  0
 12 13  1  0
 13 14  1  0
  9 15  1  0
 15 16  1  0
 16 17  2  0
 17  2  1  0
 16  5  1  0
 14  9  1  0
  3 18  1  0
  4 19  1  0
  6 20  1  0
 10 21  1  0
 10 22  1  0
 11 23  1  0
 11 24  1  0
 12 25  1  0
 13 26  1  0
 13 27  1  0
 14 28  1  0
 14 29  1  0
 15 30  1  0
 15 31  1  0
 17 32  1  0
A    1
 F1 
A    2
 C1 
A    3
 C2 
A    4
 C3 
A    5
 C4 
A    6
 N1 
A    7
 C5 
A    8
 O1 
A    9
 C6 
A   10
 C7 
A   11
 C8 
A   12
 N2 
A   13
 C9 
A   14
 C10
A   15
 C11
A   16
 C12
A   17
 C13
A   18
 H1 
A   19
 H2 
A   20
 H3 
A   21
 H4 
A   22
 H5 
A   23
 H6 
A   24
 H7 
A   25
 H8 
A   26
 H9 
A   27
 H10
A   28
 H11
A   29
 H12
A   30
 H13
A   31
 H14
A   32
 H15
M  END
>  <ref_pdb>  (233) 
x0051_0B

>  <ref_mols>  (233) 
x0229_0B,x0945_0B

>  <original SMILES>  (233) 
[H]c1c([H])c2c(c([H])c1F)C([H])([H])C1(C(=O)N2[H])C([H])([H])C([H])([H])N([H])C([H])([H])C1([H])[H]

>  <index>  (233) 
320

>  <∆∆G>  (233) 
-5.960796

>  <∆G_bound>  (233) 
-5.276627

>  <∆G_unbound>  (233) 
0.684169

>  <comRMSD>  (233) 
0.759077

>  <N_constrained_atoms>  (233) 
19.0

>  <N_unconstrained_atoms>  (233) 
1.0

>  <runtime>  (233) 
27.909374

>  <LE>  (233) 
0.29804

>  <percent_hybrid>  (233) 
45.0

>  <dist>  (233) 
3.0

>  <ecfp4>  (233) 
0.407407

>  <daylight>  (233) 
0.548571

>  <topodist>  (233) 
1.0

>  <mces>  (233) 
18.0

>  <tdn>  (233) 
0.0

>  <tup>  (233) 
0.0

>  <rdn>  (233) 
0.0

>  <rup>  (233) 
0.0

>  <ldn>  (233) 
0.0

>  <lup>  (233) 
1.0

>  <mut>  (233) 
2.0

>  <maj>  (233) 
2.0

>  <min>  (233) 
0.0

>  <hyb>  (233) 
0.0

>  <sub>  (233) 
0.0

>  <query_index>  (233) 
101.0

>  <max_hit_Tanimoto>  (233) 
0.546843

>  <largest_ring>  (233) 
6

>  <N_interactions_kept>  (233) 
1.0

>  <N_interactions_lost>  (233) 
1.0

>  <interaction_uniqueness_metric>  (233) 
0.016266

>  <ad_hoc_penalty>  (233) 
-23.312276

>  <N_rotatable_bonds>  (233) 
0

>  <N_HA>  (233) 
17

>  <cluster>  (233) 
5928

>  <N_interactions>  (233) 
3

>  <Enamine>  (233) 
1

>  <Mcule>  (233) 
0

>  <N_PAINS>  (233) 
0

>  <UFF_Gibbs>  (233) 
74.845406

>  <strain_per_HA>  (233) 
3.74227

>  <saltbridge:HIS:51>  (233) 
0

>  <pistack:HIS:51>  (233) 
0

>  <hydroph_interaction:HIS:51>  (233) 
0

>  <hbond:ALA:132>  (233) 
0

>  <hbond:SER:135>  (233) 
0

>  <hydroph_interaction:TYR:150>  (233) 
0

>  <pistack:TYR:161>  (233) 
0

>  <hydroph_interaction:TYR:161>  (233) 
3

>  <hydroph_interaction:ASP:83>  (233) 
0

>  <hbond:TYR:130>  (233) 
0

>  <hydroph_interaction:ALA:132>  (233) 
0

>  <hbond:HIS:51>  (233) 
0

>  <hbond:ASP:129>  (233) 
0

>  <hbond:TYR:150>  (233) 
0

>  <hbond:GLY:151>  (233) 
0

>  <hbond:TYR:161>  (233) 
0

>  <hydroph_interaction:TYR:130>  (233) 
0

>  <hydroph_interaction:PRO:131>  (233) 
0

>  <hydroph_interaction:ASP:129>  (233) 
0

>  <saltbridge:ASP:75>  (233) 
0

>  <saltbridge:ASP:83>  (233) 
0

>  <hydroph_interaction:ASN:152>  (233) 
0

>  <halogenbond:TYR:150>  (233) 
0

>  <hbond:ASP:83>  (233) 
0

>  <hydroph_interaction:VAL:155>  (233) 
0

>  <pication:TYR:161>  (233) 
0

>  <hbond:PRO:131>  (233) 
0

>  <hbond:LEU:128>  (233) 
0

>  <saltbridge:ASP:129>  (233) 
0

>  <hbond:THR:134>  (233) 
0

>  <pication:HIS:51>  (233) 
0

>  <hbond:SER:81>  (233) 
0

>  <hbond:GLY:159>  (233) 
0

>  <hydroph_interaction:PRO:101>  (233) 
0

>  <hydroph_interaction:THR:134>  (233) 
0

>  <hbond:GLY:82>  (233) 
0

>  <hydroph_interaction:GLU:104>  (233) 
0

>  <hydroph_interaction:VAL:36>  (233) 
0

>  <hydroph_interaction:MET:49>  (233) 
0

>  <halogenbond:GLU:104>  (233) 
0

>  <hydroph_interaction:LYS:107>  (233) 
0

$$$$
MCULE-3376179866
     RDKit          3D

 21 22  0  0  0  0  0  0  0  0999 V2000
  -11.2995    4.8991  -18.8114 C   0  0  0  0  0  0  0  0  0  0  0  0
   -9.9006    5.0313  -18.3138 C   0  0  0  0  0  0  0  0  0  0  0  0
   -9.5864    5.1323  -17.0429 O   0  0  0  0  0  0  0  0  0  0  0  0
   -8.2809    5.2060  -16.9723 C   0  0  0  0  0  0  0  0  0  0  0  0
   -7.7876    5.1412  -18.2630 C   0  0  0  0  0  0  0  0  0  0  0  0
   -6.3660    5.1833  -18.6850 C   0  0  0  0  0  0  0  0  0  0  0  0
   -5.3253    5.3050  -17.7432 C   0  0  0  0  0  0  0  0  0  0  0  0
   -3.9916    5.3429  -18.1625 C   0  0  0  0  0  0  0  0  0  0  0  0
   -3.6803    5.2603  -19.5210 C   0  0  0  0  0  0  0  0  0  0  0  0
   -4.7023    5.1395  -20.4644 C   0  0  0  0  0  0  0  0  0  0  0  0
   -6.0376    5.1011  -20.0515 C   0  0  0  0  0  0  0  0  0  0  0  0
   -8.8212    5.0258  -19.1220 N   0  0  0  0  0  0  0  0  0  0  0  0
  -11.5312    3.8274  -18.9819 H   0  0  0  0  0  0  0  0  0  0  0  0
  -11.4156    5.4563  -19.7645 H   0  0  0  0  0  0  0  0  0  0  0  0
  -12.0078    5.3121  -18.0630 H   0  0  0  0  0  0  0  0  0  0  0  0
   -7.7240    5.2988  -16.0505 H   0  0  0  0  0  0  0  0  0  0  0  0
   -5.5328    5.3714  -16.6845 H   0  0  0  0  0  0  0  0  0  0  0  0
   -3.1982    5.4366  -17.4321 H   0  0  0  0  0  0  0  0  0  0  0  0
   -2.6472    5.2899  -19.8426 H   0  0  0  0  0  0  0  0  0  0  0  0
   -4.4601    5.0756  -21.5174 H   0  0  0  0  0  0  0  0  0  0  0  0
   -6.8122    5.0070  -20.8023 H   0  0  0  0  0  0  0  0  0  0  0  0
  1  2  1  0
  2  3  1  0
  3  4  1  0
  4  5  2  0
  5  6  1  0
  6  7  2  0
  7  8  1  0
  8  9  2  0
  9 10  1  0
 10 11  2  0
  5 12  1  0
  2 12  2  0
  6 11  1  0
  1 13  1  0
  1 14  1  0
  1 15  1  0
  4 16  1  0
  7 17  1  0
  8 18  1  0
  9 19  1  0
 10 20  1  0
 11 21  1  0
A    1
 C1 
A    2
 C2 
A    3
 O1 
A    4
 C3 
A    5
 C4 
A    6
 C5 
A    7
 C6 
A    8
 C7 
A    9
 C8 
A   10
 C9 
A   11
 C10
A   12
 N1 
A   13
 H1 
A   14
 H2 
A   15
 H3 
A   16
 H4 
A   17
 H5 
A   18
 H6 
A   19
 H7 
A   20
 H8 
A   21
 H9 
M  END
>  <ref_pdb>  (234) 
x0051_0B

>  <ref_mols>  (234) 
x0680_0B,x0386_0B

>  <original SMILES>  (234) 
[H]c1oc(C([H])([H])[H])nc1-c1c([H])c([H])c([H])c([H])c1[H]

>  <index>  (234) 
452

>  <∆∆G>  (234) 
-6.036307

>  <∆G_bound>  (234) 
-6.037854

>  <∆G_unbound>  (234) 
-0.001547

>  <comRMSD>  (234) 
0.860856

>  <N_constrained_atoms>  (234) 
13.0

>  <N_unconstrained_atoms>  (234) 
1.0

>  <runtime>  (234) 
33.164353

>  <LE>  (234) 
0.431165

>  <percent_hybrid>  (234) 
25.0

>  <dist>  (234) 
3.0

>  <ecfp4>  (234) 
0.208333

>  <daylight>  (234) 
0.483051

>  <topodist>  (234) 
2.0

>  <mces>  (234) 
12.0

>  <tdn>  (234) 
1.0

>  <tup>  (234) 
1.0

>  <rdn>  (234) 
0.0

>  <rup>  (234) 
0.0

>  <ldn>  (234) 
0.0

>  <lup>  (234) 
0.0

>  <mut>  (234) 
1.0

>  <maj>  (234) 
1.0

>  <min>  (234) 
0.0

>  <hyb>  (234) 
0.0

>  <sub>  (234) 
2.0

>  <query_index>  (234) 
296.0

>  <max_hit_Tanimoto>  (234) 
0.142466

>  <largest_ring>  (234) 
6

>  <N_interactions_kept>  (234) 
3.0

>  <N_interactions_lost>  (234) 
1.0

>  <interaction_uniqueness_metric>  (234) 
0.031789

>  <ad_hoc_penalty>  (234) 
-23.310885

>  <N_rotatable_bonds>  (234) 
2

>  <N_HA>  (234) 
12

>  <cluster>  (234) 
5808

>  <N_interactions>  (234) 
4

>  <Enamine>  (234) 
0

>  <Mcule>  (234) 
1

>  <N_PAINS>  (234) 
0

>  <UFF_Gibbs>  (234) 
23.467874

>  <strain_per_HA>  (234) 
1.676277

>  <saltbridge:HIS:51>  (234) 
0

>  <pistack:HIS:51>  (234) 
0

>  <hydroph_interaction:HIS:51>  (234) 
0

>  <hbond:ALA:132>  (234) 
0

>  <hbond:SER:135>  (234) 
0

>  <hydroph_interaction:TYR:150>  (234) 
1

>  <pistack:TYR:161>  (234) 
0

>  <hydroph_interaction:TYR:161>  (234) 
3

>  <hydroph_interaction:ASP:83>  (234) 
0

>  <hbond:TYR:130>  (234) 
0

>  <hydroph_interaction:ALA:132>  (234) 
0

>  <hbond:HIS:51>  (234) 
0

>  <hbond:ASP:129>  (234) 
0

>  <hbond:TYR:150>  (234) 
0

>  <hbond:GLY:151>  (234) 
0

>  <hbond:TYR:161>  (234) 
0

>  <hydroph_interaction:TYR:130>  (234) 
0

>  <hydroph_interaction:PRO:131>  (234) 
0

>  <hydroph_interaction:ASP:129>  (234) 
0

>  <saltbridge:ASP:75>  (234) 
0

>  <saltbridge:ASP:83>  (234) 
0

>  <hydroph_interaction:ASN:152>  (234) 
0

>  <halogenbond:TYR:150>  (234) 
0

>  <hbond:ASP:83>  (234) 
0

>  <hydroph_interaction:VAL:155>  (234) 
0

>  <pication:TYR:161>  (234) 
0

>  <hbond:PRO:131>  (234) 
0

>  <hbond:LEU:128>  (234) 
0

>  <saltbridge:ASP:129>  (234) 
0

>  <hbond:THR:134>  (234) 
0

>  <pication:HIS:51>  (234) 
0

>  <hbond:SER:81>  (234) 
0

>  <hbond:GLY:159>  (234) 
0

>  <hydroph_interaction:PRO:101>  (234) 
0

>  <hydroph_interaction:THR:134>  (234) 
0

>  <hbond:GLY:82>  (234) 
0

>  <hydroph_interaction:GLU:104>  (234) 
0

>  <hydroph_interaction:VAL:36>  (234) 
0

>  <hydroph_interaction:MET:49>  (234) 
0

>  <halogenbond:GLU:104>  (234) 
0

>  <hydroph_interaction:LYS:107>  (234) 
0

$$$$
PV-002860140225
     RDKit          3D

 38 40  0  0  0  0  0  0  0  0999 V2000
   -9.1683    3.6708  -17.5702 C   0  0  0  0  0  0  0  0  0  0  0  0
   -8.1491    4.4214  -16.7650 C   0  0  0  0  0  0  0  0  0  0  0  0
   -6.8279    4.5277  -17.2221 C   0  0  0  0  0  0  0  0  0  0  0  0
   -5.8862    5.2548  -16.4891 C   0  0  0  0  0  0  0  0  0  0  0  0
   -4.2321    5.3725  -17.0620 Cl  0  0  0  0  0  0  0  0  0  0  0  0
   -6.2609    5.8915  -15.3019 C   0  0  0  0  0  0  0  0  0  0  0  0
   -7.5865    5.8117  -14.8391 C   0  0  0  0  0  0  0  0  0  0  0  0
   -7.9897    6.4842  -13.5847 C   0  0  0  0  0  0  0  0  0  0  0  0
   -7.1323    7.0951  -12.8885 O   0  0  0  0  0  0  0  0  0  0  0  0
   -9.3261    6.4364  -13.1690 O   0  0  0  0  0  0  0  0  0  0  0  0
   -9.7773    6.9498  -11.9183 C   0  0  0  0  0  0  0  0  0  0  0  0
   -9.2652    6.1046  -10.7921 C   0  0  0  0  0  0  0  0  0  0  0  0
   -9.4654    4.7557  -10.5848 C   0  0  0  0  0  0  0  0  0  0  0  0
  -10.3059    3.8087  -11.3901 C   0  0  0  0  0  0  0  0  0  0  0  0
   -9.9802    2.3542  -11.0153 C   0  0  0  0  0  0  0  0  0  0  0  0
   -9.8977    2.1723   -9.4904 C   0  0  0  0  0  0  0  0  0  0  0  0
   -8.7894    3.0547   -8.8925 C   0  0  0  0  0  0  0  0  0  0  0  0
   -8.8621    4.4106   -9.4336 N   0  0  0  0  0  0  0  0  0  0  0  0
   -8.2488    5.4613   -8.9115 N   0  0  0  0  0  0  0  0  0  0  0  0
   -8.4881    6.5146   -9.7218 C   0  0  0  0  0  0  0  0  0  0  0  0
   -8.5273    5.0773  -15.5830 C   0  0  0  0  0  0  0  0  0  0  0  0
   -8.6887    2.8493  -18.1438 H   0  0  0  0  0  0  0  0  0  0  0  0
   -9.6633    4.3664  -18.2795 H   0  0  0  0  0  0  0  0  0  0  0  0
   -9.9374    3.2212  -16.9064 H   0  0  0  0  0  0  0  0  0  0  0  0
   -6.5301    4.0452  -18.1451 H   0  0  0  0  0  0  0  0  0  0  0  0
   -5.5173    6.4505  -14.7474 H   0  0  0  0  0  0  0  0  0  0  0  0
  -10.8867    6.9301  -11.9027 H   0  0  0  0  0  0  0  0  0  0  0  0
   -9.4491    8.0052  -11.7989 H   0  0  0  0  0  0  0  0  0  0  0  0
  -11.3770    4.0157  -11.1797 H   0  0  0  0  0  0  0  0  0  0  0  0
  -10.1212    3.9599  -12.4746 H   0  0  0  0  0  0  0  0  0  0  0  0
   -9.0097    2.0619  -11.4737 H   0  0  0  0  0  0  0  0  0  0  0  0
  -10.7664    1.6848  -11.4260 H   0  0  0  0  0  0  0  0  0  0  0  0
   -9.6896    1.1069   -9.2527 H   0  0  0  0  0  0  0  0  0  0  0  0
  -10.8745    2.4437   -9.0331 H   0  0  0  0  0  0  0  0  0  0  0  0
   -8.8946    3.0852   -7.7869 H   0  0  0  0  0  0  0  0  0  0  0  0
   -7.7969    2.6206   -9.1405 H   0  0  0  0  0  0  0  0  0  0  0  0
   -8.1195    7.5160   -9.5438 H   0  0  0  0  0  0  0  0  0  0  0  0
   -9.5544    5.0083  -15.2450 H   0  0  0  0  0  0  0  0  0  0  0  0
  1  2  1  0
  2  3  2  0
  3  4  1  0
  4  5  1  0
  4  6  2  0
  6  7  1  0
  7  8  1  0
  8  9  2  0
  8 10  1  0
 10 11  1  0
 11 12  1  0
 12 13  2  0
 13 14  1  0
 14 15  1  0
 15 16  1  0
 16 17  1  0
 17 18  1  0
 18 19  1  0
 19 20  2  0
  7 21  2  0
 21  2  1  0
 20 12  1  0
 18 13  1  0
  1 22  1  0
  1 23  1  0
  1 24  1  0
  3 25  1  0
  6 26  1  0
 11 27  1  0
 11 28  1  0
 14 29  1  0
 14 30  1  0
 15 31  1  0
 15 32  1  0
 16 33  1  0
 16 34  1  0
 17 35  1  0
 17 36  1  0
 20 37  1  0
 21 38  1  0
A    1
 C1 
A    2
 C2 
A    3
 C3 
A    4
 C4 
A    5
CL1 
A    6
 C5 
A    7
 C6 
A    8
 C7 
A    9
 O1 
A   10
 O2 
A   11
 C8 
A   12
 C9 
A   13
 C10
A   14
 C11
A   15
 C12
A   16
 C13
A   17
 C14
A   18
 N1 
A   19
 N2 
A   20
 C15
A   21
 C16
A   22
 H1 
A   23
 H2 
A   24
 H3 
A   25
 H4 
A   26
 H5 
A   27
 H6 
A   28
 H7 
A   29
 H8 
A   30
 H9 
A   31
 H10
A   32
 H11
A   33
 H12
A   34
 H13
A   35
 H14
A   36
 H15
A   37
 H16
A   38
 H17
M  END
>  <ref_pdb>  (235) 
x0051_0B

>  <ref_mols>  (235) 
x0969_1B,x0589_0B

>  <original SMILES>  (235) 
[H]c1nn2c(c1C([H])([H])OC(=O)c1c([H])c(Cl)c([H])c(C([H])([H])[H])c1[H])C([H])([H])C([H])([H])C([H])([H])C2([H])[H]

>  <index>  (235) 
306

>  <∆∆G>  (235) 
-8.412166

>  <∆G_bound>  (235) 
-7.630356

>  <∆G_unbound>  (235) 
0.78181

>  <comRMSD>  (235) 
0.479952

>  <N_constrained_atoms>  (235) 
18.0

>  <N_unconstrained_atoms>  (235) 
3.0

>  <runtime>  (235) 
53.681826

>  <LE>  (235) 
0.400579

>  <percent_hybrid>  (235) 
45.0

>  <dist>  (235) 
4.0

>  <ecfp4>  (235) 
0.342466

>  <daylight>  (235) 
0.437751

>  <topodist>  (235) 
1.0

>  <mces>  (235) 
22.0

>  <tdn>  (235) 
0.0

>  <tup>  (235) 
1.0

>  <rdn>  (235) 
0.0

>  <rup>  (235) 
0.0

>  <ldn>  (235) 
0.0

>  <lup>  (235) 
0.0

>  <mut>  (235) 
2.0

>  <maj>  (235) 
1.0

>  <min>  (235) 
1.0

>  <hyb>  (235) 
1.0

>  <sub>  (235) 
0.0

>  <query_index>  (235) 
380.0

>  <max_hit_Tanimoto>  (235) 
0.32716

>  <largest_ring>  (235) 
6

>  <N_interactions_kept>  (235) 
1.5

>  <N_interactions_lost>  (235) 
1.0

>  <interaction_uniqueness_metric>  (235) 
0.141238

>  <ad_hoc_penalty>  (235) 
-23.279717

>  <N_rotatable_bonds>  (235) 
4

>  <N_HA>  (235) 
21

>  <cluster>  (235) 
528

>  <N_interactions>  (235) 
4

>  <Enamine>  (235) 
1

>  <Mcule>  (235) 
0

>  <N_PAINS>  (235) 
0

>  <UFF_Gibbs>  (235) 
109.382778

>  <strain_per_HA>  (235) 
5.208704

>  <saltbridge:HIS:51>  (235) 
0

>  <pistack:HIS:51>  (235) 
1

>  <hydroph_interaction:HIS:51>  (235) 
0

>  <hbond:ALA:132>  (235) 
0

>  <hbond:SER:135>  (235) 
0

>  <hydroph_interaction:TYR:150>  (235) 
1

>  <pistack:TYR:161>  (235) 
1

>  <hydroph_interaction:TYR:161>  (235) 
0

>  <hydroph_interaction:ASP:83>  (235) 
1

>  <hbond:TYR:130>  (235) 
0

>  <hydroph_interaction:ALA:132>  (235) 
0

>  <hbond:HIS:51>  (235) 
0

>  <hbond:ASP:129>  (235) 
0

>  <hbond:TYR:150>  (235) 
0

>  <hbond:GLY:151>  (235) 
0

>  <hbond:TYR:161>  (235) 
0

>  <hydroph_interaction:TYR:130>  (235) 
0

>  <hydroph_interaction:PRO:131>  (235) 
0

>  <hydroph_interaction:ASP:129>  (235) 
0

>  <saltbridge:ASP:75>  (235) 
0

>  <saltbridge:ASP:83>  (235) 
0

>  <hydroph_interaction:ASN:152>  (235) 
0

>  <halogenbond:TYR:150>  (235) 
0

>  <hbond:ASP:83>  (235) 
0

>  <hydroph_interaction:VAL:155>  (235) 
0

>  <pication:TYR:161>  (235) 
0

>  <hbond:PRO:131>  (235) 
0

>  <hbond:LEU:128>  (235) 
0

>  <saltbridge:ASP:129>  (235) 
0

>  <hbond:THR:134>  (235) 
0

>  <pication:HIS:51>  (235) 
0

>  <hbond:SER:81>  (235) 
0

>  <hbond:GLY:159>  (235) 
0

>  <hydroph_interaction:PRO:101>  (235) 
0

>  <hydroph_interaction:THR:134>  (235) 
0

>  <hbond:GLY:82>  (235) 
0

>  <hydroph_interaction:GLU:104>  (235) 
0

>  <hydroph_interaction:VAL:36>  (235) 
0

>  <hydroph_interaction:MET:49>  (235) 
0

>  <halogenbond:GLU:104>  (235) 
0

>  <hydroph_interaction:LYS:107>  (235) 
0

$$$$
MCULE-8737097771
     RDKit          3D

 23 24  0  0  0  0  0  0  0  0999 V2000
   -3.0114    6.0439  -16.7340 O   0  0  0  0  0  0  0  0  0  0  0  0
   -3.8380    5.9916  -17.6837 C   0  0  0  0  0  0  0  0  0  0  0  0
   -5.2345    5.7508  -17.4372 N   0  0  0  0  0  0  0  0  0  0  0  0
   -6.1540    5.7837  -18.5980 C   0  0  0  0  0  0  0  0  0  0  0  0
   -6.0552    4.4718  -19.3808 C   0  0  0  0  0  0  0  0  0  0  0  0
   -7.5739    6.0182  -18.1657 C   0  0  0  0  0  0  0  0  0  0  0  0
   -8.5986    6.5222  -18.9779 C   0  0  0  0  0  0  0  0  0  0  0  0
   -9.8353    6.5497  -18.3406 C   0  0  0  0  0  0  0  0  0  0  0  0
   -9.6532    5.9319  -16.7812 S   0  0  0  0  0  0  0  0  0  0  0  0
   -8.0018    5.6579  -16.9087 C   0  0  0  0  0  0  0  0  0  0  0  0
   -7.1086    5.0040  -15.9189 C   0  0  0  0  0  0  0  0  0  0  0  0
   -5.6914    5.5873  -16.0368 C   0  0  0  0  0  0  0  0  0  0  0  0
   -3.4807    6.1352  -18.6956 H   0  0  0  0  0  0  0  0  0  0  0  0
   -5.8646    6.6233  -19.2691 H   0  0  0  0  0  0  0  0  0  0  0  0
   -6.3350    3.6126  -18.7342 H   0  0  0  0  0  0  0  0  0  0  0  0
   -5.0174    4.3208  -19.7453 H   0  0  0  0  0  0  0  0  0  0  0  0
   -6.7316    4.4969  -20.2619 H   0  0  0  0  0  0  0  0  0  0  0  0
   -8.4505    6.8404  -20.0014 H   0  0  0  0  0  0  0  0  0  0  0  0
  -10.7621    6.8905  -18.7816 H   0  0  0  0  0  0  0  0  0  0  0  0
   -7.0822    3.9131  -16.1277 H   0  0  0  0  0  0  0  0  0  0  0  0
   -7.4970    5.1621  -14.8902 H   0  0  0  0  0  0  0  0  0  0  0  0
   -5.0001    4.9070  -15.4931 H   0  0  0  0  0  0  0  0  0  0  0  0
   -5.6609    6.5780  -15.5333 H   0  0  0  0  0  0  0  0  0  0  0  0
  1  2  2  0
  2  3  1  0
  3  4  1  0
  4  5  1  0
  4  6  1  0
  6  7  1  0
  7  8  2  0
  8  9  1  0
  9 10  1  0
 10 11  1  0
 11 12  1  0
 12  3  1  0
  6 10  2  0
  2 13  1  0
  4 14  1  0
  5 15  1  0
  5 16  1  0
  5 17  1  0
  7 18  1  0
  8 19  1  0
 11 20  1  0
 11 21  1  0
 12 22  1  0
 12 23  1  0
A    1
 O1 
A    2
 C1 
A    3
 N1 
A    4
 C2 
A    5
 C3 
A    6
 C4 
A    7
 C5 
A    8
 C6 
A    9
 S1 
A   10
 C7 
A   11
 C8 
A   12
 C9 
A   13
 H1 
A   14
 H2 
A   15
 H3 
A   16
 H4 
A   17
 H5 
A   18
 H6 
A   19
 H7 
A   20
 H8 
A   21
 H9 
A   22
 H10
A   23
 H11
M  END
>  <ref_pdb>  (236) 
x0051_0B

>  <ref_mols>  (236) 
x0472_0B,x0227_0B

>  <original SMILES>  (236) 
[H]C(=O)N1C([H])([H])C([H])([H])c2sc([H])c([H])c2C1([H])C([H])([H])[H]

>  <index>  (236) 
323

>  <∆∆G>  (236) 
-6.836303

>  <∆G_bound>  (236) 
-6.808417

>  <∆G_unbound>  (236) 
0.027886

>  <comRMSD>  (236) 
0.763479

>  <N_constrained_atoms>  (236) 
17.0

>  <N_unconstrained_atoms>  (236) 
0.0

>  <runtime>  (236) 
21.143204

>  <LE>  (236) 
0.402135

>  <percent_hybrid>  (236) 
45.0

>  <dist>  (236) 
5.0

>  <ecfp4>  (236) 
0.425532

>  <daylight>  (236) 
0.757576

>  <topodist>  (236) 
3.0

>  <mces>  (236) 
13.0

>  <tdn>  (236) 
3.0

>  <tup>  (236) 
0.0

>  <rdn>  (236) 
0.0

>  <rup>  (236) 
0.0

>  <ldn>  (236) 
0.0

>  <lup>  (236) 
0.0

>  <mut>  (236) 
1.0

>  <maj>  (236) 
1.0

>  <min>  (236) 
0.0

>  <hyb>  (236) 
1.0

>  <sub>  (236) 
1.0

>  <query_index>  (236) 
78.0

>  <max_hit_Tanimoto>  (236) 
0.614599

>  <largest_ring>  (236) 
6

>  <N_interactions_kept>  (236) 
4.5

>  <N_interactions_lost>  (236) 
0.5

>  <interaction_uniqueness_metric>  (236) 
0.031365

>  <ad_hoc_penalty>  (236) 
-23.252006

>  <N_rotatable_bonds>  (236) 
1

>  <N_HA>  (236) 
12

>  <cluster>  (236) 
5925

>  <N_interactions>  (236) 
2

>  <Enamine>  (236) 
0

>  <Mcule>  (236) 
1

>  <N_PAINS>  (236) 
0

>  <UFF_Gibbs>  (236) 
66.279628

>  <strain_per_HA>  (236) 
3.898802

>  <saltbridge:HIS:51>  (236) 
0

>  <pistack:HIS:51>  (236) 
0

>  <hydroph_interaction:HIS:51>  (236) 
0

>  <hbond:ALA:132>  (236) 
0

>  <hbond:SER:135>  (236) 
0

>  <hydroph_interaction:TYR:150>  (236) 
0

>  <pistack:TYR:161>  (236) 
0

>  <hydroph_interaction:TYR:161>  (236) 
1

>  <hydroph_interaction:ASP:83>  (236) 
0

>  <hbond:TYR:130>  (236) 
0

>  <hydroph_interaction:ALA:132>  (236) 
1

>  <hbond:HIS:51>  (236) 
0

>  <hbond:ASP:129>  (236) 
0

>  <hbond:TYR:150>  (236) 
0

>  <hbond:GLY:151>  (236) 
0

>  <hbond:TYR:161>  (236) 
0

>  <hydroph_interaction:TYR:130>  (236) 
0

>  <hydroph_interaction:PRO:131>  (236) 
0

>  <hydroph_interaction:ASP:129>  (236) 
0

>  <saltbridge:ASP:75>  (236) 
0

>  <saltbridge:ASP:83>  (236) 
0

>  <hydroph_interaction:ASN:152>  (236) 
0

>  <halogenbond:TYR:150>  (236) 
0

>  <hbond:ASP:83>  (236) 
0

>  <hydroph_interaction:VAL:155>  (236) 
0

>  <pication:TYR:161>  (236) 
0

>  <hbond:PRO:131>  (236) 
0

>  <hbond:LEU:128>  (236) 
0

>  <saltbridge:ASP:129>  (236) 
0

>  <hbond:THR:134>  (236) 
0

>  <pication:HIS:51>  (236) 
0

>  <hbond:SER:81>  (236) 
0

>  <hbond:GLY:159>  (236) 
0

>  <hydroph_interaction:PRO:101>  (236) 
0

>  <hydroph_interaction:THR:134>  (236) 
0

>  <hbond:GLY:82>  (236) 
0

>  <hydroph_interaction:GLU:104>  (236) 
0

>  <hydroph_interaction:VAL:36>  (236) 
0

>  <hydroph_interaction:MET:49>  (236) 
0

>  <halogenbond:GLU:104>  (236) 
0

>  <hydroph_interaction:LYS:107>  (236) 
0

$$$$
MCULE-2382032794
     RDKit          3D

 50 54  0  0  0  0  0  0  0  0999 V2000
   -6.5198    6.6830  -19.0497 C   0  0  0  0  0  0  0  0  0  0  0  0
   -6.2379    7.2716  -20.3833 C   0  0  0  0  0  0  0  0  0  0  0  0
   -6.9309    6.7965  -21.5093 C   0  0  0  0  0  0  0  0  0  0  0  0
   -6.6923    7.3381  -22.7755 C   0  0  0  0  0  0  0  0  0  0  0  0
   -5.7645    8.3804  -22.9428 C   0  0  0  0  0  0  0  0  0  0  0  0
   -5.0714    8.8573  -21.8176 C   0  0  0  0  0  0  0  0  0  0  0  0
   -5.3099    8.3159  -20.5512 C   0  0  0  0  0  0  0  0  0  0  0  0
   -5.4957    8.9617  -24.2804 C   0  0  0  0  0  0  0  0  0  0  0  0
   -4.3881    9.5258  -24.4980 O   0  0  0  0  0  0  0  0  0  0  0  0
   -6.4794    8.9091  -25.3255 N   0  0  0  0  0  0  0  0  0  0  0  0
   -6.1607    9.3347  -26.6875 C   0  0  0  0  0  0  0  0  0  0  0  0
   -7.3407    9.1443  -27.5886 C   0  0  0  0  0  0  0  0  0  0  0  0
   -7.6541    7.9544  -28.1585 N   0  0  0  0  0  0  0  0  0  0  0  0
   -8.7908    8.2063  -28.8181 C   0  0  0  0  0  0  0  0  0  0  0  0
   -9.1398    9.5109  -28.6321 C   0  0  0  0  0  0  0  0  0  0  0  0
  -10.2922   10.0504  -29.1992 C   0  0  0  0  0  0  0  0  0  0  0  0
  -11.0957    9.1989  -29.9821 C   0  0  0  0  0  0  0  0  0  0  0  0
  -10.7315    7.8456  -30.1728 C   0  0  0  0  0  0  0  0  0  0  0  0
   -9.5607    7.3328  -29.5826 C   0  0  0  0  0  0  0  0  0  0  0  0
   -8.2399   10.1311  -27.8479 N   0  0  0  0  0  0  0  0  0  0  0  0
   -7.7149    6.1351  -18.8317 O   0  0  0  0  0  0  0  0  0  0  0  0
   -8.0620    5.5825  -17.6734 C   0  0  0  0  0  0  0  0  0  0  0  0
   -9.3397    5.0357  -17.5232 C   0  0  0  0  0  0  0  0  0  0  0  0
   -9.7176    4.4532  -16.3107 C   0  0  0  0  0  0  0  0  0  0  0  0
   -8.8148    4.3985  -15.2377 C   0  0  0  0  0  0  0  0  0  0  0  0
   -7.5359    4.9607  -15.3780 C   0  0  0  0  0  0  0  0  0  0  0  0
   -7.1498    5.5488  -16.5963 C   0  0  0  0  0  0  0  0  0  0  0  0
   -5.8773    6.1085  -16.7892 C   0  0  0  0  0  0  0  0  0  0  0  0
   -5.0170    6.1010  -15.8670 O   0  0  0  0  0  0  0  0  0  0  0  0
   -5.5581    6.6773  -18.0231 C   0  0  0  0  0  0  0  0  0  0  0  0
   -9.2385    3.8071  -13.9256 C   0  0  0  0  0  0  0  0  0  0  0  0
   -7.6474    5.9898  -21.4140 H   0  0  0  0  0  0  0  0  0  0  0  0
   -7.2192    6.9188  -23.6220 H   0  0  0  0  0  0  0  0  0  0  0  0
   -4.3554    9.6644  -21.9136 H   0  0  0  0  0  0  0  0  0  0  0  0
   -4.7833    8.7371  -19.7057 H   0  0  0  0  0  0  0  0  0  0  0  0
   -7.4555    8.6137  -25.0973 H   0  0  0  0  0  0  0  0  0  0  0  0
   -5.8662   10.4062  -26.6840 H   0  0  0  0  0  0  0  0  0  0  0  0
   -5.3086    8.7352  -27.0737 H   0  0  0  0  0  0  0  0  0  0  0  0
   -7.1365    7.0499  -28.0892 H   0  0  0  0  0  0  0  0  0  0  0  0
  -10.5619   11.0868  -29.0433 H   0  0  0  0  0  0  0  0  0  0  0  0
  -11.9985    9.5825  -30.4392 H   0  0  0  0  0  0  0  0  0  0  0  0
  -11.3571    7.1997  -30.7751 H   0  0  0  0  0  0  0  0  0  0  0  0
   -9.2711    6.2988  -29.7179 H   0  0  0  0  0  0  0  0  0  0  0  0
  -10.0431    5.0661  -18.3459 H   0  0  0  0  0  0  0  0  0  0  0  0
  -10.7150    4.0436  -16.2088 H   0  0  0  0  0  0  0  0  0  0  0  0
   -6.8488    4.9363  -14.5402 H   0  0  0  0  0  0  0  0  0  0  0  0
   -4.5662    7.0815  -18.1789 H   0  0  0  0  0  0  0  0  0  0  0  0
   -8.3695    3.3556  -13.4011 H   0  0  0  0  0  0  0  0  0  0  0  0
   -9.6745    4.6025  -13.2860 H   0  0  0  0  0  0  0  0  0  0  0  0
   -9.9969    3.0102  -14.0804 H   0  0  0  0  0  0  0  0  0  0  0  0
  1  2  1  0
  2  3  2  0
  3  4  1  0
  4  5  2  0
  5  6  1  0
  6  7  2  0
  5  8  1  0
  8  9  2  0
  8 10  1  0
 10 11  1  0
 11 12  1  0
 12 13  1  0
 13 14  1  0
 14 15  2  0
 15 16  1  0
 16 17  2  0
 17 18  1  0
 18 19  2  0
 15 20  1  0
  1 21  1  0
 21 22  1  0
 22 23  2  0
 23 24  1  0
 24 25  2  0
 25 26  1  0
 26 27  2  0
 27 28  1  0
 28 29  2  0
 28 30  1  0
 25 31  1  0
  1 30  2  0
  2  7  1  0
 12 20  2  0
 14 19  1  0
 27 22  1  0
  3 32  1  0
  4 33  1  0
  6 34  1  0
  7 35  1  0
 10 36  1  0
 11 37  1  0
 11 38  1  0
 13 39  1  0
 16 40  1  0
 17 41  1  0
 18 42  1  0
 19 43  1  0
 23 44  1  0
 24 45  1  0
 26 46  1  0
 30 47  1  0
 31 48  1  0
 31 49  1  0
 31 50  1  0
A    1
 C1 
A    2
 C2 
A    3
 C3 
A    4
 C4 
A    5
 C5 
A    6
 C6 
A    7
 C7 
A    8
 C8 
A    9
 O1 
A   10
 N1 
A   11
 C9 
A   12
 C10
A   13
 N2 
A   14
 C11
A   15
 C12
A   16
 C13
A   17
 C14
A   18
 C15
A   19
 C16
A   20
 N3 
A   21
 O2 
A   22
 C17
A   23
 C18
A   24
 C19
A   25
 C20
A   26
 C21
A   27
 C22
A   28
 C23
A   29
 O3 
A   30
 C24
A   31
 C25
A   32
 H1 
A   33
 H2 
A   34
 H3 
A   35
 H4 
A   36
 H5 
A   37
 H6 
A   38
 H7 
A   39
 H8 
A   40
 H9 
A   41
 H10
A   42
 H11
A   43
 H12
A   44
 H13
A   45
 H14
A   46
 H15
A   47
 H16
A   48
 H17
A   49
 H18
A   50
 H19
M  END
>  <ref_pdb>  (237) 
x0051_0B

>  <ref_mols>  (237) 
x0727_0B,x0846_1B

>  <original SMILES>  (237) 
[H]c1c([H])c(-c2oc3c([H])c([H])c(C([H])([H])[H])c([H])c3c(=O)c2[H])c([H])c([H])c1C(=O)N([H])C([H])([H])c1nc2c([H])c([H])c([H])c([H])c2n1[H]

>  <index>  (237) 
361

>  <∆∆G>  (237) 
-9.925197

>  <∆G_bound>  (237) 
-8.869173

>  <∆G_unbound>  (237) 
1.056024

>  <comRMSD>  (237) 
0.837199

>  <N_constrained_atoms>  (237) 
29.0

>  <N_unconstrained_atoms>  (237) 
3.0

>  <runtime>  (237) 
57.475952

>  <LE>  (237) 
0.310162

>  <percent_hybrid>  (237) 
38.0

>  <dist>  (237) 
11.0

>  <ecfp4>  (237) 
0.206186

>  <daylight>  (237) 
0.375

>  <topodist>  (237) 
7.0

>  <mces>  (237) 
32.0

>  <tdn>  (237) 
2.0

>  <tup>  (237) 
2.0

>  <rdn>  (237) 
0.0

>  <rup>  (237) 
0.0

>  <ldn>  (237) 
2.0

>  <lup>  (237) 
1.0

>  <mut>  (237) 
3.0

>  <maj>  (237) 
3.0

>  <min>  (237) 
0.0

>  <hyb>  (237) 
1.0

>  <sub>  (237) 
2.0

>  <query_index>  (237) 
15.0

>  <max_hit_Tanimoto>  (237) 
0.275622

>  <largest_ring>  (237) 
6

>  <N_interactions_kept>  (237) 
1.0

>  <N_interactions_lost>  (237) 
2.0

>  <interaction_uniqueness_metric>  (237) 
0.166787

>  <ad_hoc_penalty>  (237) 
-23.230303

>  <N_rotatable_bonds>  (237) 
5

>  <N_HA>  (237) 
31

>  <cluster>  (237) 
5888

>  <N_interactions>  (237) 
5

>  <Enamine>  (237) 
0

>  <Mcule>  (237) 
1

>  <N_PAINS>  (237) 
0

>  <UFF_Gibbs>  (237) 
142.612817

>  <strain_per_HA>  (237) 
4.456651

>  <saltbridge:HIS:51>  (237) 
0

>  <pistack:HIS:51>  (237) 
0

>  <hydroph_interaction:HIS:51>  (237) 
0

>  <hbond:ALA:132>  (237) 
0

>  <hbond:SER:135>  (237) 
0

>  <hydroph_interaction:TYR:150>  (237) 
1

>  <pistack:TYR:161>  (237) 
0

>  <hydroph_interaction:TYR:161>  (237) 
1

>  <hydroph_interaction:ASP:83>  (237) 
0

>  <hbond:TYR:130>  (237) 
0

>  <hydroph_interaction:ALA:132>  (237) 
0

>  <hbond:HIS:51>  (237) 
0

>  <hbond:ASP:129>  (237) 
0

>  <hbond:TYR:150>  (237) 
0

>  <hbond:GLY:151>  (237) 
0

>  <hbond:TYR:161>  (237) 
0

>  <hydroph_interaction:TYR:130>  (237) 
1

>  <hydroph_interaction:PRO:131>  (237) 
1

>  <hydroph_interaction:ASP:129>  (237) 
1

>  <saltbridge:ASP:75>  (237) 
0

>  <saltbridge:ASP:83>  (237) 
0

>  <hydroph_interaction:ASN:152>  (237) 
0

>  <halogenbond:TYR:150>  (237) 
0

>  <hbond:ASP:83>  (237) 
0

>  <hydroph_interaction:VAL:155>  (237) 
0

>  <pication:TYR:161>  (237) 
0

>  <hbond:PRO:131>  (237) 
0

>  <hbond:LEU:128>  (237) 
0

>  <saltbridge:ASP:129>  (237) 
0

>  <hbond:THR:134>  (237) 
0

>  <pication:HIS:51>  (237) 
0

>  <hbond:SER:81>  (237) 
0

>  <hbond:GLY:159>  (237) 
0

>  <hydroph_interaction:PRO:101>  (237) 
0

>  <hydroph_interaction:THR:134>  (237) 
0

>  <hbond:GLY:82>  (237) 
0

>  <hydroph_interaction:GLU:104>  (237) 
0

>  <hydroph_interaction:VAL:36>  (237) 
0

>  <hydroph_interaction:MET:49>  (237) 
0

>  <halogenbond:GLU:104>  (237) 
0

>  <hydroph_interaction:LYS:107>  (237) 
0

$$$$
OBSUTIHBJMOOTE-UHFFFAOYSA-N
     RDKit          3D

 23 23  0  0  0  0  0  0  0  0999 V2000
   -5.9740    4.8577  -20.0803 N   0  0  0  0  0  0  0  0  0  0  0  0
   -6.9957    5.8758  -19.8117 C   0  0  0  0  0  0  0  0  0  0  0  0
   -7.5600    5.6799  -18.4235 C   0  0  0  0  0  0  0  0  0  0  0  0
   -8.7384    4.9269  -18.1807 C   0  0  0  0  0  0  0  0  0  0  0  0
   -9.5350    4.3154  -19.3037 C   0  0  0  0  0  0  0  0  0  0  0  0
   -9.1950    4.7720  -16.8597 C   0  0  0  0  0  0  0  0  0  0  0  0
   -8.4875    5.3270  -15.7923 C   0  0  0  0  0  0  0  0  0  0  0  0
   -7.3153    6.0457  -16.0274 C   0  0  0  0  0  0  0  0  0  0  0  0
   -6.4229    6.7321  -14.6820 Cl  0  0  0  0  0  0  0  0  0  0  0  0
   -6.8521    6.2178  -17.3339 C   0  0  0  0  0  0  0  0  0  0  0  0
   -5.3550    5.0902  -21.3860 C   0  0  0  0  0  0  0  0  0  0  0  0
   -6.4429    3.9225  -20.1186 H   0  0  0  0  0  0  0  0  0  0  0  0
   -6.5427    6.8910  -19.8740 H   0  0  0  0  0  0  0  0  0  0  0  0
   -7.7969    5.8403  -20.5815 H   0  0  0  0  0  0  0  0  0  0  0  0
  -10.3371    3.6492  -18.9207 H   0  0  0  0  0  0  0  0  0  0  0  0
   -8.8764    3.7044  -19.9548 H   0  0  0  0  0  0  0  0  0  0  0  0
  -10.0101    5.1186  -19.9049 H   0  0  0  0  0  0  0  0  0  0  0  0
  -10.1012    4.2163  -16.6519 H   0  0  0  0  0  0  0  0  0  0  0  0
   -8.8509    5.1944  -14.7811 H   0  0  0  0  0  0  0  0  0  0  0  0
   -5.9373    6.7737  -17.5016 H   0  0  0  0  0  0  0  0  0  0  0  0
   -4.5984    4.3007  -21.5796 H   0  0  0  0  0  0  0  0  0  0  0  0
   -4.8360    6.0727  -21.3984 H   0  0  0  0  0  0  0  0  0  0  0  0
   -6.1151    5.0567  -22.1978 H   0  0  0  0  0  0  0  0  0  0  0  0
  1  2  1  0
  2  3  1  0
  3  4  2  0
  4  5  1  0
  4  6  1  0
  6  7  2  0
  7  8  1  0
  8  9  1  0
  8 10  2  0
  1 11  1  0
 10  3  1  0
  1 12  1  0
  2 13  1  0
  2 14  1  0
  5 15  1  0
  5 16  1  0
  5 17  1  0
  6 18  1  0
  7 19  1  0
 10 20  1  0
 11 21  1  0
 11 22  1  0
 11 23  1  0
A    1
 N1 
A    2
 C1 
A    3
 C2 
A    4
 C3 
A    5
 C4 
A    6
 C5 
A    7
 C6 
A    8
 C7 
A    9
CL1 
A   10
 C8 
A   11
 C9 
A   12
 H1 
A   13
 H2 
A   14
 H3 
A   15
 H4 
A   16
 H5 
A   17
 H6 
A   18
 H7 
A   19
 H8 
A   20
 H9 
A   21
 H10
A   22
 H11
A   23
 H12
M  END
>  <ref_pdb>  (238) 
x0051_0B

>  <ref_mols>  (238) 
x0589_0B,x0386_0B

>  <original SMILES>  (238) 
[H]c1c([H])c(C([H])([H])[H])c(C([H])([H])N([H])C([H])([H])[H])c([H])c1Cl

>  <index>  (238) 
380

>  <∆∆G>  (238) 
-7.30275

>  <∆G_bound>  (238) 
-7.447955

>  <∆G_unbound>  (238) 
-0.145205

>  <comRMSD>  (238) 
0.784103

>  <N_constrained_atoms>  (238) 
9.0

>  <N_unconstrained_atoms>  (238) 
3.0

>  <runtime>  (238) 
26.847162

>  <LE>  (238) 
0.608563

>  <percent_hybrid>  (238) 
34.0

>  <dist>  (238) 
3.0

>  <ecfp4>  (238) 
0.116279

>  <daylight>  (238) 
0.411765

>  <topodist>  (238) 
2.0

>  <mces>  (238) 
9.0

>  <tdn>  (238) 
0.0

>  <tup>  (238) 
2.0

>  <rdn>  (238) 
0.0

>  <rup>  (238) 
0.0

>  <ldn>  (238) 
0.0

>  <lup>  (238) 
0.0

>  <mut>  (238) 
1.0

>  <maj>  (238) 
0.0

>  <min>  (238) 
1.0

>  <hyb>  (238) 
0.0

>  <sub>  (238) 
2.0

>  <query_index>  (238) 
373.0

>  <max_hit_Tanimoto>  (238) 
0.070423

>  <largest_ring>  (238) 
6

>  <N_interactions_kept>  (238) 
2.0

>  <N_interactions_lost>  (238) 
0.0

>  <interaction_uniqueness_metric>  (238) 
0.046888

>  <ad_hoc_penalty>  (238) 
-23.216215

>  <N_rotatable_bonds>  (238) 
4

>  <N_HA>  (238) 
11

>  <cluster>  (238) 
5869

>  <N_interactions>  (238) 
3

>  <Enamine>  (238) 
0

>  <Mcule>  (238) 
1

>  <N_PAINS>  (238) 
0

>  <UFF_Gibbs>  (238) 
36.002633

>  <strain_per_HA>  (238) 
3.000219

>  <saltbridge:HIS:51>  (238) 
0

>  <pistack:HIS:51>  (238) 
0

>  <hydroph_interaction:HIS:51>  (238) 
0

>  <hbond:ALA:132>  (238) 
0

>  <hbond:SER:135>  (238) 
0

>  <hydroph_interaction:TYR:150>  (238) 
1

>  <pistack:TYR:161>  (238) 
0

>  <hydroph_interaction:TYR:161>  (238) 
1

>  <hydroph_interaction:ASP:83>  (238) 
0

>  <hbond:TYR:130>  (238) 
0

>  <hydroph_interaction:ALA:132>  (238) 
1

>  <hbond:HIS:51>  (238) 
0

>  <hbond:ASP:129>  (238) 
0

>  <hbond:TYR:150>  (238) 
0

>  <hbond:GLY:151>  (238) 
0

>  <hbond:TYR:161>  (238) 
0

>  <hydroph_interaction:TYR:130>  (238) 
0

>  <hydroph_interaction:PRO:131>  (238) 
0

>  <hydroph_interaction:ASP:129>  (238) 
0

>  <saltbridge:ASP:75>  (238) 
0

>  <saltbridge:ASP:83>  (238) 
0

>  <hydroph_interaction:ASN:152>  (238) 
0

>  <halogenbond:TYR:150>  (238) 
0

>  <hbond:ASP:83>  (238) 
0

>  <hydroph_interaction:VAL:155>  (238) 
0

>  <pication:TYR:161>  (238) 
0

>  <hbond:PRO:131>  (238) 
0

>  <hbond:LEU:128>  (238) 
0

>  <saltbridge:ASP:129>  (238) 
0

>  <hbond:THR:134>  (238) 
0

>  <pication:HIS:51>  (238) 
0

>  <hbond:SER:81>  (238) 
0

>  <hbond:GLY:159>  (238) 
0

>  <hydroph_interaction:PRO:101>  (238) 
0

>  <hydroph_interaction:THR:134>  (238) 
0

>  <hbond:GLY:82>  (238) 
0

>  <hydroph_interaction:GLU:104>  (238) 
0

>  <hydroph_interaction:VAL:36>  (238) 
0

>  <hydroph_interaction:MET:49>  (238) 
0

>  <halogenbond:GLU:104>  (238) 
0

>  <hydroph_interaction:LYS:107>  (238) 
0

$$$$
MCULE-8315662683
     RDKit          3D

 18 19  0  0  0  0  0  0  0  0999 V2000
   -7.9282    5.0213  -18.1872 C   0  0  0  0  0  0  0  0  0  0  0  0
   -8.3446    5.0768  -16.8681 C   0  0  0  0  0  0  0  0  0  0  0  0
   -9.7055    4.8578  -16.8905 C   0  0  0  0  0  0  0  0  0  0  0  0
  -10.1058    4.6777  -18.1274 O   0  0  0  0  0  0  0  0  0  0  0  0
   -9.0707    4.7684  -18.9299 C   0  0  0  0  0  0  0  0  0  0  0  0
   -6.5439    5.1970  -18.6986 C   0  0  0  0  0  0  0  0  0  0  0  0
   -6.2937    5.3593  -20.0743 C   0  0  0  0  0  0  0  0  0  0  0  0
   -5.0221    5.5199  -20.5287 N   0  0  0  0  0  0  0  0  0  0  0  0
   -3.9562    5.5285  -19.6871 C   0  0  0  0  0  0  0  0  0  0  0  0
   -4.1499    5.3716  -18.3155 C   0  0  0  0  0  0  0  0  0  0  0  0
   -5.4446    5.2062  -17.8211 C   0  0  0  0  0  0  0  0  0  0  0  0
   -7.7445    5.2649  -15.9886 H   0  0  0  0  0  0  0  0  0  0  0  0
  -10.3582    4.8359  -16.0282 H   0  0  0  0  0  0  0  0  0  0  0  0
   -9.1339    4.6522  -20.0029 H   0  0  0  0  0  0  0  0  0  0  0  0
   -7.1024    5.3707  -20.7908 H   0  0  0  0  0  0  0  0  0  0  0  0
   -2.9580    5.6575  -20.0836 H   0  0  0  0  0  0  0  0  0  0  0  0
   -3.3035    5.3759  -17.6408 H   0  0  0  0  0  0  0  0  0  0  0  0
   -5.5774    5.0756  -16.7559 H   0  0  0  0  0  0  0  0  0  0  0  0
  1  2  1  0
  2  3  2  0
  3  4  1  0
  4  5  1  0
  1  6  1  0
  6  7  2  0
  7  8  1  0
  8  9  2  0
  9 10  1  0
 10 11  2  0
  1  5  2  0
  6 11  1  0
  2 12  1  0
  3 13  1  0
  5 14  1  0
  7 15  1  0
  9 16  1  0
 10 17  1  0
 11 18  1  0
A    1
 C1 
A    2
 C2 
A    3
 C3 
A    4
 O1 
A    5
 C4 
A    6
 C5 
A    7
 C6 
A    8
 N1 
A    9
 C7 
A   10
 C8 
A   11
 C9 
A   12
 H1 
A   13
 H2 
A   14
 H3 
A   15
 H4 
A   16
 H5 
A   17
 H6 
A   18
 H7 
M  END
>  <ref_pdb>  (239) 
x0051_0B

>  <ref_mols>  (239) 
x0680_0B,x0386_0B

>  <original SMILES>  (239) 
[H]c1nc([H])c(-c2c([H])oc([H])c2[H])c([H])c1[H]

>  <index>  (239) 
381

>  <∆∆G>  (239) 
-5.273917

>  <∆G_bound>  (239) 
-5.287037

>  <∆G_unbound>  (239) 
-0.01312

>  <comRMSD>  (239) 
0.639671

>  <N_constrained_atoms>  (239) 
13.0

>  <N_unconstrained_atoms>  (239) 
0.0

>  <runtime>  (239) 
21.920014

>  <LE>  (239) 
0.405686

>  <percent_hybrid>  (239) 
25.0

>  <dist>  (239) 
2.0

>  <ecfp4>  (239) 
0.276596

>  <daylight>  (239) 
0.438017

>  <topodist>  (239) 
1.0

>  <mces>  (239) 
12.0

>  <tdn>  (239) 
1.0

>  <tup>  (239) 
0.0

>  <rdn>  (239) 
0.0

>  <rup>  (239) 
0.0

>  <ldn>  (239) 
0.0

>  <lup>  (239) 
0.0

>  <mut>  (239) 
1.0

>  <maj>  (239) 
1.0

>  <min>  (239) 
0.0

>  <hyb>  (239) 
0.0

>  <sub>  (239) 
1.0

>  <query_index>  (239) 
296.0

>  <max_hit_Tanimoto>  (239) 
0.122153

>  <largest_ring>  (239) 
6

>  <N_interactions_kept>  (239) 
3.5

>  <N_interactions_lost>  (239) 
0.5

>  <interaction_uniqueness_metric>  (239) 
0.016266

>  <ad_hoc_penalty>  (239) 
-23.213088

>  <N_rotatable_bonds>  (239) 
1

>  <N_HA>  (239) 
11

>  <cluster>  (239) 
5868

>  <N_interactions>  (239) 
3

>  <Enamine>  (239) 
0

>  <Mcule>  (239) 
1

>  <N_PAINS>  (239) 
0

>  <UFF_Gibbs>  (239) 
34.529714

>  <strain_per_HA>  (239) 
2.656132

>  <saltbridge:HIS:51>  (239) 
0

>  <pistack:HIS:51>  (239) 
0

>  <hydroph_interaction:HIS:51>  (239) 
0

>  <hbond:ALA:132>  (239) 
0

>  <hbond:SER:135>  (239) 
0

>  <hydroph_interaction:TYR:150>  (239) 
0

>  <pistack:TYR:161>  (239) 
0

>  <hydroph_interaction:TYR:161>  (239) 
3

>  <hydroph_interaction:ASP:83>  (239) 
0

>  <hbond:TYR:130>  (239) 
0

>  <hydroph_interaction:ALA:132>  (239) 
0

>  <hbond:HIS:51>  (239) 
0

>  <hbond:ASP:129>  (239) 
0

>  <hbond:TYR:150>  (239) 
0

>  <hbond:GLY:151>  (239) 
0

>  <hbond:TYR:161>  (239) 
0

>  <hydroph_interaction:TYR:130>  (239) 
0

>  <hydroph_interaction:PRO:131>  (239) 
0

>  <hydroph_interaction:ASP:129>  (239) 
0

>  <saltbridge:ASP:75>  (239) 
0

>  <saltbridge:ASP:83>  (239) 
0

>  <hydroph_interaction:ASN:152>  (239) 
0

>  <halogenbond:TYR:150>  (239) 
0

>  <hbond:ASP:83>  (239) 
0

>  <hydroph_interaction:VAL:155>  (239) 
0

>  <pication:TYR:161>  (239) 
0

>  <hbond:PRO:131>  (239) 
0

>  <hbond:LEU:128>  (239) 
0

>  <saltbridge:ASP:129>  (239) 
0

>  <hbond:THR:134>  (239) 
0

>  <pication:HIS:51>  (239) 
0

>  <hbond:SER:81>  (239) 
0

>  <hbond:GLY:159>  (239) 
0

>  <hydroph_interaction:PRO:101>  (239) 
0

>  <hydroph_interaction:THR:134>  (239) 
0

>  <hbond:GLY:82>  (239) 
0

>  <hydroph_interaction:GLU:104>  (239) 
0

>  <hydroph_interaction:VAL:36>  (239) 
0

>  <hydroph_interaction:MET:49>  (239) 
0

>  <halogenbond:GLU:104>  (239) 
0

>  <hydroph_interaction:LYS:107>  (239) 
0

$$$$
MCULE-4054944874
     RDKit          3D

 40 42  0  0  0  0  0  0  0  0999 V2000
   -8.6182    6.0745  -14.1129 C   0  0  0  0  0  0  0  0  0  0  0  0
   -8.6615    5.5823  -12.7143 C   0  0  0  0  0  0  0  0  0  0  0  0
   -9.2108    6.3844  -11.6984 C   0  0  0  0  0  0  0  0  0  0  0  0
   -9.2601    5.9259  -10.3791 C   0  0  0  0  0  0  0  0  0  0  0  0
   -8.7662    4.6552  -10.0479 C   0  0  0  0  0  0  0  0  0  0  0  0
   -8.8257    4.1867   -8.6868 N   0  0  0  0  0  0  0  0  0  0  0  0
   -9.1666    2.7904   -8.3978 C   0  0  0  0  0  0  0  0  0  0  0  0
   -9.8198    2.6949   -7.0154 C   0  0  0  0  0  0  0  0  0  0  0  0
   -9.0130    3.3178   -6.0333 O   0  0  0  0  0  0  0  0  0  0  0  0
   -8.9275    4.7064   -6.2938 C   0  0  0  0  0  0  0  0  0  0  0  0
   -8.1991    4.9679   -7.6155 C   0  0  0  0  0  0  0  0  0  0  0  0
   -8.2322    3.8451  -11.0632 C   0  0  0  0  0  0  0  0  0  0  0  0
   -8.1805    4.3031  -12.3827 C   0  0  0  0  0  0  0  0  0  0  0  0
   -9.3468    7.0475  -14.4511 O   0  0  0  0  0  0  0  0  0  0  0  0
   -7.7217    5.4895  -15.0727 N   0  0  0  0  0  0  0  0  0  0  0  0
   -7.8893    5.6067  -16.4964 C   0  0  0  0  0  0  0  0  0  0  0  0
   -9.1672    5.6776  -17.0806 C   0  0  0  0  0  0  0  0  0  0  0  0
   -9.3089    5.7696  -18.4723 C   0  0  0  0  0  0  0  0  0  0  0  0
  -10.6313    5.8447  -19.0423 C   0  0  0  0  0  0  0  0  0  0  0  0
  -11.6928    5.9050  -19.4993 N   0  0  0  0  0  0  0  0  0  0  0  0
   -8.1663    5.7782  -19.2923 C   0  0  0  0  0  0  0  0  0  0  0  0
   -8.2936    5.8920  -21.0447 Cl  0  0  0  0  0  0  0  0  0  0  0  0
   -6.8966    5.6861  -18.7130 C   0  0  0  0  0  0  0  0  0  0  0  0
   -6.7588    5.5939  -17.3260 C   0  0  0  0  0  0  0  0  0  0  0  0
   -9.5990    7.3703  -11.9221 H   0  0  0  0  0  0  0  0  0  0  0  0
   -9.7010    6.5569   -9.6181 H   0  0  0  0  0  0  0  0  0  0  0  0
   -9.8749    2.3979   -9.1600 H   0  0  0  0  0  0  0  0  0  0  0  0
   -8.2416    2.1741   -8.4143 H   0  0  0  0  0  0  0  0  0  0  0  0
   -9.9358    1.6231   -6.7499 H   0  0  0  0  0  0  0  0  0  0  0  0
  -10.8415    3.1388   -7.0364 H   0  0  0  0  0  0  0  0  0  0  0  0
   -8.3559    5.1856   -5.4714 H   0  0  0  0  0  0  0  0  0  0  0  0
   -9.9376    5.1761   -6.3070 H   0  0  0  0  0  0  0  0  0  0  0  0
   -7.1348    4.6626   -7.5184 H   0  0  0  0  0  0  0  0  0  0  0  0
   -8.2298    6.0556   -7.8372 H   0  0  0  0  0  0  0  0  0  0  0  0
   -7.8472    2.8599  -10.8336 H   0  0  0  0  0  0  0  0  0  0  0  0
   -7.7795    3.6448  -13.1421 H   0  0  0  0  0  0  0  0  0  0  0  0
   -6.8396    5.0550  -14.7191 H   0  0  0  0  0  0  0  0  0  0  0  0
  -10.0528    5.6384  -16.4583 H   0  0  0  0  0  0  0  0  0  0  0  0
   -6.0128    5.6844  -19.3384 H   0  0  0  0  0  0  0  0  0  0  0  0
   -5.7680    5.5219  -16.8952 H   0  0  0  0  0  0  0  0  0  0  0  0
  1  2  1  0
  2  3  2  0
  3  4  1  0
  4  5  2  0
  5  6  1  0
  6  7  1  0
  7  8  1  0
  8  9  1  0
  9 10  1  0
 10 11  1  0
  5 12  1  0
 12 13  2  0
  1 14  2  0
  1 15  1  0
 15 16  1  0
 16 17  2  0
 17 18  1  0
 18 19  1  0
 19 20  3  0
 18 21  2  0
 21 22  1  0
 21 23  1  0
 23 24  2  0
  2 13  1  0
 11  6  1  0
 16 24  1  0
  3 25  1  0
  4 26  1  0
  7 27  1  0
  7 28  1  0
  8 29  1  0
  8 30  1  0
 10 31  1  0
 10 32  1  0
 11 33  1  0
 11 34  1  0
 12 35  1  0
 13 36  1  0
 15 37  1  0
 17 38  1  0
 23 39  1  0
 24 40  1  0
A    1
 C1 
A    2
 C2 
A    3
 C3 
A    4
 C4 
A    5
 C5 
A    6
 N1 
A    7
 C6 
A    8
 C7 
A    9
 O1 
A   10
 C8 
A   11
 C9 
A   12
 C10
A   13
 C11
A   14
 O2 
A   15
 N2 
A   16
 C12
A   17
 C13
A   18
 C14
A   19
 C15
A   20
 N3 
A   21
 C16
A   22
CL1 
A   23
 C17
A   24
 C18
A   25
 H1 
A   26
 H2 
A   27
 H3 
A   28
 H4 
A   29
 H5 
A   30
 H6 
A   31
 H7 
A   32
 H8 
A   33
 H9 
A   34
 H10
A   35
 H11
A   36
 H12
A   37
 H13
A   38
 H14
A   39
 H15
A   40
 H16
M  END
>  <ref_pdb>  (240) 
x0051_0B

>  <ref_mols>  (240) 
x0553_0B,x0404_0B

>  <original SMILES>  (240) 
[H]c1c([H])c(N([H])C(=O)c2c([H])c([H])c(N3C([H])([H])C([H])([H])OC([H])([H])C3([H])[H])c([H])c2[H])c([H])c(C#N)c1Cl

>  <index>  (240) 
313

>  <∆∆G>  (240) 
-5.637168

>  <∆G_bound>  (240) 
-5.224219

>  <∆G_unbound>  (240) 
0.412949

>  <comRMSD>  (240) 
0.622326

>  <N_constrained_atoms>  (240) 
24.0

>  <N_unconstrained_atoms>  (240) 
1.0

>  <runtime>  (240) 
76.964958

>  <LE>  (240) 
0.225487

>  <percent_hybrid>  (240) 
38.0

>  <dist>  (240) 
7.0

>  <ecfp4>  (240) 
0.25

>  <daylight>  (240) 
0.236453

>  <topodist>  (240) 
4.0

>  <mces>  (240) 
25.0

>  <tdn>  (240) 
2.0

>  <tup>  (240) 
1.0

>  <rdn>  (240) 
0.0

>  <rup>  (240) 
0.0

>  <ldn>  (240) 
1.0

>  <lup>  (240) 
0.0

>  <mut>  (240) 
2.0

>  <maj>  (240) 
2.0

>  <min>  (240) 
0.0

>  <hyb>  (240) 
1.0

>  <sub>  (240) 
2.0

>  <query_index>  (240) 
112.0

>  <max_hit_Tanimoto>  (240) 
0.239193

>  <largest_ring>  (240) 
6

>  <N_interactions_kept>  (240) 
1.0

>  <N_interactions_lost>  (240) 
2.5

>  <interaction_uniqueness_metric>  (240) 
0.550597

>  <ad_hoc_penalty>  (240) 
-23.196795

>  <N_rotatable_bonds>  (240) 
3

>  <N_HA>  (240) 
24

>  <cluster>  (240) 
5934

>  <N_interactions>  (240) 
7

>  <Enamine>  (240) 
0

>  <Mcule>  (240) 
1

>  <N_PAINS>  (240) 
0

>  <UFF_Gibbs>  (240) 
256.646272

>  <strain_per_HA>  (240) 
10.265851

>  <saltbridge:HIS:51>  (240) 
0

>  <pistack:HIS:51>  (240) 
1

>  <hydroph_interaction:HIS:51>  (240) 
1

>  <hbond:ALA:132>  (240) 
0

>  <hbond:SER:135>  (240) 
0

>  <hydroph_interaction:TYR:150>  (240) 
0

>  <pistack:TYR:161>  (240) 
1

>  <hydroph_interaction:TYR:161>  (240) 
0

>  <hydroph_interaction:ASP:83>  (240) 
0

>  <hbond:TYR:130>  (240) 
0

>  <hydroph_interaction:ALA:132>  (240) 
1

>  <hbond:HIS:51>  (240) 
0

>  <hbond:ASP:129>  (240) 
0

>  <hbond:TYR:150>  (240) 
0

>  <hbond:GLY:151>  (240) 
0

>  <hbond:TYR:161>  (240) 
0

>  <hydroph_interaction:TYR:130>  (240) 
0

>  <hydroph_interaction:PRO:131>  (240) 
0

>  <hydroph_interaction:ASP:129>  (240) 
0

>  <saltbridge:ASP:75>  (240) 
0

>  <saltbridge:ASP:83>  (240) 
0

>  <hydroph_interaction:ASN:152>  (240) 
0

>  <halogenbond:TYR:150>  (240) 
1

>  <hbond:ASP:83>  (240) 
0

>  <hydroph_interaction:VAL:155>  (240) 
0

>  <pication:TYR:161>  (240) 
0

>  <hbond:PRO:131>  (240) 
1

>  <hbond:LEU:128>  (240) 
0

>  <saltbridge:ASP:129>  (240) 
0

>  <hbond:THR:134>  (240) 
1

>  <pication:HIS:51>  (240) 
0

>  <hbond:SER:81>  (240) 
0

>  <hbond:GLY:159>  (240) 
0

>  <hydroph_interaction:PRO:101>  (240) 
0

>  <hydroph_interaction:THR:134>  (240) 
0

>  <hbond:GLY:82>  (240) 
0

>  <hydroph_interaction:GLU:104>  (240) 
0

>  <hydroph_interaction:VAL:36>  (240) 
0

>  <hydroph_interaction:MET:49>  (240) 
0

>  <halogenbond:GLU:104>  (240) 
0

>  <hydroph_interaction:LYS:107>  (240) 
0

$$$$
MCULE-9058033267
     RDKit          3D

 18 19  0  0  0  0  0  0  0  0999 V2000
   -7.9170    5.0474  -18.2027 C   0  0  0  0  0  0  0  0  0  0  0  0
   -8.3608    5.1247  -16.8936 C   0  0  0  0  0  0  0  0  0  0  0  0
   -9.7192    4.8946  -16.9397 C   0  0  0  0  0  0  0  0  0  0  0  0
  -10.0926    4.6877  -18.1808 O   0  0  0  0  0  0  0  0  0  0  0  0
   -9.0420    4.7713  -18.9635 C   0  0  0  0  0  0  0  0  0  0  0  0
   -6.5238    5.2243  -18.6890 C   0  0  0  0  0  0  0  0  0  0  0  0
   -5.4426    5.2565  -17.7897 C   0  0  0  0  0  0  0  0  0  0  0  0
   -4.1392    5.4229  -18.2613 C   0  0  0  0  0  0  0  0  0  0  0  0
   -3.0963    5.4504  -17.3953 F   0  0  0  0  0  0  0  0  0  0  0  0
   -3.9189    5.5576  -19.6315 C   0  0  0  0  0  0  0  0  0  0  0  0
   -4.9677    5.5268  -20.4937 N   0  0  0  0  0  0  0  0  0  0  0  0
   -6.2471    5.3648  -20.0620 C   0  0  0  0  0  0  0  0  0  0  0  0
   -7.7803    5.3344  -16.0059 H   0  0  0  0  0  0  0  0  0  0  0  0
  -10.3894    4.8840  -16.0906 H   0  0  0  0  0  0  0  0  0  0  0  0
   -9.0821    4.6342  -20.0352 H   0  0  0  0  0  0  0  0  0  0  0  0
   -5.5973    5.1430  -16.7256 H   0  0  0  0  0  0  0  0  0  0  0  0
   -2.9142    5.6872  -20.0114 H   0  0  0  0  0  0  0  0  0  0  0  0
   -7.0414    5.3581  -20.7946 H   0  0  0  0  0  0  0  0  0  0  0  0
  1  2  1  0
  2  3  2  0
  3  4  1  0
  4  5  1  0
  1  6  1  0
  6  7  2  0
  7  8  1  0
  8  9  1  0
  8 10  2  0
 10 11  1  0
 11 12  2  0
  1  5  2  0
  6 12  1  0
  2 13  1  0
  3 14  1  0
  5 15  1  0
  7 16  1  0
 10 17  1  0
 12 18  1  0
A    1
 C1 
A    2
 C2 
A    3
 C3 
A    4
 O1 
A    5
 C4 
A    6
 C5 
A    7
 C6 
A    8
 C7 
A    9
 F1 
A   10
 C8 
A   11
 N1 
A   12
 C9 
A   13
 H1 
A   14
 H2 
A   15
 H3 
A   16
 H4 
A   17
 H5 
A   18
 H6 
M  END
>  <ref_pdb>  (241) 
x0051_0B

>  <ref_mols>  (241) 
x0680_0B,x0386_0B

>  <original SMILES>  (241) 
[H]c1nc([H])c(-c2c([H])oc([H])c2[H])c([H])c1F

>  <index>  (241) 
373

>  <∆∆G>  (241) 
-5.495469

>  <∆G_bound>  (241) 
-5.473664

>  <∆G_unbound>  (241) 
0.021805

>  <comRMSD>  (241) 
0.634227

>  <N_constrained_atoms>  (241) 
13.0

>  <N_unconstrained_atoms>  (241) 
1.0

>  <runtime>  (241) 
23.455277

>  <LE>  (241) 
0.392533

>  <percent_hybrid>  (241) 
25.0

>  <dist>  (241) 
3.0

>  <ecfp4>  (241) 
0.192308

>  <daylight>  (241) 
0.416667

>  <topodist>  (241) 
2.0

>  <mces>  (241) 
12.0

>  <tdn>  (241) 
1.0

>  <tup>  (241) 
1.0

>  <rdn>  (241) 
0.0

>  <rup>  (241) 
0.0

>  <ldn>  (241) 
0.0

>  <lup>  (241) 
0.0

>  <mut>  (241) 
1.0

>  <maj>  (241) 
1.0

>  <min>  (241) 
0.0

>  <hyb>  (241) 
0.0

>  <sub>  (241) 
2.0

>  <query_index>  (241) 
296.0

>  <max_hit_Tanimoto>  (241) 
0.115865

>  <largest_ring>  (241) 
6

>  <N_interactions_kept>  (241) 
3.5

>  <N_interactions_lost>  (241) 
0.5

>  <interaction_uniqueness_metric>  (241) 
0.016266

>  <ad_hoc_penalty>  (241) 
-23.186215

>  <N_rotatable_bonds>  (241) 
1

>  <N_HA>  (241) 
12

>  <cluster>  (241) 
5876

>  <N_interactions>  (241) 
3

>  <Enamine>  (241) 
0

>  <Mcule>  (241) 
1

>  <N_PAINS>  (241) 
0

>  <UFF_Gibbs>  (241) 
39.779177

>  <strain_per_HA>  (241) 
2.84137

>  <saltbridge:HIS:51>  (241) 
0

>  <pistack:HIS:51>  (241) 
0

>  <hydroph_interaction:HIS:51>  (241) 
0

>  <hbond:ALA:132>  (241) 
0

>  <hbond:SER:135>  (241) 
0

>  <hydroph_interaction:TYR:150>  (241) 
0

>  <pistack:TYR:161>  (241) 
0

>  <hydroph_interaction:TYR:161>  (241) 
3

>  <hydroph_interaction:ASP:83>  (241) 
0

>  <hbond:TYR:130>  (241) 
0

>  <hydroph_interaction:ALA:132>  (241) 
0

>  <hbond:HIS:51>  (241) 
0

>  <hbond:ASP:129>  (241) 
0

>  <hbond:TYR:150>  (241) 
0

>  <hbond:GLY:151>  (241) 
0

>  <hbond:TYR:161>  (241) 
0

>  <hydroph_interaction:TYR:130>  (241) 
0

>  <hydroph_interaction:PRO:131>  (241) 
0

>  <hydroph_interaction:ASP:129>  (241) 
0

>  <saltbridge:ASP:75>  (241) 
0

>  <saltbridge:ASP:83>  (241) 
0

>  <hydroph_interaction:ASN:152>  (241) 
0

>  <halogenbond:TYR:150>  (241) 
0

>  <hbond:ASP:83>  (241) 
0

>  <hydroph_interaction:VAL:155>  (241) 
0

>  <pication:TYR:161>  (241) 
0

>  <hbond:PRO:131>  (241) 
0

>  <hbond:LEU:128>  (241) 
0

>  <saltbridge:ASP:129>  (241) 
0

>  <hbond:THR:134>  (241) 
0

>  <pication:HIS:51>  (241) 
0

>  <hbond:SER:81>  (241) 
0

>  <hbond:GLY:159>  (241) 
0

>  <hydroph_interaction:PRO:101>  (241) 
0

>  <hydroph_interaction:THR:134>  (241) 
0

>  <hbond:GLY:82>  (241) 
0

>  <hydroph_interaction:GLU:104>  (241) 
0

>  <hydroph_interaction:VAL:36>  (241) 
0

>  <hydroph_interaction:MET:49>  (241) 
0

>  <halogenbond:GLU:104>  (241) 
0

>  <hydroph_interaction:LYS:107>  (241) 
0

$$$$
VSLLJGPNQHJCTI-UHFFFAOYSA-N
     RDKit          3D

 56 58  0  0  0  0  0  0  0  0999 V2000
   -9.7322    4.5171  -15.6679 C   0  0  0  0  0  0  0  0  0  0  0  0
   -9.0695    5.4009  -14.7466 N   0  0  0  0  0  0  0  0  0  0  0  0
   -9.1603    5.2833  -13.3150 C   0  0  0  0  0  0  0  0  0  0  0  0
   -9.4319    4.0498  -12.6931 C   0  0  0  0  0  0  0  0  0  0  0  0
   -9.4897    3.9575  -11.3004 C   0  0  0  0  0  0  0  0  0  0  0  0
   -9.2581    5.0889  -10.5039 C   0  0  0  0  0  0  0  0  0  0  0  0
   -9.3009    4.9716   -9.0033 C   0  0  0  0  0  0  0  0  0  0  0  0
   -8.2188    4.0756   -8.5370 N   0  0  0  0  0  0  0  0  0  0  0  0
   -8.5559    3.4123   -7.2631 C   0  0  0  0  0  0  0  0  0  0  0  0
   -8.5124    4.3996   -6.0723 C   0  0  0  0  0  0  0  0  0  0  0  0
   -7.8092    5.5958   -6.3612 O   0  0  0  0  0  0  0  0  0  0  0  0
   -6.6097    5.3022   -7.0419 C   0  0  0  0  0  0  0  0  0  0  0  0
   -6.9086    4.7649   -8.4553 C   0  0  0  0  0  0  0  0  0  0  0  0
   -8.9657    6.3158  -11.1205 C   0  0  0  0  0  0  0  0  0  0  0  0
   -8.9139    6.4098  -12.5144 C   0  0  0  0  0  0  0  0  0  0  0  0
  -10.7922    3.9301  -15.3123 O   0  0  0  0  0  0  0  0  0  0  0  0
   -9.2188    4.3212  -17.0485 C   0  0  0  0  0  0  0  0  0  0  0  0
  -10.0190    3.6812  -18.0145 C   0  0  0  0  0  0  0  0  0  0  0  0
   -9.5427    3.4837  -19.3119 C   0  0  0  0  0  0  0  0  0  0  0  0
   -8.2652    3.9197  -19.6668 C   0  0  0  0  0  0  0  0  0  0  0  0
   -7.4454    4.5552  -18.7161 C   0  0  0  0  0  0  0  0  0  0  0  0
   -6.1534    5.0089  -19.0208 O   0  0  0  0  0  0  0  0  0  0  0  0
   -5.5371    4.8913  -20.3015 C   0  0  0  0  0  0  0  0  0  0  0  0
   -4.1496    5.4702  -20.2578 C   0  0  0  0  0  0  0  0  0  0  0  0
   -3.4934    5.9597  -21.4483 N   0  0  0  0  0  0  0  0  0  0  0  0
   -2.1887    6.6157  -21.3229 C   0  0  0  0  0  0  0  0  0  0  0  0
   -4.1199    5.8213  -22.7665 C   0  0  0  0  0  0  0  0  0  0  0  0
   -3.5284    5.4657  -19.1612 O   0  0  0  0  0  0  0  0  0  0  0  0
   -7.9256    4.7452  -17.4133 C   0  0  0  0  0  0  0  0  0  0  0  0
   -8.5704    6.2300  -15.1374 H   0  0  0  0  0  0  0  0  0  0  0  0
   -9.5756    3.1501  -13.2771 H   0  0  0  0  0  0  0  0  0  0  0  0
   -9.7019    2.9994  -10.8399 H   0  0  0  0  0  0  0  0  0  0  0  0
  -10.2995    4.5613   -8.7355 H   0  0  0  0  0  0  0  0  0  0  0  0
   -9.2286    5.9718   -8.5203 H   0  0  0  0  0  0  0  0  0  0  0  0
   -9.5518    2.9191   -7.3239 H   0  0  0  0  0  0  0  0  0  0  0  0
   -7.8194    2.5975   -7.0832 H   0  0  0  0  0  0  0  0  0  0  0  0
   -9.5541    4.6757   -5.8047 H   0  0  0  0  0  0  0  0  0  0  0  0
   -8.0666    3.9049   -5.1814 H   0  0  0  0  0  0  0  0  0  0  0  0
   -6.0077    6.2310   -7.1228 H   0  0  0  0  0  0  0  0  0  0  0  0
   -5.9979    4.5692   -6.4658 H   0  0  0  0  0  0  0  0  0  0  0  0
   -6.1108    4.0460   -8.7396 H   0  0  0  0  0  0  0  0  0  0  0  0
   -6.8488    5.6005   -9.1888 H   0  0  0  0  0  0  0  0  0  0  0  0
   -8.7711    7.1985  -10.5247 H   0  0  0  0  0  0  0  0  0  0  0  0
   -8.6843    7.3646  -12.9721 H   0  0  0  0  0  0  0  0  0  0  0  0
  -11.0157    3.3360  -17.7696 H   0  0  0  0  0  0  0  0  0  0  0  0
  -10.1687    2.9917  -20.0462 H   0  0  0  0  0  0  0  0  0  0  0  0
   -7.9244    3.7543  -20.6799 H   0  0  0  0  0  0  0  0  0  0  0  0
   -6.1567    5.4306  -21.0477 H   0  0  0  0  0  0  0  0  0  0  0  0
   -5.4625    3.8191  -20.5840 H   0  0  0  0  0  0  0  0  0  0  0  0
   -1.8479    7.0444  -22.2886 H   0  0  0  0  0  0  0  0  0  0  0  0
   -2.2591    7.4466  -20.5903 H   0  0  0  0  0  0  0  0  0  0  0  0
   -1.4331    5.8803  -20.9722 H   0  0  0  0  0  0  0  0  0  0  0  0
   -3.4192    6.0974  -23.5827 H   0  0  0  0  0  0  0  0  0  0  0  0
   -4.4277    4.7663  -22.9301 H   0  0  0  0  0  0  0  0  0  0  0  0
   -5.0079    6.4835  -22.8303 H   0  0  0  0  0  0  0  0  0  0  0  0
   -7.2705    5.2120  -16.6893 H   0  0  0  0  0  0  0  0  0  0  0  0
  1  2  1  0
  2  3  1  0
  3  4  2  0
  4  5  1  0
  5  6  2  0
  6  7  1  0
  7  8  1  0
  8  9  1  0
  9 10  1  0
 10 11  1  0
 11 12  1  0
 12 13  1  0
  6 14  1  0
 14 15  2  0
  1 16  2  0
  1 17  1  0
 17 18  2  0
 18 19  1  0
 19 20  2  0
 20 21  1  0
 21 22  1  0
 22 23  1  0
 23 24  1  0
 24 25  1  0
 25 26  1  0
 25 27  1  0
 24 28  2  0
 21 29  2  0
 15  3  1  0
 13  8  1  0
 17 29  1  0
  2 30  1  0
  4 31  1  0
  5 32  1  0
  7 33  1  0
  7 34  1  0
  9 35  1  0
  9 36  1  0
 10 37  1  0
 10 38  1  0
 12 39  1  0
 12 40  1  0
 13 41  1  0
 13 42  1  0
 14 43  1  0
 15 44  1  0
 18 45  1  0
 19 46  1  0
 20 47  1  0
 23 48  1  0
 23 49  1  0
 26 50  1  0
 26 51  1  0
 26 52  1  0
 27 53  1  0
 27 54  1  0
 27 55  1  0
 29 56  1  0
A    1
 C1 
A    2
 N1 
A    3
 C2 
A    4
 C3 
A    5
 C4 
A    6
 C5 
A    7
 C6 
A    8
 N2 
A    9
 C7 
A   10
 C8 
A   11
 O1 
A   12
 C9 
A   13
 C10
A   14
 C11
A   15
 C12
A   16
 O2 
A   17
 C13
A   18
 C14
A   19
 C15
A   20
 C16
A   21
 C17
A   22
 O3 
A   23
 C18
A   24
 C19
A   25
 N3 
A   26
 C20
A   27
 C21
A   28
 O4 
A   29
 C22
A   30
 H1 
A   31
 H2 
A   32
 H3 
A   33
 H4 
A   34
 H5 
A   35
 H6 
A   36
 H7 
A   37
 H8 
A   38
 H9 
A   39
 H10
A   40
 H11
A   41
 H12
A   42
 H13
A   43
 H14
A   44
 H15
A   45
 H16
A   46
 H17
A   47
 H18
A   48
 H19
A   49
 H20
A   50
 H21
A   51
 H22
A   52
 H23
A   53
 H24
A   54
 H25
A   55
 H26
A   56
 H27
M  END
>  <ref_pdb>  (242) 
x0051_0B

>  <ref_mols>  (242) 
x0904_0B,x0404_0B

>  <original SMILES>  (242) 
[H]c1c([H])c(OC([H])([H])C(=O)N(C([H])([H])[H])C([H])([H])[H])c([H])c(C(=O)N([H])c2c([H])c([H])c(C([H])([H])N3C([H])([H])C([H])([H])OC([H])([H])C3([H])[H])c([H])c2[H])c1[H]

>  <index>  (242) 
328

>  <∆∆G>  (242) 
-8.326065

>  <∆G_bound>  (242) 
-7.825958

>  <∆G_unbound>  (242) 
0.500107

>  <comRMSD>  (242) 
0.62629

>  <N_constrained_atoms>  (242) 
28.0

>  <N_unconstrained_atoms>  (242) 
2.0

>  <runtime>  (242) 
123.980453

>  <LE>  (242) 
0.277535

>  <percent_hybrid>  (242) 
50.0

>  <dist>  (242) 
7.0

>  <ecfp4>  (242) 
0.358974

>  <daylight>  (242) 
0.335

>  <topodist>  (242) 
4.0

>  <mces>  (242) 
29.0

>  <tdn>  (242) 
2.0

>  <tup>  (242) 
1.0

>  <rdn>  (242) 
0.0

>  <rup>  (242) 
0.0

>  <ldn>  (242) 
0.0

>  <lup>  (242) 
1.0

>  <mut>  (242) 
3.0

>  <maj>  (242) 
3.0

>  <min>  (242) 
0.0

>  <hyb>  (242) 
0.0

>  <sub>  (242) 
0.0

>  <query_index>  (242) 
19.0

>  <max_hit_Tanimoto>  (242) 
0.299213

>  <largest_ring>  (242) 
6

>  <N_interactions_kept>  (242) 
2.0

>  <N_interactions_lost>  (242) 
2.5

>  <interaction_uniqueness_metric>  (242) 
0.401338

>  <ad_hoc_penalty>  (242) 
-23.162358

>  <N_rotatable_bonds>  (242) 
9

>  <N_HA>  (242) 
29

>  <cluster>  (242) 
5920

>  <N_interactions>  (242) 
9

>  <Enamine>  (242) 
0

>  <Mcule>  (242) 
1

>  <N_PAINS>  (242) 
0

>  <UFF_Gibbs>  (242) 
232.254259

>  <strain_per_HA>  (242) 
7.741809

>  <saltbridge:HIS:51>  (242) 
0

>  <pistack:HIS:51>  (242) 
1

>  <hydroph_interaction:HIS:51>  (242) 
1

>  <hbond:ALA:132>  (242) 
0

>  <hbond:SER:135>  (242) 
1

>  <hydroph_interaction:TYR:150>  (242) 
1

>  <pistack:TYR:161>  (242) 
0

>  <hydroph_interaction:TYR:161>  (242) 
2

>  <hydroph_interaction:ASP:83>  (242) 
0

>  <hbond:TYR:130>  (242) 
0

>  <hydroph_interaction:ALA:132>  (242) 
1

>  <hbond:HIS:51>  (242) 
0

>  <hbond:ASP:129>  (242) 
0

>  <hbond:TYR:150>  (242) 
0

>  <hbond:GLY:151>  (242) 
0

>  <hbond:TYR:161>  (242) 
0

>  <hydroph_interaction:TYR:130>  (242) 
0

>  <hydroph_interaction:PRO:131>  (242) 
0

>  <hydroph_interaction:ASP:129>  (242) 
0

>  <saltbridge:ASP:75>  (242) 
1

>  <saltbridge:ASP:83>  (242) 
1

>  <hydroph_interaction:ASN:152>  (242) 
0

>  <halogenbond:TYR:150>  (242) 
0

>  <hbond:ASP:83>  (242) 
0

>  <hydroph_interaction:VAL:155>  (242) 
0

>  <pication:TYR:161>  (242) 
0

>  <hbond:PRO:131>  (242) 
0

>  <hbond:LEU:128>  (242) 
0

>  <saltbridge:ASP:129>  (242) 
0

>  <hbond:THR:134>  (242) 
0

>  <pication:HIS:51>  (242) 
0

>  <hbond:SER:81>  (242) 
0

>  <hbond:GLY:159>  (242) 
0

>  <hydroph_interaction:PRO:101>  (242) 
0

>  <hydroph_interaction:THR:134>  (242) 
0

>  <hbond:GLY:82>  (242) 
0

>  <hydroph_interaction:GLU:104>  (242) 
0

>  <hydroph_interaction:VAL:36>  (242) 
0

>  <hydroph_interaction:MET:49>  (242) 
0

>  <halogenbond:GLU:104>  (242) 
0

>  <hydroph_interaction:LYS:107>  (242) 
0

$$$$
LZTQZRKNNQXRPC-UHFFFAOYSA-N
     RDKit          3D

 45 47  0  0  0  0  0  0  0  0999 V2000
   -8.4469    6.1038  -13.9887 C   0  0  0  0  0  0  0  0  0  0  0  0
   -8.9225    5.3105  -15.0895 N   0  0  0  0  0  0  0  0  0  0  0  0
   -8.5084    5.5077  -16.4528 C   0  0  0  0  0  0  0  0  0  0  0  0
   -7.2113    5.9514  -16.7662 C   0  0  0  0  0  0  0  0  0  0  0  0
   -6.8126    6.0992  -18.1031 C   0  0  0  0  0  0  0  0  0  0  0  0
   -5.4377    6.6047  -18.4284 C   0  0  0  0  0  0  0  0  0  0  0  0
   -7.7250    5.8252  -19.1321 C   0  0  0  0  0  0  0  0  0  0  0  0
   -9.0202    5.3793  -18.8323 C   0  0  0  0  0  0  0  0  0  0  0  0
   -9.9729    5.0306  -19.9376 C   0  0  0  0  0  0  0  0  0  0  0  0
   -9.3966    5.1982  -17.4933 C   0  0  0  0  0  0  0  0  0  0  0  0
   -7.9739    7.2532  -14.2058 O   0  0  0  0  0  0  0  0  0  0  0  0
   -8.5514    5.6094  -12.5942 C   0  0  0  0  0  0  0  0  0  0  0  0
   -8.4770    6.5098  -11.5168 C   0  0  0  0  0  0  0  0  0  0  0  0
   -8.5684    6.0516  -10.1997 C   0  0  0  0  0  0  0  0  0  0  0  0
   -8.7267    4.6837   -9.9310 C   0  0  0  0  0  0  0  0  0  0  0  0
   -8.8248    4.2184   -8.5711 N   0  0  0  0  0  0  0  0  0  0  0  0
   -9.7647    3.1495   -8.2201 C   0  0  0  0  0  0  0  0  0  0  0  0
  -10.1880    3.2961   -6.7552 C   0  0  0  0  0  0  0  0  0  0  0  0
   -9.0557    3.3831   -5.9103 O   0  0  0  0  0  0  0  0  0  0  0  0
   -8.3352    4.5675   -6.1952 C   0  0  0  0  0  0  0  0  0  0  0  0
   -7.7577    4.5251   -7.6131 C   0  0  0  0  0  0  0  0  0  0  0  0
   -8.7967    3.7813  -11.0048 C   0  0  0  0  0  0  0  0  0  0  0  0
   -8.7054    4.2382  -12.3226 C   0  0  0  0  0  0  0  0  0  0  0  0
   -9.6962    4.6322  -14.9074 H   0  0  0  0  0  0  0  0  0  0  0  0
   -6.5006    6.1551  -15.9755 H   0  0  0  0  0  0  0  0  0  0  0  0
   -5.0961    6.2110  -19.4095 H   0  0  0  0  0  0  0  0  0  0  0  0
   -4.7078    6.2798  -17.6566 H   0  0  0  0  0  0  0  0  0  0  0  0
   -5.4526    7.7138  -18.4687 H   0  0  0  0  0  0  0  0  0  0  0  0
   -7.4251    5.9517  -20.1658 H   0  0  0  0  0  0  0  0  0  0  0  0
   -9.7850    5.6630  -20.8314 H   0  0  0  0  0  0  0  0  0  0  0  0
  -11.0235    5.1952  -19.6165 H   0  0  0  0  0  0  0  0  0  0  0  0
   -9.8419    3.9638  -20.2147 H   0  0  0  0  0  0  0  0  0  0  0  0
  -10.3883    4.8306  -17.2578 H   0  0  0  0  0  0  0  0  0  0  0  0
   -8.3613    7.5723  -11.6920 H   0  0  0  0  0  0  0  0  0  0  0  0
   -8.5340    6.7680   -9.3890 H   0  0  0  0  0  0  0  0  0  0  0  0
  -10.6694    3.2009   -8.8646 H   0  0  0  0  0  0  0  0  0  0  0  0
   -9.2732    2.1633   -8.3672 H   0  0  0  0  0  0  0  0  0  0  0  0
  -10.8522    4.1817   -6.6289 H   0  0  0  0  0  0  0  0  0  0  0  0
  -10.7785    2.4020   -6.4641 H   0  0  0  0  0  0  0  0  0  0  0  0
   -8.9757    5.4695   -6.0631 H   0  0  0  0  0  0  0  0  0  0  0  0
   -7.4972    4.6540   -5.4719 H   0  0  0  0  0  0  0  0  0  0  0  0
   -6.9786    3.7346   -7.6721 H   0  0  0  0  0  0  0  0  0  0  0  0
   -7.2796    5.5016   -7.8391 H   0  0  0  0  0  0  0  0  0  0  0  0
   -8.9037    2.7197  -10.8230 H   0  0  0  0  0  0  0  0  0  0  0  0
   -8.7347    3.5116  -13.1239 H   0  0  0  0  0  0  0  0  0  0  0  0
  1  2  1  0
  2  3  1  0
  3  4  2  0
  4  5  1  0
  5  6  1  0
  5  7  2  0
  7  8  1  0
  8  9  1  0
  8 10  2  0
  1 11  2  0
  1 12  1  0
 12 13  2  0
 13 14  1  0
 14 15  2  0
 15 16  1  0
 16 17  1  0
 17 18  1  0
 18 19  1  0
 19 20  1  0
 20 21  1  0
 15 22  1  0
 22 23  2  0
  3 10  1  0
 23 12  1  0
 21 16  1  0
  2 24  1  0
  4 25  1  0
  6 26  1  0
  6 27  1  0
  6 28  1  0
  7 29  1  0
  9 30  1  0
  9 31  1  0
  9 32  1  0
 10 33  1  0
 13 34  1  0
 14 35  1  0
 17 36  1  0
 17 37  1  0
 18 38  1  0
 18 39  1  0
 20 40  1  0
 20 41  1  0
 21 42  1  0
 21 43  1  0
 22 44  1  0
 23 45  1  0
A    1
 C1 
A    2
 N1 
A    3
 C2 
A    4
 C3 
A    5
 C4 
A    6
 C5 
A    7
 C6 
A    8
 C7 
A    9
 C8 
A   10
 C9 
A   11
 O1 
A   12
 C10
A   13
 C11
A   14
 C12
A   15
 C13
A   16
 N2 
A   17
 C14
A   18
 C15
A   19
 O2 
A   20
 C16
A   21
 C17
A   22
 C18
A   23
 C19
A   24
 H1 
A   25
 H2 
A   26
 H3 
A   27
 H4 
A   28
 H5 
A   29
 H6 
A   30
 H7 
A   31
 H8 
A   32
 H9 
A   33
 H10
A   34
 H11
A   35
 H12
A   36
 H13
A   37
 H14
A   38
 H15
A   39
 H16
A   40
 H17
A   41
 H18
A   42
 H19
A   43
 H20
A   44
 H21
A   45
 H22
M  END
>  <ref_pdb>  (243) 
x0051_0B

>  <ref_mols>  (243) 
x0589_0B,x0404_0B

>  <original SMILES>  (243) 
[H]c1c([H])c(N2C([H])([H])C([H])([H])OC([H])([H])C2([H])[H])c([H])c([H])c1C(=O)N([H])c1c([H])c(C([H])([H])[H])c([H])c(C([H])([H])[H])c1[H]

>  <index>  (243) 
250

>  <∆∆G>  (243) 
-7.491367

>  <∆G_bound>  (243) 
-7.285484

>  <∆G_unbound>  (243) 
0.205883

>  <comRMSD>  (243) 
0.630232

>  <N_constrained_atoms>  (243) 
23.0

>  <N_unconstrained_atoms>  (243) 
0.0

>  <runtime>  (243) 
84.787927

>  <LE>  (243) 
0.325712

>  <percent_hybrid>  (243) 
35.0

>  <dist>  (243) 
6.0

>  <ecfp4>  (243) 
0.294118

>  <daylight>  (243) 
0.213904

>  <topodist>  (243) 
2.0

>  <mces>  (243) 
25.0

>  <tdn>  (243) 
1.0

>  <tup>  (243) 
0.0

>  <rdn>  (243) 
0.0

>  <rup>  (243) 
0.0

>  <ldn>  (243) 
1.0

>  <lup>  (243) 
0.0

>  <mut>  (243) 
3.0

>  <maj>  (243) 
3.0

>  <min>  (243) 
0.0

>  <hyb>  (243) 
1.0

>  <sub>  (243) 
0.0

>  <query_index>  (243) 
29.0

>  <max_hit_Tanimoto>  (243) 
0.261157

>  <largest_ring>  (243) 
6

>  <N_interactions_kept>  (243) 
2.0

>  <N_interactions_lost>  (243) 
1.5

>  <interaction_uniqueness_metric>  (243) 
0.116545

>  <ad_hoc_penalty>  (243) 
-23.141861

>  <N_rotatable_bonds>  (243) 
5

>  <N_HA>  (243) 
23

>  <cluster>  (243) 
5990

>  <N_interactions>  (243) 
6

>  <Enamine>  (243) 
0

>  <Mcule>  (243) 
1

>  <N_PAINS>  (243) 
0

>  <UFF_Gibbs>  (243) 
150.05871

>  <strain_per_HA>  (243) 
6.524292

>  <saltbridge:HIS:51>  (243) 
0

>  <pistack:HIS:51>  (243) 
1

>  <hydroph_interaction:HIS:51>  (243) 
1

>  <hbond:ALA:132>  (243) 
0

>  <hbond:SER:135>  (243) 
0

>  <hydroph_interaction:TYR:150>  (243) 
1

>  <pistack:TYR:161>  (243) 
0

>  <hydroph_interaction:TYR:161>  (243) 
2

>  <hydroph_interaction:ASP:83>  (243) 
0

>  <hbond:TYR:130>  (243) 
0

>  <hydroph_interaction:ALA:132>  (243) 
1

>  <hbond:HIS:51>  (243) 
0

>  <hbond:ASP:129>  (243) 
0

>  <hbond:TYR:150>  (243) 
0

>  <hbond:GLY:151>  (243) 
0

>  <hbond:TYR:161>  (243) 
0

>  <hydroph_interaction:TYR:130>  (243) 
0

>  <hydroph_interaction:PRO:131>  (243) 
0

>  <hydroph_interaction:ASP:129>  (243) 
0

>  <saltbridge:ASP:75>  (243) 
0

>  <saltbridge:ASP:83>  (243) 
0

>  <hydroph_interaction:ASN:152>  (243) 
0

>  <halogenbond:TYR:150>  (243) 
0

>  <hbond:ASP:83>  (243) 
0

>  <hydroph_interaction:VAL:155>  (243) 
0

>  <pication:TYR:161>  (243) 
0

>  <hbond:PRO:131>  (243) 
0

>  <hbond:LEU:128>  (243) 
0

>  <saltbridge:ASP:129>  (243) 
0

>  <hbond:THR:134>  (243) 
0

>  <pication:HIS:51>  (243) 
0

>  <hbond:SER:81>  (243) 
0

>  <hbond:GLY:159>  (243) 
0

>  <hydroph_interaction:PRO:101>  (243) 
0

>  <hydroph_interaction:THR:134>  (243) 
0

>  <hbond:GLY:82>  (243) 
0

>  <hydroph_interaction:GLU:104>  (243) 
0

>  <hydroph_interaction:VAL:36>  (243) 
0

>  <hydroph_interaction:MET:49>  (243) 
0

>  <halogenbond:GLU:104>  (243) 
0

>  <hydroph_interaction:LYS:107>  (243) 
0

$$$$
MCULE-1795619491
     RDKit          3D

 43 45  0  0  0  0  0  0  0  0999 V2000
   -7.8292    7.7945  -31.1528 O   0  0  0  0  0  0  0  0  0  0  0  0
   -8.1721    8.4852  -29.9927 C   0  0  0  0  0  0  0  0  0  0  0  0
   -7.5051    8.1993  -28.7960 C   0  0  0  0  0  0  0  0  0  0  0  0
   -7.8249    8.8921  -27.6173 C   0  0  0  0  0  0  0  0  0  0  0  0
   -7.1396    8.5629  -26.3963 N   0  0  0  0  0  0  0  0  0  0  0  0
   -6.9015    9.5038  -25.3355 C   0  0  0  0  0  0  0  0  0  0  0  0
   -6.5979    9.0388  -23.9600 C   0  0  0  0  0  0  0  0  0  0  0  0
   -6.9398    7.7399  -23.5431 C   0  0  0  0  0  0  0  0  0  0  0  0
   -6.6564    7.3136  -22.2421 C   0  0  0  0  0  0  0  0  0  0  0  0
   -6.0425    8.1840  -21.3256 C   0  0  0  0  0  0  0  0  0  0  0  0
   -5.7180    7.7619  -19.9897 N   0  0  0  0  0  0  0  0  0  0  0  0
   -6.5236    6.8675  -19.2071 C   0  0  0  0  0  0  0  0  0  0  0  0
   -5.9970    6.3333  -17.9829 N   0  0  0  0  0  0  0  0  0  0  0  0
   -6.7757    5.6066  -17.0169 C   0  0  0  0  0  0  0  0  0  0  0  0
   -8.1151    5.9458  -16.7470 C   0  0  0  0  0  0  0  0  0  0  0  0
   -8.8419    5.2368  -15.7852 C   0  0  0  0  0  0  0  0  0  0  0  0
   -8.2373    4.1956  -15.0763 C   0  0  0  0  0  0  0  0  0  0  0  0
   -6.9016    3.8675  -15.3214 C   0  0  0  0  0  0  0  0  0  0  0  0
   -6.1712    4.5746  -16.2816 C   0  0  0  0  0  0  0  0  0  0  0  0
   -7.6831    6.5540  -19.5916 O   0  0  0  0  0  0  0  0  0  0  0  0
   -5.6879    9.4735  -21.7439 C   0  0  0  0  0  0  0  0  0  0  0  0
   -5.9721    9.9022  -23.0435 C   0  0  0  0  0  0  0  0  0  0  0  0
   -6.9079   10.7407  -25.5848 O   0  0  0  0  0  0  0  0  0  0  0  0
   -8.8505    9.8554  -27.6460 C   0  0  0  0  0  0  0  0  0  0  0  0
   -9.5172   10.1401  -28.8412 C   0  0  0  0  0  0  0  0  0  0  0  0
   -9.1774    9.4606  -30.0135 C   0  0  0  0  0  0  0  0  0  0  0  0
   -8.2921    7.9788  -32.0351 H   0  0  0  0  0  0  0  0  0  0  0  0
   -6.7301    7.4428  -28.7863 H   0  0  0  0  0  0  0  0  0  0  0  0
   -6.6921    7.6213  -26.3266 H   0  0  0  0  0  0  0  0  0  0  0  0
   -7.4365    7.0521  -24.2145 H   0  0  0  0  0  0  0  0  0  0  0  0
   -6.8989    6.2969  -21.9633 H   0  0  0  0  0  0  0  0  0  0  0  0
   -4.8935    8.2021  -19.5221 H   0  0  0  0  0  0  0  0  0  0  0  0
   -4.9645    6.3975  -17.8338 H   0  0  0  0  0  0  0  0  0  0  0  0
   -8.5922    6.7716  -17.2573 H   0  0  0  0  0  0  0  0  0  0  0  0
   -9.8720    5.5008  -15.5830 H   0  0  0  0  0  0  0  0  0  0  0  0
   -8.8010    3.6491  -14.3312 H   0  0  0  0  0  0  0  0  0  0  0  0
   -6.4311    3.0666  -14.7659 H   0  0  0  0  0  0  0  0  0  0  0  0
   -5.1361    4.3121  -16.4612 H   0  0  0  0  0  0  0  0  0  0  0  0
   -5.1988   10.1524  -21.0565 H   0  0  0  0  0  0  0  0  0  0  0  0
   -5.6916   10.9070  -23.3339 H   0  0  0  0  0  0  0  0  0  0  0  0
   -9.1527   10.3709  -26.7441 H   0  0  0  0  0  0  0  0  0  0  0  0
  -10.3043   10.8829  -28.8569 H   0  0  0  0  0  0  0  0  0  0  0  0
   -9.7003    9.6867  -30.9342 H   0  0  0  0  0  0  0  0  0  0  0  0
  1  2  1  0
  2  3  2  0
  3  4  1  0
  4  5  1  0
  5  6  1  0
  6  7  1  0
  7  8  2  0
  8  9  1  0
  9 10  2  0
 10 11  1  0
 11 12  1  0
 12 13  1  0
 13 14  1  0
 14 15  2  0
 15 16  1  0
 16 17  2  0
 17 18  1  0
 18 19  2  0
 12 20  2  0
 10 21  1  0
 21 22  2  0
  6 23  2  0
  4 24  2  0
 24 25  1  0
 25 26  2  0
 26  2  1  0
 22  7  1  0
 19 14  1  0
  1 27  1  0
  3 28  1  0
  5 29  1  0
  8 30  1  0
  9 31  1  0
 11 32  1  0
 13 33  1  0
 15 34  1  0
 16 35  1  0
 17 36  1  0
 18 37  1  0
 19 38  1  0
 21 39  1  0
 22 40  1  0
 24 41  1  0
 25 42  1  0
 26 43  1  0
A    1
 O1 
A    2
 C1 
A    3
 C2 
A    4
 C3 
A    5
 N1 
A    6
 C4 
A    7
 C5 
A    8
 C6 
A    9
 C7 
A   10
 C8 
A   11
 N2 
A   12
 C9 
A   13
 N3 
A   14
 C10
A   15
 C11
A   16
 C12
A   17
 C13
A   18
 C14
A   19
 C15
A   20
 O2 
A   21
 C16
A   22
 C17
A   23
 O3 
A   24
 C18
A   25
 C19
A   26
 C20
A   27
 H1 
A   28
 H2 
A   29
 H3 
A   30
 H4 
A   31
 H5 
A   32
 H6 
A   33
 H7 
A   34
 H8 
A   35
 H9 
A   36
 H10
A   37
 H11
A   38
 H12
A   39
 H13
A   40
 H14
A   41
 H15
A   42
 H16
A   43
 H17
M  END
>  <ref_pdb>  (244) 
x0051_0B

>  <ref_mols>  (244) 
x0846_1B,x0589_0B

>  <original SMILES>  (244) 
[H]Oc1c([H])c([H])c([H])c(N([H])C(=O)c2c([H])c([H])c(N([H])C(=O)N([H])c3c([H])c([H])c([H])c([H])c3[H])c([H])c2[H])c1[H]

>  <index>  (244) 
433

>  <∆∆G>  (244) 
-8.3662

>  <∆G_bound>  (244) 
-7.741501

>  <∆G_unbound>  (244) 
0.624699

>  <comRMSD>  (244) 
0.500801

>  <N_constrained_atoms>  (244) 
26.0

>  <N_unconstrained_atoms>  (244) 
4.0

>  <runtime>  (244) 
53.659697

>  <LE>  (244) 
0.278873

>  <percent_hybrid>  (244) 
31.0

>  <dist>  (244) 
9.0

>  <ecfp4>  (244) 
0.141026

>  <daylight>  (244) 
0.197917

>  <topodist>  (244) 
5.0

>  <mces>  (244) 
27.0

>  <tdn>  (244) 
1.0

>  <tup>  (244) 
1.0

>  <rdn>  (244) 
1.0

>  <rup>  (244) 
0.0

>  <ldn>  (244) 
2.0

>  <lup>  (244) 
0.0

>  <mut>  (244) 
3.0

>  <maj>  (244) 
3.0

>  <min>  (244) 
0.0

>  <hyb>  (244) 
1.0

>  <sub>  (244) 
2.0

>  <query_index>  (244) 
309.0

>  <max_hit_Tanimoto>  (244) 
0.228659

>  <largest_ring>  (244) 
6

>  <N_interactions_kept>  (244) 
0.5

>  <N_interactions_lost>  (244) 
1.5

>  <interaction_uniqueness_metric>  (244) 
0.145875

>  <ad_hoc_penalty>  (244) 
-23.125039

>  <N_rotatable_bonds>  (244) 
5

>  <N_HA>  (244) 
26

>  <cluster>  (244) 
5825

>  <N_interactions>  (244) 
5

>  <Enamine>  (244) 
0

>  <Mcule>  (244) 
1

>  <N_PAINS>  (244) 
0

>  <UFF_Gibbs>  (244) 
99.591322

>  <strain_per_HA>  (244) 
3.319711

>  <saltbridge:HIS:51>  (244) 
0

>  <pistack:HIS:51>  (244) 
0

>  <hydroph_interaction:HIS:51>  (244) 
0

>  <hbond:ALA:132>  (244) 
0

>  <hbond:SER:135>  (244) 
0

>  <hydroph_interaction:TYR:150>  (244) 
1

>  <pistack:TYR:161>  (244) 
1

>  <hydroph_interaction:TYR:161>  (244) 
0

>  <hydroph_interaction:ASP:83>  (244) 
0

>  <hbond:TYR:130>  (244) 
1

>  <hydroph_interaction:ALA:132>  (244) 
0

>  <hbond:HIS:51>  (244) 
0

>  <hbond:ASP:129>  (244) 
1

>  <hbond:TYR:150>  (244) 
0

>  <hbond:GLY:151>  (244) 
0

>  <hbond:TYR:161>  (244) 
0

>  <hydroph_interaction:TYR:130>  (244) 
0

>  <hydroph_interaction:PRO:131>  (244) 
1

>  <hydroph_interaction:ASP:129>  (244) 
0

>  <saltbridge:ASP:75>  (244) 
0

>  <saltbridge:ASP:83>  (244) 
0

>  <hydroph_interaction:ASN:152>  (244) 
0

>  <halogenbond:TYR:150>  (244) 
0

>  <hbond:ASP:83>  (244) 
0

>  <hydroph_interaction:VAL:155>  (244) 
0

>  <pication:TYR:161>  (244) 
0

>  <hbond:PRO:131>  (244) 
0

>  <hbond:LEU:128>  (244) 
0

>  <saltbridge:ASP:129>  (244) 
0

>  <hbond:THR:134>  (244) 
0

>  <pication:HIS:51>  (244) 
0

>  <hbond:SER:81>  (244) 
0

>  <hbond:GLY:159>  (244) 
0

>  <hydroph_interaction:PRO:101>  (244) 
0

>  <hydroph_interaction:THR:134>  (244) 
0

>  <hbond:GLY:82>  (244) 
0

>  <hydroph_interaction:GLU:104>  (244) 
0

>  <hydroph_interaction:VAL:36>  (244) 
0

>  <hydroph_interaction:MET:49>  (244) 
0

>  <halogenbond:GLU:104>  (244) 
0

>  <hydroph_interaction:LYS:107>  (244) 
0

$$$$
MCULE-7802559569
     RDKit          3D

 22 23  0  0  0  0  0  0  0  0999 V2000
   -7.9517    5.1165  -18.1471 C   0  0  0  0  0  0  0  0  0  0  0  0
   -8.4765    5.5240  -16.9326 C   0  0  0  0  0  0  0  0  0  0  0  0
   -9.8089    5.1629  -16.9450 C   0  0  0  0  0  0  0  0  0  0  0  0
  -10.0441    4.5624  -18.1649 C   0  0  0  0  0  0  0  0  0  0  0  0
   -8.9150    4.5436  -18.8952 N   0  0  0  0  0  0  0  0  0  0  0  0
   -6.5660    5.3385  -18.6210 C   0  0  0  0  0  0  0  0  0  0  0  0
   -6.3722    5.8101  -19.9300 C   0  0  0  0  0  0  0  0  0  0  0  0
   -5.1214    6.0587  -20.3970 N   0  0  0  0  0  0  0  0  0  0  0  0
   -4.0202    5.8574  -19.6305 C   0  0  0  0  0  0  0  0  0  0  0  0
   -4.1522    5.3733  -18.3299 C   0  0  0  0  0  0  0  0  0  0  0  0
   -5.4266    5.0878  -17.8154 C   0  0  0  0  0  0  0  0  0  0  0  0
   -5.5318    4.5238  -16.4229 C   0  0  0  0  0  0  0  0  0  0  0  0
   -7.9654    6.0531  -16.1404 H   0  0  0  0  0  0  0  0  0  0  0  0
  -10.5318    5.3335  -16.1586 H   0  0  0  0  0  0  0  0  0  0  0  0
  -10.9934    4.1687  -18.5033 H   0  0  0  0  0  0  0  0  0  0  0  0
   -8.8122    4.1529  -19.8582 H   0  0  0  0  0  0  0  0  0  0  0  0
   -7.2196    6.0031  -20.5757 H   0  0  0  0  0  0  0  0  0  0  0  0
   -3.0389    6.0696  -20.0334 H   0  0  0  0  0  0  0  0  0  0  0  0
   -3.2633    5.2099  -17.7329 H   0  0  0  0  0  0  0  0  0  0  0  0
   -5.7164    5.3447  -15.6999 H   0  0  0  0  0  0  0  0  0  0  0  0
   -4.5926    4.0066  -16.1319 H   0  0  0  0  0  0  0  0  0  0  0  0
   -6.3489    3.7750  -16.3603 H   0  0  0  0  0  0  0  0  0  0  0  0
  1  2  2  0
  2  3  1  0
  3  4  2  0
  4  5  1  0
  1  6  1  0
  6  7  2  0
  7  8  1  0
  8  9  2  0
  9 10  1  0
 10 11  2  0
 11 12  1  0
  5  1  1  0
  6 11  1  0
  2 13  1  0
  3 14  1  0
  4 15  1  0
  5 16  1  0
  7 17  1  0
  9 18  1  0
 10 19  1  0
 12 20  1  0
 12 21  1  0
 12 22  1  0
A    1
 C1 
A    2
 C2 
A    3
 C3 
A    4
 C4 
A    5
 N1 
A    6
 C5 
A    7
 C6 
A    8
 N2 
A    9
 C7 
A   10
 C8 
A   11
 C9 
A   12
 C10
A   13
 H1 
A   14
 H2 
A   15
 H3 
A   16
 H4 
A   17
 H5 
A   18
 H6 
A   19
 H7 
A   20
 H8 
A   21
 H9 
A   22
 H10
M  END
>  <ref_pdb>  (245) 
x0051_0B

>  <ref_mols>  (245) 
x0680_0B,x0386_0B

>  <original SMILES>  (245) 
[H]c1nc([H])c(-c2c([H])c([H])c([H])n2[H])c(C([H])([H])[H])c1[H]

>  <index>  (245) 
208

>  <∆∆G>  (245) 
-5.84237

>  <∆G_bound>  (245) 
-5.992076

>  <∆G_unbound>  (245) 
-0.149706

>  <comRMSD>  (245) 
0.582418

>  <N_constrained_atoms>  (245) 
13.0

>  <N_unconstrained_atoms>  (245) 
0.0

>  <runtime>  (245) 
22.170544

>  <LE>  (245) 
0.449413

>  <percent_hybrid>  (245) 
25.0

>  <dist>  (245) 
2.0

>  <ecfp4>  (245) 
0.431818

>  <daylight>  (245) 
0.5

>  <topodist>  (245) 
0.0

>  <mces>  (245) 
13.0

>  <tdn>  (245) 
0.0

>  <tup>  (245) 
0.0

>  <rdn>  (245) 
0.0

>  <rup>  (245) 
0.0

>  <ldn>  (245) 
0.0

>  <lup>  (245) 
0.0

>  <mut>  (245) 
1.0

>  <maj>  (245) 
1.0

>  <min>  (245) 
0.0

>  <hyb>  (245) 
1.0

>  <sub>  (245) 
0.0

>  <query_index>  (245) 
296.0

>  <max_hit_Tanimoto>  (245) 
0.163511

>  <largest_ring>  (245) 
6

>  <N_interactions_kept>  (245) 
3.5

>  <N_interactions_lost>  (245) 
0.5

>  <interaction_uniqueness_metric>  (245) 
0.018782

>  <ad_hoc_penalty>  (245) 
-23.075757

>  <N_rotatable_bonds>  (245) 
2

>  <N_HA>  (245) 
12

>  <cluster>  (245) 
6029

>  <N_interactions>  (245) 
4

>  <Enamine>  (245) 
0

>  <Mcule>  (245) 
1

>  <N_PAINS>  (245) 
0

>  <UFF_Gibbs>  (245) 
85.67656

>  <strain_per_HA>  (245) 
6.590505

>  <saltbridge:HIS:51>  (245) 
0

>  <pistack:HIS:51>  (245) 
0

>  <hydroph_interaction:HIS:51>  (245) 
0

>  <hbond:ALA:132>  (245) 
0

>  <hbond:SER:135>  (245) 
0

>  <hydroph_interaction:TYR:150>  (245) 
0

>  <pistack:TYR:161>  (245) 
0

>  <hydroph_interaction:TYR:161>  (245) 
4

>  <hydroph_interaction:ASP:83>  (245) 
0

>  <hbond:TYR:130>  (245) 
0

>  <hydroph_interaction:ALA:132>  (245) 
0

>  <hbond:HIS:51>  (245) 
0

>  <hbond:ASP:129>  (245) 
0

>  <hbond:TYR:150>  (245) 
0

>  <hbond:GLY:151>  (245) 
0

>  <hbond:TYR:161>  (245) 
0

>  <hydroph_interaction:TYR:130>  (245) 
0

>  <hydroph_interaction:PRO:131>  (245) 
0

>  <hydroph_interaction:ASP:129>  (245) 
0

>  <saltbridge:ASP:75>  (245) 
0

>  <saltbridge:ASP:83>  (245) 
0

>  <hydroph_interaction:ASN:152>  (245) 
0

>  <halogenbond:TYR:150>  (245) 
0

>  <hbond:ASP:83>  (245) 
0

>  <hydroph_interaction:VAL:155>  (245) 
0

>  <pication:TYR:161>  (245) 
0

>  <hbond:PRO:131>  (245) 
0

>  <hbond:LEU:128>  (245) 
0

>  <saltbridge:ASP:129>  (245) 
0

>  <hbond:THR:134>  (245) 
0

>  <pication:HIS:51>  (245) 
0

>  <hbond:SER:81>  (245) 
0

>  <hbond:GLY:159>  (245) 
0

>  <hydroph_interaction:PRO:101>  (245) 
0

>  <hydroph_interaction:THR:134>  (245) 
0

>  <hbond:GLY:82>  (245) 
0

>  <hydroph_interaction:GLU:104>  (245) 
0

>  <hydroph_interaction:VAL:36>  (245) 
0

>  <hydroph_interaction:MET:49>  (245) 
0

>  <halogenbond:GLU:104>  (245) 
0

>  <hydroph_interaction:LYS:107>  (245) 
0

$$$$
MCULE-8166329430
     RDKit          3D

 18 19  0  0  0  0  0  0  0  0999 V2000
   -5.7406    6.1865  -16.0971 Br  0  0  0  0  0  0  0  0  0  0  0  0
   -5.5048    5.6348  -17.9212 C   0  0  0  0  0  0  0  0  0  0  0  0
   -6.5703    5.1755  -18.7351 C   0  0  0  0  0  0  0  0  0  0  0  0
   -7.9490    5.0086  -18.2125 C   0  0  0  0  0  0  0  0  0  0  0  0
   -8.2518    4.6792  -16.9415 N   0  0  0  0  0  0  0  0  0  0  0  0
   -9.5984    4.6040  -16.9452 C   0  0  0  0  0  0  0  0  0  0  0  0
  -10.1127    4.8580  -18.1267 O   0  0  0  0  0  0  0  0  0  0  0  0
   -9.1181    5.1102  -18.9397 C   0  0  0  0  0  0  0  0  0  0  0  0
   -6.3059    4.8588  -20.0821 C   0  0  0  0  0  0  0  0  0  0  0  0
   -5.0169    4.9837  -20.6050 C   0  0  0  0  0  0  0  0  0  0  0  0
   -3.9736    5.4286  -19.7948 C   0  0  0  0  0  0  0  0  0  0  0  0
   -4.2171    5.7548  -18.4603 C   0  0  0  0  0  0  0  0  0  0  0  0
  -10.1873    4.3594  -16.0714 H   0  0  0  0  0  0  0  0  0  0  0  0
   -9.2241    5.3562  -19.9879 H   0  0  0  0  0  0  0  0  0  0  0  0
   -7.0926    4.4940  -20.7300 H   0  0  0  0  0  0  0  0  0  0  0  0
   -4.8265    4.7308  -21.6401 H   0  0  0  0  0  0  0  0  0  0  0  0
   -2.9756    5.5254  -20.2022 H   0  0  0  0  0  0  0  0  0  0  0  0
   -3.4015    6.1115  -17.8442 H   0  0  0  0  0  0  0  0  0  0  0  0
  1  2  1  0
  2  3  2  0
  3  4  1  0
  4  5  1  0
  5  6  2  0
  6  7  1  0
  7  8  1  0
  3  9  1  0
  9 10  2  0
 10 11  1  0
 11 12  2  0
  2 12  1  0
  4  8  2  0
  6 13  1  0
  8 14  1  0
  9 15  1  0
 10 16  1  0
 11 17  1  0
 12 18  1  0
A    1
BR1 
A    2
 C1 
A    3
 C2 
A    4
 C3 
A    5
 N1 
A    6
 C4 
A    7
 O1 
A    8
 C5 
A    9
 C6 
A   10
 C7 
A   11
 C8 
A   12
 C9 
A   13
 H1 
A   14
 H2 
A   15
 H3 
A   16
 H4 
A   17
 H5 
A   18
 H6 
M  END
>  <ref_pdb>  (246) 
x0051_0B

>  <ref_mols>  (246) 
x0680_0B,x0386_0B

>  <original SMILES>  (246) 
[H]c1nc(-c2c([H])c([H])c([H])c([H])c2Br)c([H])o1

>  <index>  (246) 
291

>  <∆∆G>  (246) 
-5.849611

>  <∆G_bound>  (246) 
-5.59307

>  <∆G_unbound>  (246) 
0.256541

>  <comRMSD>  (246) 
0.603058

>  <N_constrained_atoms>  (246) 
13.0

>  <N_unconstrained_atoms>  (246) 
0.0

>  <runtime>  (246) 
21.545573

>  <LE>  (246) 
0.44997

>  <percent_hybrid>  (246) 
25.0

>  <dist>  (246) 
2.0

>  <ecfp4>  (246) 
0.428571

>  <daylight>  (246) 
0.451613

>  <topodist>  (246) 
0.0

>  <mces>  (246) 
13.0

>  <tdn>  (246) 
0.0

>  <tup>  (246) 
0.0

>  <rdn>  (246) 
0.0

>  <rup>  (246) 
0.0

>  <ldn>  (246) 
0.0

>  <lup>  (246) 
0.0

>  <mut>  (246) 
2.0

>  <maj>  (246) 
2.0

>  <min>  (246) 
0.0

>  <hyb>  (246) 
0.0

>  <sub>  (246) 
0.0

>  <query_index>  (246) 
296.0

>  <max_hit_Tanimoto>  (246) 
0.119128

>  <largest_ring>  (246) 
6

>  <N_interactions_kept>  (246) 
3.5

>  <N_interactions_lost>  (246) 
0.5

>  <interaction_uniqueness_metric>  (246) 
0.016266

>  <ad_hoc_penalty>  (246) 
-23.058561

>  <N_rotatable_bonds>  (246) 
1

>  <N_HA>  (246) 
12

>  <cluster>  (246) 
5951

>  <N_interactions>  (246) 
3

>  <Enamine>  (246) 
0

>  <Mcule>  (246) 
1

>  <N_PAINS>  (246) 
0

>  <UFF_Gibbs>  (246) 
58.951269

>  <strain_per_HA>  (246) 
4.534713

>  <saltbridge:HIS:51>  (246) 
0

>  <pistack:HIS:51>  (246) 
0

>  <hydroph_interaction:HIS:51>  (246) 
0

>  <hbond:ALA:132>  (246) 
0

>  <hbond:SER:135>  (246) 
0

>  <hydroph_interaction:TYR:150>  (246) 
0

>  <pistack:TYR:161>  (246) 
0

>  <hydroph_interaction:TYR:161>  (246) 
3

>  <hydroph_interaction:ASP:83>  (246) 
0

>  <hbond:TYR:130>  (246) 
0

>  <hydroph_interaction:ALA:132>  (246) 
0

>  <hbond:HIS:51>  (246) 
0

>  <hbond:ASP:129>  (246) 
0

>  <hbond:TYR:150>  (246) 
0

>  <hbond:GLY:151>  (246) 
0

>  <hbond:TYR:161>  (246) 
0

>  <hydroph_interaction:TYR:130>  (246) 
0

>  <hydroph_interaction:PRO:131>  (246) 
0

>  <hydroph_interaction:ASP:129>  (246) 
0

>  <saltbridge:ASP:75>  (246) 
0

>  <saltbridge:ASP:83>  (246) 
0

>  <hydroph_interaction:ASN:152>  (246) 
0

>  <halogenbond:TYR:150>  (246) 
0

>  <hbond:ASP:83>  (246) 
0

>  <hydroph_interaction:VAL:155>  (246) 
0

>  <pication:TYR:161>  (246) 
0

>  <hbond:PRO:131>  (246) 
0

>  <hbond:LEU:128>  (246) 
0

>  <saltbridge:ASP:129>  (246) 
0

>  <hbond:THR:134>  (246) 
0

>  <pication:HIS:51>  (246) 
0

>  <hbond:SER:81>  (246) 
0

>  <hbond:GLY:159>  (246) 
0

>  <hydroph_interaction:PRO:101>  (246) 
0

>  <hydroph_interaction:THR:134>  (246) 
0

>  <hbond:GLY:82>  (246) 
0

>  <hydroph_interaction:GLU:104>  (246) 
0

>  <hydroph_interaction:VAL:36>  (246) 
0

>  <hydroph_interaction:MET:49>  (246) 
0

>  <halogenbond:GLU:104>  (246) 
0

>  <hydroph_interaction:LYS:107>  (246) 
0

$$$$
Z4637359160
     RDKit          3D

 41 43  0  0  0  0  0  0  0  0999 V2000
   -9.5874    6.1052  -19.9793 C   0  0  0  0  0  0  0  0  0  0  0  0
   -9.0060    5.7778  -18.9749 C   0  0  0  0  0  0  0  0  0  0  0  0
   -8.3140    5.3863  -17.7742 C   0  0  0  0  0  0  0  0  0  0  0  0
   -6.9185    5.2993  -17.7660 C   0  0  0  0  0  0  0  0  0  0  0  0
   -6.2473    4.9073  -16.6057 C   0  0  0  0  0  0  0  0  0  0  0  0
   -6.9626    4.6093  -15.4335 C   0  0  0  0  0  0  0  0  0  0  0  0
   -6.2165    4.1870  -14.1963 C   0  0  0  0  0  0  0  0  0  0  0  0
   -8.3741    4.6949  -15.4394 C   0  0  0  0  0  0  0  0  0  0  0  0
   -9.1294    4.3430  -14.2682 N   0  0  0  0  0  0  0  0  0  0  0  0
  -10.2067    5.1410  -13.7549 C   0  0  0  0  0  0  0  0  0  0  0  0
  -10.5345    6.2182  -14.3228 O   0  0  0  0  0  0  0  0  0  0  0  0
  -10.8889    4.7467  -12.4813 C   0  0  0  0  0  0  0  0  0  0  0  0
  -10.0678    5.1864  -11.3078 C   0  0  0  0  0  0  0  0  0  0  0  0
   -9.2369    4.4261  -10.5084 C   0  0  0  0  0  0  0  0  0  0  0  0
   -9.0505    2.9364  -10.5095 C   0  0  0  0  0  0  0  0  0  0  0  0
   -7.7932    2.5562   -9.7132 C   0  0  0  0  0  0  0  0  0  0  0  0
   -7.7329    3.3081   -8.3733 C   0  0  0  0  0  0  0  0  0  0  0  0
   -7.6819    4.8280   -8.6004 C   0  0  0  0  0  0  0  0  0  0  0  0
   -8.6756    5.2358   -9.5922 N   0  0  0  0  0  0  0  0  0  0  0  0
   -9.0632    6.4855   -9.7934 N   0  0  0  0  0  0  0  0  0  0  0  0
   -9.9207    6.4810  -10.8359 C   0  0  0  0  0  0  0  0  0  0  0  0
   -9.0387    5.0791  -16.6173 C   0  0  0  0  0  0  0  0  0  0  0  0
  -10.0987    6.3924  -20.8606 H   0  0  0  0  0  0  0  0  0  0  0  0
   -6.3492    5.5285  -18.6590 H   0  0  0  0  0  0  0  0  0  0  0  0
   -5.1663    4.8387  -16.6224 H   0  0  0  0  0  0  0  0  0  0  0  0
   -5.1329    4.4176  -14.2769 H   0  0  0  0  0  0  0  0  0  0  0  0
   -6.3363    3.0935  -14.0451 H   0  0  0  0  0  0  0  0  0  0  0  0
   -6.6104    4.7248  -13.3083 H   0  0  0  0  0  0  0  0  0  0  0  0
   -8.8087    3.5286  -13.6996 H   0  0  0  0  0  0  0  0  0  0  0  0
  -11.0381    3.6466  -12.4605 H   0  0  0  0  0  0  0  0  0  0  0  0
  -11.8915    5.2227  -12.4261 H   0  0  0  0  0  0  0  0  0  0  0  0
   -8.9548    2.5593  -11.5483 H   0  0  0  0  0  0  0  0  0  0  0  0
   -9.9423    2.4657  -10.0428 H   0  0  0  0  0  0  0  0  0  0  0  0
   -7.7960    1.4611   -9.5240 H   0  0  0  0  0  0  0  0  0  0  0  0
   -6.8875    2.7973  -10.3128 H   0  0  0  0  0  0  0  0  0  0  0  0
   -8.6314    3.0545   -7.7678 H   0  0  0  0  0  0  0  0  0  0  0  0
   -6.8323    2.9883   -7.8058 H   0  0  0  0  0  0  0  0  0  0  0  0
   -6.6713    5.1137   -8.9645 H   0  0  0  0  0  0  0  0  0  0  0  0
   -7.8724    5.3537   -7.6400 H   0  0  0  0  0  0  0  0  0  0  0  0
  -10.4001    7.3656  -11.2339 H   0  0  0  0  0  0  0  0  0  0  0  0
  -10.1215    5.1149  -16.6406 H   0  0  0  0  0  0  0  0  0  0  0  0
  1  2  3  0
  2  3  1  0
  3  4  2  0
  4  5  1  0
  5  6  2  0
  6  7  1  0
  6  8  1  0
  8  9  1  0
  9 10  1  0
 10 11  2  0
 10 12  1  0
 12 13  1  0
 13 14  2  0
 14 15  1  0
 15 16  1  0
 16 17  1  0
 17 18  1  0
 18 19  1  0
 19 20  1  0
 20 21  2  0
  8 22  2  0
 22  3  1  0
 21 13  1  0
 19 14  1  0
  1 23  1  0
  4 24  1  0
  5 25  1  0
  7 26  1  0
  7 27  1  0
  7 28  1  0
  9 29  1  0
 12 30  1  0
 12 31  1  0
 15 32  1  0
 15 33  1  0
 16 34  1  0
 16 35  1  0
 17 36  1  0
 17 37  1  0
 18 38  1  0
 18 39  1  0
 21 40  1  0
 22 41  1  0
A    1
 C1 
A    2
 C2 
A    3
 C3 
A    4
 C4 
A    5
 C5 
A    6
 C6 
A    7
 C7 
A    8
 C8 
A    9
 N1 
A   10
 C9 
A   11
 O1 
A   12
 C10
A   13
 C11
A   14
 C12
A   15
 C13
A   16
 C14
A   17
 C15
A   18
 C16
A   19
 N2 
A   20
 N3 
A   21
 C17
A   22
 C18
A   23
 H1 
A   24
 H2 
A   25
 H3 
A   26
 H4 
A   27
 H5 
A   28
 H6 
A   29
 H7 
A   30
 H8 
A   31
 H9 
A   32
 H10
A   33
 H11
A   34
 H12
A   35
 H13
A   36
 H14
A   37
 H15
A   38
 H16
A   39
 H17
A   40
 H18
A   41
 H19
M  END
>  <ref_pdb>  (247) 
x0051_0B

>  <ref_mols>  (247) 
x0553_0B,x0969_1B

>  <original SMILES>  (247) 
[H]C#Cc1c([H])c([H])c(C([H])([H])[H])c(N([H])C(=O)C([H])([H])c2c([H])nn3c2C([H])([H])C([H])([H])C([H])([H])C3([H])[H])c1[H]

>  <index>  (247) 
68

>  <∆∆G>  (247) 
-7.833085

>  <∆G_bound>  (247) 
-7.604419

>  <∆G_unbound>  (247) 
0.228667

>  <comRMSD>  (247) 
0.457645

>  <N_constrained_atoms>  (247) 
19.0

>  <N_unconstrained_atoms>  (247) 
3.0

>  <runtime>  (247) 
59.899637

>  <LE>  (247) 
0.356049

>  <percent_hybrid>  (247) 
48.0

>  <dist>  (247) 
5.0

>  <ecfp4>  (247) 
0.358974

>  <daylight>  (247) 
0.278146

>  <topodist>  (247) 
1.0

>  <mces>  (247) 
23.0

>  <tdn>  (247) 
0.0

>  <tup>  (247) 
1.0

>  <rdn>  (247) 
0.0

>  <rup>  (247) 
0.0

>  <ldn>  (247) 
0.0

>  <lup>  (247) 
0.0

>  <mut>  (247) 
3.0

>  <maj>  (247) 
3.0

>  <min>  (247) 
0.0

>  <hyb>  (247) 
1.0

>  <sub>  (247) 
0.0

>  <query_index>  (247) 
375.0

>  <max_hit_Tanimoto>  (247) 
0.318671

>  <largest_ring>  (247) 
6

>  <N_interactions_kept>  (247) 
1.5

>  <N_interactions_lost>  (247) 
1.0

>  <interaction_uniqueness_metric>  (247) 
0.192849

>  <ad_hoc_penalty>  (247) 
-23.019726

>  <N_rotatable_bonds>  (247) 
4

>  <N_HA>  (247) 
22

>  <cluster>  (247) 
6156

>  <N_interactions>  (247) 
6

>  <Enamine>  (247) 
1

>  <Mcule>  (247) 
0

>  <N_PAINS>  (247) 
0

>  <UFF_Gibbs>  (247) 
329.014057

>  <strain_per_HA>  (247) 
14.955184

>  <saltbridge:HIS:51>  (247) 
0

>  <pistack:HIS:51>  (247) 
1

>  <hydroph_interaction:HIS:51>  (247) 
0

>  <hbond:ALA:132>  (247) 
0

>  <hbond:SER:135>  (247) 
0

>  <hydroph_interaction:TYR:150>  (247) 
1

>  <pistack:TYR:161>  (247) 
1

>  <hydroph_interaction:TYR:161>  (247) 
1

>  <hydroph_interaction:ASP:83>  (247) 
1

>  <hbond:TYR:130>  (247) 
0

>  <hydroph_interaction:ALA:132>  (247) 
0

>  <hbond:HIS:51>  (247) 
0

>  <hbond:ASP:129>  (247) 
0

>  <hbond:TYR:150>  (247) 
0

>  <hbond:GLY:151>  (247) 
0

>  <hbond:TYR:161>  (247) 
1

>  <hydroph_interaction:TYR:130>  (247) 
0

>  <hydroph_interaction:PRO:131>  (247) 
0

>  <hydroph_interaction:ASP:129>  (247) 
0

>  <saltbridge:ASP:75>  (247) 
0

>  <saltbridge:ASP:83>  (247) 
0

>  <hydroph_interaction:ASN:152>  (247) 
0

>  <halogenbond:TYR:150>  (247) 
0

>  <hbond:ASP:83>  (247) 
0

>  <hydroph_interaction:VAL:155>  (247) 
0

>  <pication:TYR:161>  (247) 
0

>  <hbond:PRO:131>  (247) 
0

>  <hbond:LEU:128>  (247) 
0

>  <saltbridge:ASP:129>  (247) 
0

>  <hbond:THR:134>  (247) 
0

>  <pication:HIS:51>  (247) 
0

>  <hbond:SER:81>  (247) 
0

>  <hbond:GLY:159>  (247) 
0

>  <hydroph_interaction:PRO:101>  (247) 
0

>  <hydroph_interaction:THR:134>  (247) 
0

>  <hbond:GLY:82>  (247) 
0

>  <hydroph_interaction:GLU:104>  (247) 
0

>  <hydroph_interaction:VAL:36>  (247) 
0

>  <hydroph_interaction:MET:49>  (247) 
0

>  <halogenbond:GLU:104>  (247) 
0

>  <hydroph_interaction:LYS:107>  (247) 
0

$$$$
PV-002872467436
     RDKit          3D

 23 24  0  0  0  0  0  0  0  0999 V2000
  -10.1522    5.6502  -15.3987 C   0  0  0  0  0  0  0  0  0  0  0  0
   -9.4463    5.2138  -16.6364 C   0  0  0  0  0  0  0  0  0  0  0  0
   -8.1599    5.5191  -16.9078 N   0  0  0  0  0  0  0  0  0  0  0  0
   -7.7689    5.0588  -18.1286 C   0  0  0  0  0  0  0  0  0  0  0  0
   -6.3983    5.2826  -18.6544 C   0  0  0  0  0  0  0  0  0  0  0  0
   -6.2254    5.5632  -20.0224 C   0  0  0  0  0  0  0  0  0  0  0  0
   -4.9886    5.8041  -20.5287 N   0  0  0  0  0  0  0  0  0  0  0  0
   -3.8801    5.7819  -19.7476 C   0  0  0  0  0  0  0  0  0  0  0  0
   -3.9892    5.5026  -18.3868 C   0  0  0  0  0  0  0  0  0  0  0  0
   -5.2480    5.2362  -17.8253 C   0  0  0  0  0  0  0  0  0  0  0  0
   -5.3305    4.9070  -16.3575 C   0  0  0  0  0  0  0  0  0  0  0  0
   -8.7687    4.4009  -18.8483 C   0  0  0  0  0  0  0  0  0  0  0  0
  -10.1665    4.3957  -17.9137 S   0  0  0  0  0  0  0  0  0  0  0  0
   -9.4270    5.7509  -14.5640 H   0  0  0  0  0  0  0  0  0  0  0  0
  -10.6417    6.6297  -15.5785 H   0  0  0  0  0  0  0  0  0  0  0  0
  -10.9219    4.9015  -15.1176 H   0  0  0  0  0  0  0  0  0  0  0  0
   -7.0775    5.6151  -20.6875 H   0  0  0  0  0  0  0  0  0  0  0  0
   -2.9106    5.9810  -20.1846 H   0  0  0  0  0  0  0  0  0  0  0  0
   -3.0938    5.4861  -17.7776 H   0  0  0  0  0  0  0  0  0  0  0  0
   -5.9977    4.0344  -16.1946 H   0  0  0  0  0  0  0  0  0  0  0  0
   -4.3337    4.6423  -15.9446 H   0  0  0  0  0  0  0  0  0  0  0  0
   -5.7167    5.7845  -15.7984 H   0  0  0  0  0  0  0  0  0  0  0  0
   -8.6690    3.9626  -19.8323 H   0  0  0  0  0  0  0  0  0  0  0  0
  1  2  1  0
  2  3  2  0
  3  4  1  0
  4  5  1  0
  5  6  2  0
  6  7  1  0
  7  8  2  0
  8  9  1  0
  9 10  2  0
 10 11  1  0
  4 12  2  0
 12 13  1  0
 13  2  1  0
 10  5  1  0
  1 14  1  0
  1 15  1  0
  1 16  1  0
  6 17  1  0
  8 18  1  0
  9 19  1  0
 11 20  1  0
 11 21  1  0
 11 22  1  0
 12 23  1  0
A    1
 C1 
A    2
 C2 
A    3
 N1 
A    4
 C3 
A    5
 C4 
A    6
 C5 
A    7
 N2 
A    8
 C6 
A    9
 C7 
A   10
 C8 
A   11
 C9 
A   12
 C10
A   13
 S1 
A   14
 H1 
A   15
 H2 
A   16
 H3 
A   17
 H4 
A   18
 H5 
A   19
 H6 
A   20
 H7 
A   21
 H8 
A   22
 H9 
A   23
 H10
M  END
>  <ref_pdb>  (248) 
x0051_0B

>  <ref_mols>  (248) 
x0680_0B,x0386_0B

>  <original SMILES>  (248) 
[H]c1nc([H])c(-c2nc(C([H])([H])[H])sc2[H])c(C([H])([H])[H])c1[H]

>  <index>  (248) 
350

>  <∆∆G>  (248) 
-7.642066

>  <∆G_bound>  (248) 
-7.894844

>  <∆G_unbound>  (248) 
-0.252778

>  <comRMSD>  (248) 
0.610406

>  <N_constrained_atoms>  (248) 
12.0

>  <N_unconstrained_atoms>  (248) 
1.0

>  <runtime>  (248) 
30.578743

>  <LE>  (248) 
0.587851

>  <percent_hybrid>  (248) 
17.0

>  <dist>  (248) 
2.0

>  <ecfp4>  (248) 
0.5

>  <daylight>  (248) 
0.393548

>  <topodist>  (248) 
1.0

>  <mces>  (248) 
13.0

>  <tdn>  (248) 
0.0

>  <tup>  (248) 
1.0

>  <rdn>  (248) 
0.0

>  <rup>  (248) 
0.0

>  <ldn>  (248) 
0.0

>  <lup>  (248) 
0.0

>  <mut>  (248) 
1.0

>  <maj>  (248) 
0.0

>  <min>  (248) 
1.0

>  <hyb>  (248) 
0.0

>  <sub>  (248) 
1.0

>  <query_index>  (248) 
296.0

>  <max_hit_Tanimoto>  (248) 
0.152661

>  <largest_ring>  (248) 
6

>  <N_interactions_kept>  (248) 
3.5

>  <N_interactions_lost>  (248) 
0.5

>  <interaction_uniqueness_metric>  (248) 
0.016266

>  <ad_hoc_penalty>  (248) 
-23.007269

>  <N_rotatable_bonds>  (248) 
3

>  <N_HA>  (248) 
13

>  <cluster>  (248) 
5899

>  <N_interactions>  (248) 
3

>  <Enamine>  (248) 
1

>  <Mcule>  (248) 
0

>  <N_PAINS>  (248) 
0

>  <UFF_Gibbs>  (248) 
42.859747

>  <strain_per_HA>  (248) 
3.296904

>  <saltbridge:HIS:51>  (248) 
0

>  <pistack:HIS:51>  (248) 
0

>  <hydroph_interaction:HIS:51>  (248) 
0

>  <hbond:ALA:132>  (248) 
0

>  <hbond:SER:135>  (248) 
0

>  <hydroph_interaction:TYR:150>  (248) 
0

>  <pistack:TYR:161>  (248) 
0

>  <hydroph_interaction:TYR:161>  (248) 
3

>  <hydroph_interaction:ASP:83>  (248) 
0

>  <hbond:TYR:130>  (248) 
0

>  <hydroph_interaction:ALA:132>  (248) 
0

>  <hbond:HIS:51>  (248) 
0

>  <hbond:ASP:129>  (248) 
0

>  <hbond:TYR:150>  (248) 
0

>  <hbond:GLY:151>  (248) 
0

>  <hbond:TYR:161>  (248) 
0

>  <hydroph_interaction:TYR:130>  (248) 
0

>  <hydroph_interaction:PRO:131>  (248) 
0

>  <hydroph_interaction:ASP:129>  (248) 
0

>  <saltbridge:ASP:75>  (248) 
0

>  <saltbridge:ASP:83>  (248) 
0

>  <hydroph_interaction:ASN:152>  (248) 
0

>  <halogenbond:TYR:150>  (248) 
0

>  <hbond:ASP:83>  (248) 
0

>  <hydroph_interaction:VAL:155>  (248) 
0

>  <pication:TYR:161>  (248) 
0

>  <hbond:PRO:131>  (248) 
0

>  <hbond:LEU:128>  (248) 
0

>  <saltbridge:ASP:129>  (248) 
0

>  <hbond:THR:134>  (248) 
0

>  <pication:HIS:51>  (248) 
0

>  <hbond:SER:81>  (248) 
0

>  <hbond:GLY:159>  (248) 
0

>  <hydroph_interaction:PRO:101>  (248) 
0

>  <hydroph_interaction:THR:134>  (248) 
0

>  <hbond:GLY:82>  (248) 
0

>  <hydroph_interaction:GLU:104>  (248) 
0

>  <hydroph_interaction:VAL:36>  (248) 
0

>  <hydroph_interaction:MET:49>  (248) 
0

>  <halogenbond:GLU:104>  (248) 
0

>  <hydroph_interaction:LYS:107>  (248) 
0

$$$$
Z2445835847
     RDKit          3D

 42 43  0  0  0  0  0  0  0  0999 V2000
  -11.2605    2.3476  -14.0582 C   0  0  0  0  0  0  0  0  0  0  0  0
  -10.1943    3.3483  -13.9441 N   0  0  0  0  0  0  0  0  0  0  0  0
   -8.7904    2.9258  -13.9875 C   0  0  0  0  0  0  0  0  0  0  0  0
  -10.5594    4.7367  -13.7715 C   0  0  0  0  0  0  0  0  0  0  0  0
  -11.7654    5.0395  -13.5579 O   0  0  0  0  0  0  0  0  0  0  0  0
   -9.5606    5.8589  -13.8696 C   0  0  0  0  0  0  0  0  0  0  0  0
   -9.8588    6.8396  -15.3812 S   0  0  0  0  0  0  0  0  0  0  0  0
   -9.0510    5.6687  -16.4867 C   0  0  0  0  0  0  0  0  0  0  0  0
   -9.8286    4.6650  -17.0805 C   0  0  0  0  0  0  0  0  0  0  0  0
   -9.2353    3.7046  -17.9017 C   0  0  0  0  0  0  0  0  0  0  0  0
   -7.8616    3.7446  -18.1435 C   0  0  0  0  0  0  0  0  0  0  0  0
   -7.0779    4.7483  -17.5691 C   0  0  0  0  0  0  0  0  0  0  0  0
   -7.6602    5.7196  -16.7371 C   0  0  0  0  0  0  0  0  0  0  0  0
   -6.8071    6.7861  -16.1648 C   0  0  0  0  0  0  0  0  0  0  0  0
   -7.1697    7.9873  -16.2927 O   0  0  0  0  0  0  0  0  0  0  0  0
   -5.5632    6.4874  -15.4971 N   0  0  0  0  0  0  0  0  0  0  0  0
   -4.5128    7.5114  -15.4564 C   0  0  0  0  0  0  0  0  0  0  0  0
   -3.2938    7.0136  -14.6737 C   0  0  0  0  0  0  0  0  0  0  0  0
   -3.7121    6.4324  -13.3929 N   0  0  0  0  0  0  0  0  0  0  0  0
   -4.6274    5.2807  -13.5386 C   0  0  0  0  0  0  0  0  0  0  0  0
   -5.2961    5.1614  -14.9234 C   0  0  0  0  0  0  0  0  0  0  0  0
  -10.8554    1.3251  -14.2102 H   0  0  0  0  0  0  0  0  0  0  0  0
  -11.8733    2.3448  -13.1320 H   0  0  0  0  0  0  0  0  0  0  0  0
  -11.9094    2.5921  -14.9258 H   0  0  0  0  0  0  0  0  0  0  0  0
   -8.2626    3.2726  -13.0742 H   0  0  0  0  0  0  0  0  0  0  0  0
   -8.2998    3.3438  -14.8886 H   0  0  0  0  0  0  0  0  0  0  0  0
   -8.6940    1.8212  -14.0332 H   0  0  0  0  0  0  0  0  0  0  0  0
   -9.6984    6.5290  -12.9954 H   0  0  0  0  0  0  0  0  0  0  0  0
   -8.5093    5.5110  -13.8402 H   0  0  0  0  0  0  0  0  0  0  0  0
  -10.8936    4.6181  -16.8914 H   0  0  0  0  0  0  0  0  0  0  0  0
   -9.8409    2.9271  -18.3491 H   0  0  0  0  0  0  0  0  0  0  0  0
   -7.4038    3.0007  -18.7827 H   0  0  0  0  0  0  0  0  0  0  0  0
   -6.0170    4.7756  -17.7847 H   0  0  0  0  0  0  0  0  0  0  0  0
   -4.2054    7.7740  -16.4915 H   0  0  0  0  0  0  0  0  0  0  0  0
   -4.9073    8.4250  -14.9603 H   0  0  0  0  0  0  0  0  0  0  0  0
   -2.6032    7.8639  -14.4856 H   0  0  0  0  0  0  0  0  0  0  0  0
   -2.7375    6.2557  -15.2682 H   0  0  0  0  0  0  0  0  0  0  0  0
   -4.1921    7.1787  -12.8360 H   0  0  0  0  0  0  0  0  0  0  0  0
   -4.0600    4.3478  -13.3352 H   0  0  0  0  0  0  0  0  0  0  0  0
   -5.4249    5.3450  -12.7644 H   0  0  0  0  0  0  0  0  0  0  0  0
   -4.6267    4.6004  -15.6107 H   0  0  0  0  0  0  0  0  0  0  0  0
   -6.2320    4.5768  -14.8092 H   0  0  0  0  0  0  0  0  0  0  0  0
  1  2  1  0
  2  3  1  0
  2  4  1  0
  4  5  2  0
  4  6  1  0
  6  7  1  0
  7  8  1  0
  8  9  2  0
  9 10  1  0
 10 11  2  0
 11 12  1  0
 12 13  2  0
 13 14  1  0
 14 15  2  0
 14 16  1  0
 16 17  1  0
 17 18  1  0
 18 19  1  0
 19 20  1  0
 20 21  1  0
 13  8  1  0
 21 16  1  0
  1 22  1  0
  1 23  1  0
  1 24  1  0
  3 25  1  0
  3 26  1  0
  3 27  1  0
  6 28  1  0
  6 29  1  0
  9 30  1  0
 10 31  1  0
 11 32  1  0
 12 33  1  0
 17 34  1  0
 17 35  1  0
 18 36  1  0
 18 37  1  0
 19 38  1  0
 20 39  1  0
 20 40  1  0
 21 41  1  0
 21 42  1  0
A    1
 C1 
A    2
 N1 
A    3
 C2 
A    4
 C3 
A    5
 O1 
A    6
 C4 
A    7
 S1 
A    8
 C5 
A    9
 C6 
A   10
 C7 
A   11
 C8 
A   12
 C9 
A   13
 C10
A   14
 C11
A   15
 O2 
A   16
 N2 
A   17
 C12
A   18
 C13
A   19
 N3 
A   20
 C14
A   21
 C15
A   22
 H1 
A   23
 H2 
A   24
 H3 
A   25
 H4 
A   26
 H5 
A   27
 H6 
A   28
 H7 
A   29
 H8 
A   30
 H9 
A   31
 H10
A   32
 H11
A   33
 H12
A   34
 H13
A   35
 H14
A   36
 H15
A   37
 H16
A   38
 H17
A   39
 H18
A   40
 H19
A   41
 H20
A   42
 H21
M  END
>  <ref_pdb>  (249) 
x0051_0B

>  <ref_mols>  (249) 
x0904_0B,x0429_0B

>  <original SMILES>  (249) 
[H]c1c([H])c([H])c(C(=O)N2C([H])([H])C([H])([H])N([H])C([H])([H])C2([H])[H])c(SC([H])([H])C(=O)N(C([H])([H])[H])C([H])([H])[H])c1[H]

>  <index>  (249) 
440

>  <∆∆G>  (249) 
-10.458259

>  <∆G_bound>  (249) 
-10.05287

>  <∆G_unbound>  (249) 
0.405389

>  <comRMSD>  (249) 
0.875423

>  <N_constrained_atoms>  (249) 
17.0

>  <N_unconstrained_atoms>  (249) 
6.0

>  <runtime>  (249) 
58.476767

>  <LE>  (249) 
0.454707

>  <percent_hybrid>  (249) 
12.0

>  <dist>  (249) 
5.0

>  <ecfp4>  (249) 
0.34375

>  <daylight>  (249) 
0.222772

>  <topodist>  (249) 
2.0

>  <mces>  (249) 
22.0

>  <tdn>  (249) 
1.0

>  <tup>  (249) 
0.0

>  <rdn>  (249) 
1.0

>  <rup>  (249) 
0.0

>  <ldn>  (249) 
0.0

>  <lup>  (249) 
0.0

>  <mut>  (249) 
2.0

>  <maj>  (249) 
2.0

>  <min>  (249) 
0.0

>  <hyb>  (249) 
1.0

>  <sub>  (249) 
1.0

>  <query_index>  (249) 
49.0

>  <max_hit_Tanimoto>  (249) 
0.175501

>  <largest_ring>  (249) 
6

>  <N_interactions_kept>  (249) 
2.0

>  <N_interactions_lost>  (249) 
1.5

>  <interaction_uniqueness_metric>  (249) 
0.098669

>  <ad_hoc_penalty>  (249) 
-23.000184

>  <N_rotatable_bonds>  (249) 
6

>  <N_HA>  (249) 
21

>  <cluster>  (249) 
5818

>  <N_interactions>  (249) 
5

>  <Enamine>  (249) 
1

>  <Mcule>  (249) 
0

>  <N_PAINS>  (249) 
0

>  <UFF_Gibbs>  (249) 
67.240003

>  <strain_per_HA>  (249) 
2.923478

>  <saltbridge:HIS:51>  (249) 
0

>  <pistack:HIS:51>  (249) 
0

>  <hydroph_interaction:HIS:51>  (249) 
0

>  <hbond:ALA:132>  (249) 
0

>  <hbond:SER:135>  (249) 
1

>  <hydroph_interaction:TYR:150>  (249) 
1

>  <pistack:TYR:161>  (249) 
0

>  <hydroph_interaction:TYR:161>  (249) 
2

>  <hydroph_interaction:ASP:83>  (249) 
0

>  <hbond:TYR:130>  (249) 
0

>  <hydroph_interaction:ALA:132>  (249) 
1

>  <hbond:HIS:51>  (249) 
0

>  <hbond:ASP:129>  (249) 
0

>  <hbond:TYR:150>  (249) 
0

>  <hbond:GLY:151>  (249) 
0

>  <hbond:TYR:161>  (249) 
0

>  <hydroph_interaction:TYR:130>  (249) 
0

>  <hydroph_interaction:PRO:131>  (249) 
0

>  <hydroph_interaction:ASP:129>  (249) 
0

>  <saltbridge:ASP:75>  (249) 
0

>  <saltbridge:ASP:83>  (249) 
0

>  <hydroph_interaction:ASN:152>  (249) 
0

>  <halogenbond:TYR:150>  (249) 
0

>  <hbond:ASP:83>  (249) 
0

>  <hydroph_interaction:VAL:155>  (249) 
0

>  <pication:TYR:161>  (249) 
0

>  <hbond:PRO:131>  (249) 
0

>  <hbond:LEU:128>  (249) 
0

>  <saltbridge:ASP:129>  (249) 
0

>  <hbond:THR:134>  (249) 
0

>  <pication:HIS:51>  (249) 
0

>  <hbond:SER:81>  (249) 
0

>  <hbond:GLY:159>  (249) 
0

>  <hydroph_interaction:PRO:101>  (249) 
0

>  <hydroph_interaction:THR:134>  (249) 
0

>  <hbond:GLY:82>  (249) 
0

>  <hydroph_interaction:GLU:104>  (249) 
0

>  <hydroph_interaction:VAL:36>  (249) 
0

>  <hydroph_interaction:MET:49>  (249) 
0

>  <halogenbond:GLU:104>  (249) 
0

>  <hydroph_interaction:LYS:107>  (249) 
0

$$$$
PSASNTUIQDNJSU-UHFFFAOYSA-N
     RDKit          3D

 42 45  0  0  0  0  0  0  0  0999 V2000
   -8.3088    5.7538  -12.7778 O   0  0  0  0  0  0  0  0  0  0  0  0
   -8.3023    5.9076  -14.1706 C   0  0  0  0  0  0  0  0  0  0  0  0
   -8.9157    6.8934  -14.6615 O   0  0  0  0  0  0  0  0  0  0  0  0
   -7.5447    4.9683  -15.0903 C   0  0  0  0  0  0  0  0  0  0  0  0
   -8.2870    4.7826  -16.4010 C   0  0  0  0  0  0  0  0  0  0  0  0
   -7.9400    5.5306  -17.5503 C   0  0  0  0  0  0  0  0  0  0  0  0
   -8.6783    5.3584  -18.7353 C   0  0  0  0  0  0  0  0  0  0  0  0
   -9.7545    4.4686  -18.7756 C   0  0  0  0  0  0  0  0  0  0  0  0
  -10.1072    3.7433  -17.6369 C   0  0  0  0  0  0  0  0  0  0  0  0
   -9.3809    3.9003  -16.4547 C   0  0  0  0  0  0  0  0  0  0  0  0
   -6.7990    6.4766  -17.5022 C   0  0  0  0  0  0  0  0  0  0  0  0
   -6.4748    7.1396  -18.5251 O   0  0  0  0  0  0  0  0  0  0  0  0
   -6.0500    6.7030  -16.2212 C   0  0  0  0  0  0  0  0  0  0  0  0
   -6.1020    5.4616  -15.3233 C   0  0  0  0  0  0  0  0  0  0  0  0
   -7.6407    4.7082  -12.0786 C   0  0  0  0  0  0  0  0  0  0  0  0
   -7.8061    4.9179  -10.6103 C   0  0  0  0  0  0  0  0  0  0  0  0
   -8.7400    4.3571   -9.7745 C   0  0  0  0  0  0  0  0  0  0  0  0
   -8.6100    4.8815   -8.5519 N   0  0  0  0  0  0  0  0  0  0  0  0
   -9.4204    4.4829   -7.4044 C   0  0  0  0  0  0  0  0  0  0  0  0
  -10.7361    3.8319   -7.8860 C   0  0  0  0  0  0  0  0  0  0  0  0
  -10.4710    2.8156   -9.0173 C   0  0  0  0  0  0  0  0  0  0  0  0
   -9.7178    3.4123  -10.0786 O   0  0  0  0  0  0  0  0  0  0  0  0
   -7.6210    5.7611   -8.5417 N   0  0  0  0  0  0  0  0  0  0  0  0
   -7.1205    5.8110   -9.7980 C   0  0  0  0  0  0  0  0  0  0  0  0
   -7.4702    3.9696  -14.6103 H   0  0  0  0  0  0  0  0  0  0  0  0
   -8.4266    5.9146  -19.6302 H   0  0  0  0  0  0  0  0  0  0  0  0
  -10.3197    4.3451  -19.6906 H   0  0  0  0  0  0  0  0  0  0  0  0
  -10.9475    3.0620  -17.6696 H   0  0  0  0  0  0  0  0  0  0  0  0
   -9.6733    3.3377  -15.5765 H   0  0  0  0  0  0  0  0  0  0  0  0
   -4.9875    6.9397  -16.4470 H   0  0  0  0  0  0  0  0  0  0  0  0
   -6.4894    7.5751  -15.6923 H   0  0  0  0  0  0  0  0  0  0  0  0
   -5.5156    4.6470  -15.8037 H   0  0  0  0  0  0  0  0  0  0  0  0
   -5.6115    5.6910  -14.3526 H   0  0  0  0  0  0  0  0  0  0  0  0
   -6.5574    4.7146  -12.3249 H   0  0  0  0  0  0  0  0  0  0  0  0
   -8.0751    3.7249  -12.3619 H   0  0  0  0  0  0  0  0  0  0  0  0
   -8.8463    3.7532   -6.7917 H   0  0  0  0  0  0  0  0  0  0  0  0
   -9.6501    5.3730   -6.7787 H   0  0  0  0  0  0  0  0  0  0  0  0
  -11.4160    4.6253   -8.2675 H   0  0  0  0  0  0  0  0  0  0  0  0
  -11.2374    3.3241   -7.0344 H   0  0  0  0  0  0  0  0  0  0  0  0
   -9.8982    1.9547   -8.6081 H   0  0  0  0  0  0  0  0  0  0  0  0
  -11.4341    2.4351   -9.4185 H   0  0  0  0  0  0  0  0  0  0  0  0
   -6.3145    6.4659  -10.1061 H   0  0  0  0  0  0  0  0  0  0  0  0
  1  2  1  0
  2  3  2  0
  2  4  1  0
  4  5  1  0
  5  6  1  0
  6  7  2  0
  7  8  1  0
  8  9  2  0
  9 10  1  0
  6 11  1  0
 11 12  2  0
 11 13  1  0
 13 14  1  0
  1 15  1  0
 15 16  1  0
 16 17  2  0
 17 18  1  0
 18 19  1  0
 19 20  1  0
 20 21  1  0
 21 22  1  0
 18 23  1  0
 23 24  2  0
 14  4  1  0
 10  5  2  0
 24 16  1  0
 22 17  1  0
  4 25  1  0
  7 26  1  0
  8 27  1  0
  9 28  1  0
 10 29  1  0
 13 30  1  0
 13 31  1  0
 14 32  1  0
 14 33  1  0
 15 34  1  0
 15 35  1  0
 19 36  1  0
 19 37  1  0
 20 38  1  0
 20 39  1  0
 21 40  1  0
 21 41  1  0
 24 42  1  0
A    1
 O1 
A    2
 C1 
A    3
 O2 
A    4
 C2 
A    5
 C3 
A    6
 C4 
A    7
 C5 
A    8
 C6 
A    9
 C7 
A   10
 C8 
A   11
 C9 
A   12
 O3 
A   13
 C10
A   14
 C11
A   15
 C12
A   16
 C13
A   17
 C14
A   18
 N1 
A   19
 C15
A   20
 C16
A   21
 C17
A   22
 O4 
A   23
 N2 
A   24
 C18
A   25
 H1 
A   26
 H2 
A   27
 H3 
A   28
 H4 
A   29
 H5 
A   30
 H6 
A   31
 H7 
A   32
 H8 
A   33
 H9 
A   34
 H10
A   35
 H11
A   36
 H12
A   37
 H13
A   38
 H14
A   39
 H15
A   40
 H16
A   41
 H17
A   42
 H18
M  END
>  <ref_pdb>  (250) 
x0051_0B

>  <ref_mols>  (250) 
x0969_1B,x0455_0B

>  <original SMILES>  (250) 
[H]c1nn2c(c1C([H])([H])OC(=O)C1([H])c3c([H])c([H])c([H])c([H])c3C(=O)C([H])([H])C1([H])[H])OC([H])([H])C([H])([H])C2([H])[H]

>  <index>  (250) 
374

>  <∆∆G>  (250) 
-7.135638

>  <∆G_bound>  (250) 
-5.994424

>  <∆G_unbound>  (250) 
1.141214

>  <comRMSD>  (250) 
0.342992

>  <N_constrained_atoms>  (250) 
20.0

>  <N_unconstrained_atoms>  (250) 
4.0

>  <runtime>  (250) 
50.623101

>  <LE>  (250) 
0.297318

>  <percent_hybrid>  (250) 
50.0

>  <dist>  (250) 
7.0

>  <ecfp4>  (250) 
0.247059

>  <daylight>  (250) 
0.317808

>  <topodist>  (250) 
2.0

>  <mces>  (250) 
25.0

>  <tdn>  (250) 
0.0

>  <tup>  (250) 
2.0

>  <rdn>  (250) 
0.0

>  <rup>  (250) 
0.0

>  <ldn>  (250) 
0.0

>  <lup>  (250) 
0.0

>  <mut>  (250) 
4.0

>  <maj>  (250) 
4.0

>  <min>  (250) 
0.0

>  <hyb>  (250) 
1.0

>  <sub>  (250) 
0.0

>  <query_index>  (250) 
204.0

>  <max_hit_Tanimoto>  (250) 
0.241573

>  <largest_ring>  (250) 
6

>  <N_interactions_kept>  (250) 
1.5

>  <N_interactions_lost>  (250) 
1.0

>  <interaction_uniqueness_metric>  (250) 
0.117192

>  <ad_hoc_penalty>  (250) 
-22.953086

>  <N_rotatable_bonds>  (250) 
3

>  <N_HA>  (250) 
24

>  <cluster>  (250) 
5875

>  <N_interactions>  (250) 
4

>  <Enamine>  (250) 
0

>  <Mcule>  (250) 
1

>  <N_PAINS>  (250) 
0

>  <UFF_Gibbs>  (250) 
96.941903

>  <strain_per_HA>  (250) 
4.039246

>  <saltbridge:HIS:51>  (250) 
1

>  <pistack:HIS:51>  (250) 
0

>  <hydroph_interaction:HIS:51>  (250) 
0

>  <hbond:ALA:132>  (250) 
0

>  <hbond:SER:135>  (250) 
0

>  <hydroph_interaction:TYR:150>  (250) 
1

>  <pistack:TYR:161>  (250) 
0

>  <hydroph_interaction:TYR:161>  (250) 
2

>  <hydroph_interaction:ASP:83>  (250) 
0

>  <hbond:TYR:130>  (250) 
0

>  <hydroph_interaction:ALA:132>  (250) 
0

>  <hbond:HIS:51>  (250) 
0

>  <hbond:ASP:129>  (250) 
0

>  <hbond:TYR:150>  (250) 
0

>  <hbond:GLY:151>  (250) 
0

>  <hbond:TYR:161>  (250) 
0

>  <hydroph_interaction:TYR:130>  (250) 
0

>  <hydroph_interaction:PRO:131>  (250) 
0

>  <hydroph_interaction:ASP:129>  (250) 
0

>  <saltbridge:ASP:75>  (250) 
0

>  <saltbridge:ASP:83>  (250) 
0

>  <hydroph_interaction:ASN:152>  (250) 
0

>  <halogenbond:TYR:150>  (250) 
0

>  <hbond:ASP:83>  (250) 
0

>  <hydroph_interaction:VAL:155>  (250) 
0

>  <pication:TYR:161>  (250) 
0

>  <hbond:PRO:131>  (250) 
0

>  <hbond:LEU:128>  (250) 
0

>  <saltbridge:ASP:129>  (250) 
0

>  <hbond:THR:134>  (250) 
0

>  <pication:HIS:51>  (250) 
0

>  <hbond:SER:81>  (250) 
0

>  <hbond:GLY:159>  (250) 
0

>  <hydroph_interaction:PRO:101>  (250) 
0

>  <hydroph_interaction:THR:134>  (250) 
0

>  <hbond:GLY:82>  (250) 
0

>  <hydroph_interaction:GLU:104>  (250) 
0

>  <hydroph_interaction:VAL:36>  (250) 
0

>  <hydroph_interaction:MET:49>  (250) 
0

>  <halogenbond:GLU:104>  (250) 
0

>  <hydroph_interaction:LYS:107>  (250) 
0

$$$$
CSSS00000029118
     RDKit          3D

 21 23  0  0  0  0  0  0  0  0999 V2000
   -5.2815    5.6205  -14.9605 O   0  0  0  0  0  0  0  0  0  0  0  0
   -6.2703    5.4442  -15.7194 C   0  0  0  0  0  0  0  0  0  0  0  0
   -7.6914    5.2224  -15.2595 C   0  0  0  0  0  0  0  0  0  0  0  0
   -8.3861    5.0823  -16.5865 C   0  0  0  0  0  0  0  0  0  0  0  0
   -9.7352    4.8570  -16.8732 C   0  0  0  0  0  0  0  0  0  0  0  0
  -10.1304    4.7651  -18.2272 C   0  0  0  0  0  0  0  0  0  0  0  0
   -9.1810    4.8983  -19.2698 C   0  0  0  0  0  0  0  0  0  0  0  0
   -7.8289    5.1247  -18.9548 C   0  0  0  0  0  0  0  0  0  0  0  0
   -6.7975    5.2732  -19.9021 C   0  0  0  0  0  0  0  0  0  0  0  0
   -5.4686    5.4983  -19.4625 C   0  0  0  0  0  0  0  0  0  0  0  0
   -5.1683    5.5753  -18.0832 C   0  0  0  0  0  0  0  0  0  0  0  0
   -6.2178    5.4230  -17.1752 C   0  0  0  0  0  0  0  0  0  0  0  0
   -7.4865    5.2078  -17.6118 C   0  0  0  0  0  0  0  0  0  0  0  0
   -7.7761    4.2878  -14.6660 H   0  0  0  0  0  0  0  0  0  0  0  0
   -8.0716    6.1047  -14.7030 H   0  0  0  0  0  0  0  0  0  0  0  0
  -10.4605    4.7552  -16.0767 H   0  0  0  0  0  0  0  0  0  0  0  0
  -11.1706    4.5910  -18.4698 H   0  0  0  0  0  0  0  0  0  0  0  0
   -9.5006    4.8253  -20.3018 H   0  0  0  0  0  0  0  0  0  0  0  0
   -7.0118    5.2167  -20.9619 H   0  0  0  0  0  0  0  0  0  0  0  0
   -4.6758    5.6124  -20.1901 H   0  0  0  0  0  0  0  0  0  0  0  0
   -4.1558    5.7469  -17.7422 H   0  0  0  0  0  0  0  0  0  0  0  0
  1  2  2  0
  2  3  1  0
  3  4  1  0
  4  5  2  0
  5  6  1  0
  6  7  2  0
  7  8  1  0
  8  9  2  0
  9 10  1  0
 10 11  2  0
 11 12  1  0
 12 13  2  0
 12  2  1  0
 13  4  1  0
 13  8  1  0
  3 14  1  0
  3 15  1  0
  5 16  1  0
  6 17  1  0
  7 18  1  0
  9 19  1  0
 10 20  1  0
 11 21  1  0
A    1
 O1 
A    2
 C1 
A    3
 C2 
A    4
 C3 
A    5
 C4 
A    6
 C5 
A    7
 C6 
A    8
 C7 
A    9
 C8 
A   10
 C9 
A   11
 C10
A   12
 C11
A   13
 C12
A   14
 H1 
A   15
 H2 
A   16
 H3 
A   17
 H4 
A   18
 H5 
A   19
 H6 
A   20
 H7 
A   21
 H8 
M  END
>  <ref_pdb>  (251) 
x0051_0B

>  <ref_mols>  (251) 
x0727_0B,x0455_0B

>  <original SMILES>  (251) 
[H]c1c([H])c2c3c(c([H])c([H])c([H])c3c1[H])C([H])([H])C2=O

>  <index>  (251) 
483

>  <∆∆G>  (251) 
-6.979772

>  <∆G_bound>  (251) 
-7.002299

>  <∆G_unbound>  (251) 
-0.022527

>  <comRMSD>  (251) 
0.536321

>  <N_constrained_atoms>  (251) 
13.0

>  <N_unconstrained_atoms>  (251) 
0.0

>  <runtime>  (251) 
18.485505

>  <LE>  (251) 
0.536906

>  <percent_hybrid>  (251) 
40.0

>  <dist>  (251) 
4.0

>  <ecfp4>  (251) 
0.25

>  <daylight>  (251) 
0.294118

>  <topodist>  (251) 
1.0

>  <mces>  (251) 
15.0

>  <tdn>  (251) 
0.0

>  <tup>  (251) 
0.0

>  <rdn>  (251) 
0.0

>  <rup>  (251) 
0.0

>  <ldn>  (251) 
1.0

>  <lup>  (251) 
0.0

>  <mut>  (251) 
2.0

>  <maj>  (251) 
2.0

>  <min>  (251) 
0.0

>  <hyb>  (251) 
1.0

>  <sub>  (251) 
0.0

>  <query_index>  (251) 
57.0

>  <max_hit_Tanimoto>  (251) 
0.143975

>  <largest_ring>  (251) 
6

>  <N_interactions_kept>  (251) 
0.0

>  <N_interactions_lost>  (251) 
3.0

>  <interaction_uniqueness_metric>  (251) 
0.050285

>  <ad_hoc_penalty>  (251) 
-22.948362

>  <N_rotatable_bonds>  (251) 
0

>  <N_HA>  (251) 
13

>  <cluster>  (251) 
5778

>  <N_interactions>  (251) 
6

>  <Enamine>  (251) 
1

>  <Mcule>  (251) 
0

>  <N_PAINS>  (251) 
0

>  <UFF_Gibbs>  (251) 
22.628177

>  <strain_per_HA>  (251) 
1.740629

>  <saltbridge:HIS:51>  (251) 
0

>  <pistack:HIS:51>  (251) 
0

>  <hydroph_interaction:HIS:51>  (251) 
0

>  <hbond:ALA:132>  (251) 
0

>  <hbond:SER:135>  (251) 
0

>  <hydroph_interaction:TYR:150>  (251) 
1

>  <pistack:TYR:161>  (251) 
2

>  <hydroph_interaction:TYR:161>  (251) 
3

>  <hydroph_interaction:ASP:83>  (251) 
0

>  <hbond:TYR:130>  (251) 
0

>  <hydroph_interaction:ALA:132>  (251) 
0

>  <hbond:HIS:51>  (251) 
0

>  <hbond:ASP:129>  (251) 
0

>  <hbond:TYR:150>  (251) 
0

>  <hbond:GLY:151>  (251) 
0

>  <hbond:TYR:161>  (251) 
0

>  <hydroph_interaction:TYR:130>  (251) 
0

>  <hydroph_interaction:PRO:131>  (251) 
0

>  <hydroph_interaction:ASP:129>  (251) 
0

>  <saltbridge:ASP:75>  (251) 
0

>  <saltbridge:ASP:83>  (251) 
0

>  <hydroph_interaction:ASN:152>  (251) 
0

>  <halogenbond:TYR:150>  (251) 
0

>  <hbond:ASP:83>  (251) 
0

>  <hydroph_interaction:VAL:155>  (251) 
0

>  <pication:TYR:161>  (251) 
0

>  <hbond:PRO:131>  (251) 
0

>  <hbond:LEU:128>  (251) 
0

>  <saltbridge:ASP:129>  (251) 
0

>  <hbond:THR:134>  (251) 
0

>  <pication:HIS:51>  (251) 
0

>  <hbond:SER:81>  (251) 
0

>  <hbond:GLY:159>  (251) 
0

>  <hydroph_interaction:PRO:101>  (251) 
0

>  <hydroph_interaction:THR:134>  (251) 
0

>  <hbond:GLY:82>  (251) 
0

>  <hydroph_interaction:GLU:104>  (251) 
0

>  <hydroph_interaction:VAL:36>  (251) 
0

>  <hydroph_interaction:MET:49>  (251) 
0

>  <halogenbond:GLU:104>  (251) 
0

>  <hydroph_interaction:LYS:107>  (251) 
0

$$$$
MCULE-7101319039
     RDKit          3D

 48 50  0  0  0  0  0  0  0  0999 V2000
   -9.3446    6.4601  -15.2169 O   0  0  0  0  0  0  0  0  0  0  0  0
   -8.5597    5.2706  -15.2308 C   0  0  0  0  0  0  0  0  0  0  0  0
   -8.1000    5.0019  -16.6338 C   0  0  0  0  0  0  0  0  0  0  0  0
   -6.9099    5.5757  -17.1100 C   0  0  0  0  0  0  0  0  0  0  0  0
   -6.4904    5.3501  -18.4310 C   0  0  0  0  0  0  0  0  0  0  0  0
   -5.2350    5.9903  -18.9451 C   0  0  0  0  0  0  0  0  0  0  0  0
   -7.2921    4.5810  -19.2880 C   0  0  0  0  0  0  0  0  0  0  0  0
   -8.4858    4.0234  -18.8225 C   0  0  0  0  0  0  0  0  0  0  0  0
   -8.8918    4.2348  -17.5025 C   0  0  0  0  0  0  0  0  0  0  0  0
   -9.7323    7.1334  -14.0509 C   0  0  0  0  0  0  0  0  0  0  0  0
   -9.6105    6.5315  -12.7079 C   0  0  0  0  0  0  0  0  0  0  0  0
   -8.9619    7.2310  -11.6857 C   0  0  0  0  0  0  0  0  0  0  0  0
   -8.8501    6.6785  -10.4071 C   0  0  0  0  0  0  0  0  0  0  0  0
   -9.4037    5.4102  -10.1056 C   0  0  0  0  0  0  0  0  0  0  0  0
   -9.2857    4.8266   -8.7685 N   0  0  0  0  0  0  0  0  0  0  0  0
   -9.8110    3.4625   -8.5375 C   0  0  0  0  0  0  0  0  0  0  0  0
   -9.7080    2.9638   -7.0892 C   0  0  0  0  0  0  0  0  0  0  0  0
   -8.5018    3.4357   -6.4015 N   0  0  0  0  0  0  0  0  0  0  0  0
   -7.2611    2.8811   -6.9702 C   0  0  0  0  0  0  0  0  0  0  0  0
   -8.5036    4.9012   -6.3502 C   0  0  0  0  0  0  0  0  0  0  0  0
   -8.5079    5.5529   -7.7402 C   0  0  0  0  0  0  0  0  0  0  0  0
  -10.0719    4.7272  -11.1509 C   0  0  0  0  0  0  0  0  0  0  0  0
  -10.1790    5.2852  -12.4274 C   0  0  0  0  0  0  0  0  0  0  0  0
  -10.1786    8.3064  -14.1532 O   0  0  0  0  0  0  0  0  0  0  0  0
   -7.6794    5.3898  -14.5611 H   0  0  0  0  0  0  0  0  0  0  0  0
   -9.1584    4.4116  -14.8642 H   0  0  0  0  0  0  0  0  0  0  0  0
   -6.3114    6.1965  -16.4534 H   0  0  0  0  0  0  0  0  0  0  0  0
   -5.4767    6.9864  -19.3713 H   0  0  0  0  0  0  0  0  0  0  0  0
   -4.7697    5.3616  -19.7338 H   0  0  0  0  0  0  0  0  0  0  0  0
   -4.4953    6.1165  -18.1261 H   0  0  0  0  0  0  0  0  0  0  0  0
   -6.9957    4.4172  -20.3168 H   0  0  0  0  0  0  0  0  0  0  0  0
   -9.1013    3.4323  -19.4883 H   0  0  0  0  0  0  0  0  0  0  0  0
   -9.8249    3.8053  -17.1592 H   0  0  0  0  0  0  0  0  0  0  0  0
   -8.5260    8.2033  -11.8819 H   0  0  0  0  0  0  0  0  0  0  0  0
   -8.3194    7.2597   -9.6683 H   0  0  0  0  0  0  0  0  0  0  0  0
  -10.8877    3.4304   -8.8110 H   0  0  0  0  0  0  0  0  0  0  0  0
   -9.2645    2.7512   -9.1947 H   0  0  0  0  0  0  0  0  0  0  0  0
  -10.6050    3.3018   -6.5235 H   0  0  0  0  0  0  0  0  0  0  0  0
   -9.7403    1.8520   -7.0768 H   0  0  0  0  0  0  0  0  0  0  0  0
   -6.3875    3.2188   -6.3730 H   0  0  0  0  0  0  0  0  0  0  0  0
   -7.1118    3.1901   -8.0266 H   0  0  0  0  0  0  0  0  0  0  0  0
   -7.2868    1.7715   -6.9235 H   0  0  0  0  0  0  0  0  0  0  0  0
   -7.6221    5.2609   -5.7750 H   0  0  0  0  0  0  0  0  0  0  0  0
   -9.3987    5.2448   -5.7846 H   0  0  0  0  0  0  0  0  0  0  0  0
   -7.4559    5.6496   -8.0871 H   0  0  0  0  0  0  0  0  0  0  0  0
   -8.9268    6.5747   -7.6138 H   0  0  0  0  0  0  0  0  0  0  0  0
  -10.5219    3.7572  -11.0026 H   0  0  0  0  0  0  0  0  0  0  0  0
  -10.7284    4.7490  -13.1909 H   0  0  0  0  0  0  0  0  0  0  0  0
  1  2  1  0
  2  3  1  0
  3  4  2  0
  4  5  1  0
  5  6  1  0
  5  7  2  0
  7  8  1  0
  8  9  2  0
  1 10  1  0
 10 11  1  0
 11 12  2  0
 12 13  1  0
 13 14  2  0
 14 15  1  0
 15 16  1  0
 16 17  1  0
 17 18  1  0
 18 19  1  0
 18 20  1  0
 20 21  1  0
 14 22  1  0
 22 23  2  0
 10 24  2  0
  9  3  1  0
 11 23  1  0
 21 15  1  0
  2 25  1  0
  2 26  1  0
  4 27  1  0
  6 28  1  0
  6 29  1  0
  6 30  1  0
  7 31  1  0
  8 32  1  0
  9 33  1  0
 12 34  1  0
 13 35  1  0
 16 36  1  0
 16 37  1  0
 17 38  1  0
 17 39  1  0
 19 40  1  0
 19 41  1  0
 19 42  1  0
 20 43  1  0
 20 44  1  0
 21 45  1  0
 21 46  1  0
 22 47  1  0
 23 48  1  0
A    1
 O1 
A    2
 C1 
A    3
 C2 
A    4
 C3 
A    5
 C4 
A    6
 C5 
A    7
 C6 
A    8
 C7 
A    9
 C8 
A   10
 C9 
A   11
 C10
A   12
 C11
A   13
 C12
A   14
 C13
A   15
 N1 
A   16
 C14
A   17
 C15
A   18
 N2 
A   19
 C16
A   20
 C17
A   21
 C18
A   22
 C19
A   23
 C20
A   24
 O2 
A   25
 H1 
A   26
 H2 
A   27
 H3 
A   28
 H4 
A   29
 H5 
A   30
 H6 
A   31
 H7 
A   32
 H8 
A   33
 H9 
A   34
 H10
A   35
 H11
A   36
 H12
A   37
 H13
A   38
 H14
A   39
 H15
A   40
 H16
A   41
 H17
A   42
 H18
A   43
 H19
A   44
 H20
A   45
 H21
A   46
 H22
A   47
 H23
A   48
 H24
M  END
>  <ref_pdb>  (252) 
x0051_0B

>  <ref_mols>  (252) 
x0589_0B,x0404_0B

>  <original SMILES>  (252) 
[H]c1c([H])c(C([H])([H])[H])c([H])c(C([H])([H])OC(=O)c2c([H])c([H])c(N3C([H])([H])C([H])([H])N(C([H])([H])[H])C([H])([H])C3([H])[H])c([H])c2[H])c1[H]

>  <index>  (252) 
228

>  <∆∆G>  (252) 
-8.637563

>  <∆G_bound>  (252) 
-8.205023

>  <∆G_unbound>  (252) 
0.432541

>  <comRMSD>  (252) 
0.707858

>  <N_constrained_atoms>  (252) 
23.0

>  <N_unconstrained_atoms>  (252) 
2.0

>  <runtime>  (252) 
111.553525

>  <LE>  (252) 
0.345503

>  <percent_hybrid>  (252) 
35.0

>  <dist>  (252) 
6.0

>  <ecfp4>  (252) 
0.24

>  <daylight>  (252) 
0.283237

>  <topodist>  (252) 
3.0

>  <mces>  (252) 
25.0

>  <tdn>  (252) 
2.0

>  <tup>  (252) 
1.0

>  <rdn>  (252) 
0.0

>  <rup>  (252) 
0.0

>  <ldn>  (252) 
0.0

>  <lup>  (252) 
0.0

>  <mut>  (252) 
3.0

>  <maj>  (252) 
3.0

>  <min>  (252) 
0.0

>  <hyb>  (252) 
0.0

>  <sub>  (252) 
2.0

>  <query_index>  (252) 
29.0

>  <max_hit_Tanimoto>  (252) 
0.345521

>  <largest_ring>  (252) 
6

>  <N_interactions_kept>  (252) 
2.0

>  <N_interactions_lost>  (252) 
1.5

>  <interaction_uniqueness_metric>  (252) 
0.203084

>  <ad_hoc_penalty>  (252) 
-22.929347

>  <N_rotatable_bonds>  (252) 
6

>  <N_HA>  (252) 
24

>  <cluster>  (252) 
523

>  <N_interactions>  (252) 
6

>  <Enamine>  (252) 
0

>  <Mcule>  (252) 
1

>  <N_PAINS>  (252) 
0

>  <UFF_Gibbs>  (252) 
199.763476

>  <strain_per_HA>  (252) 
7.990539

>  <saltbridge:HIS:51>  (252) 
0

>  <pistack:HIS:51>  (252) 
1

>  <hydroph_interaction:HIS:51>  (252) 
1

>  <hbond:ALA:132>  (252) 
0

>  <hbond:SER:135>  (252) 
0

>  <hydroph_interaction:TYR:150>  (252) 
0

>  <pistack:TYR:161>  (252) 
0

>  <hydroph_interaction:TYR:161>  (252) 
2

>  <hydroph_interaction:ASP:83>  (252) 
0

>  <hbond:TYR:130>  (252) 
0

>  <hydroph_interaction:ALA:132>  (252) 
1

>  <hbond:HIS:51>  (252) 
0

>  <hbond:ASP:129>  (252) 
0

>  <hbond:TYR:150>  (252) 
0

>  <hbond:GLY:151>  (252) 
0

>  <hbond:TYR:161>  (252) 
0

>  <hydroph_interaction:TYR:130>  (252) 
0

>  <hydroph_interaction:PRO:131>  (252) 
0

>  <hydroph_interaction:ASP:129>  (252) 
0

>  <saltbridge:ASP:75>  (252) 
1

>  <saltbridge:ASP:83>  (252) 
0

>  <hydroph_interaction:ASN:152>  (252) 
0

>  <halogenbond:TYR:150>  (252) 
0

>  <hbond:ASP:83>  (252) 
0

>  <hydroph_interaction:VAL:155>  (252) 
0

>  <pication:TYR:161>  (252) 
0

>  <hbond:PRO:131>  (252) 
0

>  <hbond:LEU:128>  (252) 
0

>  <saltbridge:ASP:129>  (252) 
0

>  <hbond:THR:134>  (252) 
0

>  <pication:HIS:51>  (252) 
0

>  <hbond:SER:81>  (252) 
0

>  <hbond:GLY:159>  (252) 
0

>  <hydroph_interaction:PRO:101>  (252) 
0

>  <hydroph_interaction:THR:134>  (252) 
0

>  <hbond:GLY:82>  (252) 
0

>  <hydroph_interaction:GLU:104>  (252) 
0

>  <hydroph_interaction:VAL:36>  (252) 
0

>  <hydroph_interaction:MET:49>  (252) 
0

>  <halogenbond:GLU:104>  (252) 
0

>  <hydroph_interaction:LYS:107>  (252) 
0

$$$$
MCULE-3518890417
     RDKit          3D

 22 24  0  0  0  0  0  0  0  0999 V2000
   -8.3548    5.3289  -16.6029 C   0  0  0  0  0  0  0  0  0  0  0  0
   -9.6816    4.9694  -16.8576 C   0  0  0  0  0  0  0  0  0  0  0  0
  -10.0482    4.6413  -18.1818 C   0  0  0  0  0  0  0  0  0  0  0  0
   -9.0924    4.6803  -19.2249 C   0  0  0  0  0  0  0  0  0  0  0  0
   -7.7657    5.0484  -18.9367 C   0  0  0  0  0  0  0  0  0  0  0  0
   -6.7352    5.1309  -19.8904 C   0  0  0  0  0  0  0  0  0  0  0  0
   -5.4377    5.5235  -19.4839 C   0  0  0  0  0  0  0  0  0  0  0  0
   -5.1697    5.8301  -18.1314 C   0  0  0  0  0  0  0  0  0  0  0  0
   -6.2130    5.7305  -17.2047 C   0  0  0  0  0  0  0  0  0  0  0  0
   -6.2203    5.9994  -15.7305 C   0  0  0  0  0  0  0  0  0  0  0  0
   -4.9938    4.8014  -14.8173 Br  0  0  0  0  0  0  0  0  0  0  0  0
   -7.7008    5.7284  -15.3175 C   0  0  0  0  0  0  0  0  0  0  0  0
   -7.4523    5.3574  -17.6176 C   0  0  0  0  0  0  0  0  0  0  0  0
  -10.4112    4.9441  -16.0589 H   0  0  0  0  0  0  0  0  0  0  0  0
  -11.0700    4.3600  -18.4009 H   0  0  0  0  0  0  0  0  0  0  0  0
   -9.3874    4.4296  -20.2362 H   0  0  0  0  0  0  0  0  0  0  0  0
   -6.9276    4.9007  -20.9309 H   0  0  0  0  0  0  0  0  0  0  0  0
   -4.6438    5.5913  -20.2162 H   0  0  0  0  0  0  0  0  0  0  0  0
   -4.1791    6.1336  -17.8191 H   0  0  0  0  0  0  0  0  0  0  0  0
   -5.9412    7.0566  -15.5329 H   0  0  0  0  0  0  0  0  0  0  0  0
   -7.7858    4.9065  -14.5752 H   0  0  0  0  0  0  0  0  0  0  0  0
   -8.1743    6.6518  -14.9206 H   0  0  0  0  0  0  0  0  0  0  0  0
  1  2  2  0
  2  3  1  0
  3  4  2  0
  4  5  1  0
  5  6  2  0
  6  7  1  0
  7  8  2  0
  8  9  1  0
  9 10  1  0
 10 11  1  0
 10 12  1  0
  9 13  2  0
 12  1  1  0
  1 13  1  0
 13  5  1  0
  2 14  1  0
  3 15  1  0
  4 16  1  0
  6 17  1  0
  7 18  1  0
  8 19  1  0
 10 20  1  0
 12 21  1  0
 12 22  1  0
A    1
 C1 
A    2
 C2 
A    3
 C3 
A    4
 C4 
A    5
 C5 
A    6
 C6 
A    7
 C7 
A    8
 C8 
A    9
 C9 
A   10
 C10
A   11
BR1 
A   12
 C11
A   13
 C12
A   14
 H1 
A   15
 H2 
A   16
 H3 
A   17
 H4 
A   18
 H5 
A   19
 H6 
A   20
 H7 
A   21
 H8 
A   22
 H9 
M  END
>  <ref_pdb>  (253) 
x0051_0B

>  <ref_mols>  (253) 
x0727_0B,x0455_0B

>  <original SMILES>  (253) 
[H]c1c([H])c2c3c(c([H])c([H])c([H])c3c1[H])C([H])(Br)C2([H])[H]

>  <index>  (253) 
476

>  <∆∆G>  (253) 
-7.033912

>  <∆G_bound>  (253) 
-7.091185

>  <∆G_unbound>  (253) 
-0.057274

>  <comRMSD>  (253) 
0.92441

>  <N_constrained_atoms>  (253) 
14.0

>  <N_unconstrained_atoms>  (253) 
1.0

>  <runtime>  (253) 
19.181777

>  <LE>  (253) 
0.468927

>  <percent_hybrid>  (253) 
34.0

>  <dist>  (253) 
3.0

>  <ecfp4>  (253) 
0.27907

>  <daylight>  (253) 
0.269231

>  <topodist>  (253) 
1.0

>  <mces>  (253) 
15.0

>  <tdn>  (253) 
0.0

>  <tup>  (253) 
0.0

>  <rdn>  (253) 
0.0

>  <rup>  (253) 
0.0

>  <ldn>  (253) 
1.0

>  <lup>  (253) 
0.0

>  <mut>  (253) 
2.0

>  <maj>  (253) 
2.0

>  <min>  (253) 
0.0

>  <hyb>  (253) 
0.0

>  <sub>  (253) 
0.0

>  <query_index>  (253) 
57.0

>  <max_hit_Tanimoto>  (253) 
0.172348

>  <largest_ring>  (253) 
6

>  <N_interactions_kept>  (253) 
0.0

>  <N_interactions_lost>  (253) 
3.0

>  <interaction_uniqueness_metric>  (253) 
0.069541

>  <ad_hoc_penalty>  (253) 
-22.920827

>  <N_rotatable_bonds>  (253) 
0

>  <N_HA>  (253) 
13

>  <cluster>  (253) 
5785

>  <N_interactions>  (253) 
6

>  <Enamine>  (253) 
0

>  <Mcule>  (253) 
1

>  <N_PAINS>  (253) 
0

>  <UFF_Gibbs>  (253) 
30.661263

>  <strain_per_HA>  (253) 
2.044084

>  <saltbridge:HIS:51>  (253) 
0

>  <pistack:HIS:51>  (253) 
0

>  <hydroph_interaction:HIS:51>  (253) 
0

>  <hbond:ALA:132>  (253) 
0

>  <hbond:SER:135>  (253) 
0

>  <hydroph_interaction:TYR:150>  (253) 
1

>  <pistack:TYR:161>  (253) 
3

>  <hydroph_interaction:TYR:161>  (253) 
1

>  <hydroph_interaction:ASP:83>  (253) 
0

>  <hbond:TYR:130>  (253) 
0

>  <hydroph_interaction:ALA:132>  (253) 
1

>  <hbond:HIS:51>  (253) 
0

>  <hbond:ASP:129>  (253) 
0

>  <hbond:TYR:150>  (253) 
0

>  <hbond:GLY:151>  (253) 
0

>  <hbond:TYR:161>  (253) 
0

>  <hydroph_interaction:TYR:130>  (253) 
0

>  <hydroph_interaction:PRO:131>  (253) 
0

>  <hydroph_interaction:ASP:129>  (253) 
0

>  <saltbridge:ASP:75>  (253) 
0

>  <saltbridge:ASP:83>  (253) 
0

>  <hydroph_interaction:ASN:152>  (253) 
0

>  <halogenbond:TYR:150>  (253) 
0

>  <hbond:ASP:83>  (253) 
0

>  <hydroph_interaction:VAL:155>  (253) 
0

>  <pication:TYR:161>  (253) 
0

>  <hbond:PRO:131>  (253) 
0

>  <hbond:LEU:128>  (253) 
0

>  <saltbridge:ASP:129>  (253) 
0

>  <hbond:THR:134>  (253) 
0

>  <pication:HIS:51>  (253) 
0

>  <hbond:SER:81>  (253) 
0

>  <hbond:GLY:159>  (253) 
0

>  <hydroph_interaction:PRO:101>  (253) 
0

>  <hydroph_interaction:THR:134>  (253) 
0

>  <hbond:GLY:82>  (253) 
0

>  <hydroph_interaction:GLU:104>  (253) 
0

>  <hydroph_interaction:VAL:36>  (253) 
0

>  <hydroph_interaction:MET:49>  (253) 
0

>  <halogenbond:GLU:104>  (253) 
0

>  <hydroph_interaction:LYS:107>  (253) 
0

$$$$
UPLZAXIYAXARIS-UHFFFAOYSA-N
     RDKit          3D

 31 31  0  0  0  0  0  0  0  0999 V2000
   -8.6847    5.9560  -14.9107 C   0  0  0  0  0  0  0  0  0  0  0  0
   -9.9659    6.5993  -14.8438 N   0  0  0  0  0  0  0  0  0  0  0  0
  -10.6243    6.9284  -13.5801 C   0  0  0  0  0  0  0  0  0  0  0  0
  -11.6647    5.8638  -13.2159 C   0  0  0  0  0  0  0  0  0  0  0  0
  -11.0142    4.5323  -12.8169 C   0  0  0  0  0  0  0  0  0  0  0  0
  -12.0672    3.5076  -12.4063 C   0  0  0  0  0  0  0  0  0  0  0  0
   -7.9599    5.8901  -13.8816 O   0  0  0  0  0  0  0  0  0  0  0  0
   -8.1947    5.3782  -16.1812 C   0  0  0  0  0  0  0  0  0  0  0  0
   -8.9486    4.7460  -17.1592 C   0  0  0  0  0  0  0  0  0  0  0  0
  -10.4227    4.4909  -17.1928 C   0  0  0  0  0  0  0  0  0  0  0  0
   -8.0383    4.3724  -18.1293 C   0  0  0  0  0  0  0  0  0  0  0  0
   -6.8009    4.7427  -17.7473 N   0  0  0  0  0  0  0  0  0  0  0  0
   -6.9006    5.3475  -16.5733 N   0  0  0  0  0  0  0  0  0  0  0  0
   -5.7490    5.8806  -15.8528 C   0  0  0  0  0  0  0  0  0  0  0  0
  -10.4800    6.8097  -15.7275 H   0  0  0  0  0  0  0  0  0  0  0  0
  -11.1418    7.9050  -13.6951 H   0  0  0  0  0  0  0  0  0  0  0  0
   -9.8845    7.0471  -12.7590 H   0  0  0  0  0  0  0  0  0  0  0  0
  -12.3491    5.7068  -14.0785 H   0  0  0  0  0  0  0  0  0  0  0  0
  -12.2688    6.2429  -12.3627 H   0  0  0  0  0  0  0  0  0  0  0  0
  -10.4354    4.1202  -13.6703 H   0  0  0  0  0  0  0  0  0  0  0  0
  -10.3185    4.6946  -11.9650 H   0  0  0  0  0  0  0  0  0  0  0  0
  -12.6454    3.8767  -11.5325 H   0  0  0  0  0  0  0  0  0  0  0  0
  -12.7623    3.3102  -13.2501 H   0  0  0  0  0  0  0  0  0  0  0  0
  -11.5697    2.5553  -12.1260 H   0  0  0  0  0  0  0  0  0  0  0  0
  -10.6412    3.6081  -17.8298 H   0  0  0  0  0  0  0  0  0  0  0  0
  -10.8027    4.2849  -16.1710 H   0  0  0  0  0  0  0  0  0  0  0  0
  -10.9449    5.3738  -17.6156 H   0  0  0  0  0  0  0  0  0  0  0  0
   -8.2603    3.8507  -19.0508 H   0  0  0  0  0  0  0  0  0  0  0  0
   -5.9524    6.9237  -15.5306 H   0  0  0  0  0  0  0  0  0  0  0  0
   -5.5377    5.2489  -14.9649 H   0  0  0  0  0  0  0  0  0  0  0  0
   -4.8537    5.8834  -16.5102 H   0  0  0  0  0  0  0  0  0  0  0  0
  1  2  1  0
  2  3  1  0
  3  4  1  0
  4  5  1  0
  5  6  1  0
  1  7  2  0
  1  8  1  0
  8  9  2  0
  9 10  1  0
  9 11  1  0
 11 12  2  0
 12 13  1  0
 13 14  1  0
 13  8  1  0
  2 15  1  0
  3 16  1  0
  3 17  1  0
  4 18  1  0
  4 19  1  0
  5 20  1  0
  5 21  1  0
  6 22  1  0
  6 23  1  0
  6 24  1  0
 10 25  1  0
 10 26  1  0
 10 27  1  0
 11 28  1  0
 14 29  1  0
 14 30  1  0
 14 31  1  0
A    1
 C1 
A    2
 N1 
A    3
 C2 
A    4
 C3 
A    5
 C4 
A    6
 C5 
A    7
 O1 
A    8
 C6 
A    9
 C7 
A   10
 C8 
A   11
 C9 
A   12
 N2 
A   13
 N3 
A   14
 C10
A   15
 H1 
A   16
 H2 
A   17
 H3 
A   18
 H4 
A   19
 H5 
A   20
 H6 
A   21
 H7 
A   22
 H8 
A   23
 H9 
A   24
 H10
A   25
 H11
A   26
 H12
A   27
 H13
A   28
 H14
A   29
 H15
A   30
 H16
A   31
 H17
M  END
>  <ref_pdb>  (254) 
x0051_0B

>  <ref_mols>  (254) 
x0969_0B,x0693_0B

>  <original SMILES>  (254) 
[H]c1nn(C([H])([H])[H])c(C(=O)N([H])C([H])([H])C([H])([H])C([H])([H])C([H])([H])[H])c1C([H])([H])[H]

>  <index>  (254) 
598

>  <∆∆G>  (254) 
-6.966219

>  <∆G_bound>  (254) 
-7.356586

>  <∆G_unbound>  (254) 
-0.390368

>  <comRMSD>  (254) 
0.925477

>  <N_constrained_atoms>  (254) 
9.0

>  <N_unconstrained_atoms>  (254) 
7.0

>  <runtime>  (254) 
42.784647

>  <LE>  (254) 
0.435389

>  <percent_hybrid>  (254) 
0.0

>  <dist>  (254) 
6.0

>  <ecfp4>  (254) 
0.209677

>  <daylight>  (254) 
0.357798

>  <topodist>  (254) 
3.0

>  <mces>  (254) 
13.0

>  <tdn>  (254) 
1.0

>  <tup>  (254) 
1.0

>  <rdn>  (254) 
1.0

>  <rup>  (254) 
0.0

>  <ldn>  (254) 
0.0

>  <lup>  (254) 
0.0

>  <mut>  (254) 
1.0

>  <maj>  (254) 
1.0

>  <min>  (254) 
0.0

>  <hyb>  (254) 
2.0

>  <sub>  (254) 
1.0

>  <query_index>  (254) 
104.0

>  <max_hit_Tanimoto>  (254) 
0.504518

>  <largest_ring>  (254) 
5

>  <N_interactions_kept>  (254) 
3.0

>  <N_interactions_lost>  (254) 
1.5

>  <interaction_uniqueness_metric>  (254) 
0.711026

>  <ad_hoc_penalty>  (254) 
-22.910712

>  <N_rotatable_bonds>  (254) 
7

>  <N_HA>  (254) 
14

>  <cluster>  (254) 
5671

>  <N_interactions>  (254) 
6

>  <Enamine>  (254) 
0

>  <Mcule>  (254) 
1

>  <N_PAINS>  (254) 
0

>  <UFF_Gibbs>  (254) 
80.207843

>  <strain_per_HA>  (254) 
5.01299

>  <saltbridge:HIS:51>  (254) 
0

>  <pistack:HIS:51>  (254) 
0

>  <hydroph_interaction:HIS:51>  (254) 
1

>  <hbond:ALA:132>  (254) 
0

>  <hbond:SER:135>  (254) 
2

>  <hydroph_interaction:TYR:150>  (254) 
1

>  <pistack:TYR:161>  (254) 
1

>  <hydroph_interaction:TYR:161>  (254) 
0

>  <hydroph_interaction:ASP:83>  (254) 
0

>  <hbond:TYR:130>  (254) 
0

>  <hydroph_interaction:ALA:132>  (254) 
0

>  <hbond:HIS:51>  (254) 
0

>  <hbond:ASP:129>  (254) 
0

>  <hbond:TYR:150>  (254) 
0

>  <hbond:GLY:151>  (254) 
0

>  <hbond:TYR:161>  (254) 
0

>  <hydroph_interaction:TYR:130>  (254) 
0

>  <hydroph_interaction:PRO:131>  (254) 
0

>  <hydroph_interaction:ASP:129>  (254) 
0

>  <saltbridge:ASP:75>  (254) 
0

>  <saltbridge:ASP:83>  (254) 
0

>  <hydroph_interaction:ASN:152>  (254) 
0

>  <halogenbond:TYR:150>  (254) 
0

>  <hbond:ASP:83>  (254) 
0

>  <hydroph_interaction:VAL:155>  (254) 
0

>  <pication:TYR:161>  (254) 
0

>  <hbond:PRO:131>  (254) 
0

>  <hbond:LEU:128>  (254) 
0

>  <saltbridge:ASP:129>  (254) 
0

>  <hbond:THR:134>  (254) 
0

>  <pication:HIS:51>  (254) 
0

>  <hbond:SER:81>  (254) 
0

>  <hbond:GLY:159>  (254) 
0

>  <hydroph_interaction:PRO:101>  (254) 
0

>  <hydroph_interaction:THR:134>  (254) 
0

>  <hbond:GLY:82>  (254) 
0

>  <hydroph_interaction:GLU:104>  (254) 
0

>  <hydroph_interaction:VAL:36>  (254) 
0

>  <hydroph_interaction:MET:49>  (254) 
1

>  <halogenbond:GLU:104>  (254) 
0

>  <hydroph_interaction:LYS:107>  (254) 
0

$$$$
LUZDAWBRMLYCBD-UHFFFAOYSA-N
     RDKit          3D

 39 42  0  0  0  0  0  0  0  0999 V2000
   -8.9210    6.1507  -14.1298 C   0  0  0  0  0  0  0  0  0  0  0  0
   -8.0728    5.5814  -15.1410 N   0  0  0  0  0  0  0  0  0  0  0  0
   -8.3439    5.6681  -16.5505 C   0  0  0  0  0  0  0  0  0  0  0  0
   -7.3036    5.6307  -17.4819 C   0  0  0  0  0  0  0  0  0  0  0  0
   -7.5213    5.6845  -18.8187 C   0  0  0  0  0  0  0  0  0  0  0  0
   -6.3382    5.6395  -19.4460 N   0  0  0  0  0  0  0  0  0  0  0  0
   -5.4596    5.5624  -18.4766 O   0  0  0  0  0  0  0  0  0  0  0  0
   -5.9809    5.5541  -17.2741 N   0  0  0  0  0  0  0  0  0  0  0  0
   -8.7974    5.7692  -19.3637 C   0  0  0  0  0  0  0  0  0  0  0  0
   -9.8822    5.7916  -18.4665 C   0  0  0  0  0  0  0  0  0  0  0  0
   -9.6612    5.7355  -17.0691 C   0  0  0  0  0  0  0  0  0  0  0  0
   -9.6998    7.0974  -14.4280 O   0  0  0  0  0  0  0  0  0  0  0  0
   -8.8557    5.6751  -12.7266 C   0  0  0  0  0  0  0  0  0  0  0  0
   -9.3735    6.4591  -11.6832 C   0  0  0  0  0  0  0  0  0  0  0  0
   -9.3156    6.0059  -10.3645 C   0  0  0  0  0  0  0  0  0  0  0  0
   -8.7354    4.7601  -10.0854 C   0  0  0  0  0  0  0  0  0  0  0  0
   -8.6703    4.2571   -8.7374 N   0  0  0  0  0  0  0  0  0  0  0  0
   -8.6955    2.8085   -8.5128 C   0  0  0  0  0  0  0  0  0  0  0  0
   -9.2005    2.5101   -7.0977 C   0  0  0  0  0  0  0  0  0  0  0  0
   -8.4612    3.2378   -6.1355 O   0  0  0  0  0  0  0  0  0  0  0  0
   -8.6840    4.6241   -6.3109 C   0  0  0  0  0  0  0  0  0  0  0  0
   -8.1335    5.0970   -7.6597 C   0  0  0  0  0  0  0  0  0  0  0  0
   -8.2621    4.0031  -11.1138 N   0  0  0  0  0  0  0  0  0  0  0  0
   -8.3053    4.4231  -12.4057 C   0  0  0  0  0  0  0  0  0  0  0  0
   -7.1587    5.1723  -14.8432 H   0  0  0  0  0  0  0  0  0  0  0  0
   -8.9519    5.8090  -20.4342 H   0  0  0  0  0  0  0  0  0  0  0  0
  -10.8933    5.8431  -18.8488 H   0  0  0  0  0  0  0  0  0  0  0  0
  -10.5165    5.7208  -16.4072 H   0  0  0  0  0  0  0  0  0  0  0  0
   -9.8221    7.4238  -11.8856 H   0  0  0  0  0  0  0  0  0  0  0  0
   -9.7429    6.6128   -9.5776 H   0  0  0  0  0  0  0  0  0  0  0  0
   -7.6694    2.3990   -8.6368 H   0  0  0  0  0  0  0  0  0  0  0  0
   -9.3697    2.3141   -9.2462 H   0  0  0  0  0  0  0  0  0  0  0  0
   -9.0725    1.4258   -6.8955 H   0  0  0  0  0  0  0  0  0  0  0  0
  -10.2898    2.7305   -7.0185 H   0  0  0  0  0  0  0  0  0  0  0  0
   -8.1585    5.1715   -5.5002 H   0  0  0  0  0  0  0  0  0  0  0  0
   -9.7667    4.8721   -6.2239 H   0  0  0  0  0  0  0  0  0  0  0  0
   -8.4022    6.1638   -7.8007 H   0  0  0  0  0  0  0  0  0  0  0  0
   -7.0249    5.0164   -7.6546 H   0  0  0  0  0  0  0  0  0  0  0  0
   -7.9275    3.7661  -13.1770 H   0  0  0  0  0  0  0  0  0  0  0  0
  1  2  1  0
  2  3  1  0
  3  4  1  0
  4  5  1  0
  5  6  2  0
  6  7  1  0
  7  8  1  0
  5  9  1  0
  9 10  2  0
 10 11  1  0
  1 12  2  0
  1 13  1  0
 13 14  2  0
 14 15  1  0
 15 16  2  0
 16 17  1  0
 17 18  1  0
 18 19  1  0
 19 20  1  0
 20 21  1  0
 21 22  1  0
 16 23  1  0
 23 24  2  0
  3 11  2  0
  4  8  2  0
 24 13  1  0
 22 17  1  0
  2 25  1  0
  9 26  1  0
 10 27  1  0
 11 28  1  0
 14 29  1  0
 15 30  1  0
 18 31  1  0
 18 32  1  0
 19 33  1  0
 19 34  1  0
 21 35  1  0
 21 36  1  0
 22 37  1  0
 22 38  1  0
 24 39  1  0
A    1
 C1 
A    2
 N1 
A    3
 C2 
A    4
 C3 
A    5
 C4 
A    6
 N2 
A    7
 O1 
A    8
 N3 
A    9
 C5 
A   10
 C6 
A   11
 C7 
A   12
 O2 
A   13
 C8 
A   14
 C9 
A   15
 C10
A   16
 C11
A   17
 N4 
A   18
 C12
A   19
 C13
A   20
 O3 
A   21
 C14
A   22
 C15
A   23
 N5 
A   24
 C16
A   25
 H1 
A   26
 H2 
A   27
 H3 
A   28
 H4 
A   29
 H5 
A   30
 H6 
A   31
 H7 
A   32
 H8 
A   33
 H9 
A   34
 H10
A   35
 H11
A   36
 H12
A   37
 H13
A   38
 H14
A   39
 H15
M  END
>  <ref_pdb>  (255) 
x0051_0B

>  <ref_mols>  (255) 
x0435_0B,x0404_0B

>  <original SMILES>  (255) 
[H]c1nc(N2C([H])([H])C([H])([H])OC([H])([H])C2([H])[H])c([H])c([H])c1C(=O)N([H])c1c([H])c([H])c([H])c2nonc12

>  <index>  (255) 
419

>  <∆∆G>  (255) 
-6.047059

>  <∆G_bound>  (255) 
-5.227839

>  <∆G_unbound>  (255) 
0.81922

>  <comRMSD>  (255) 
0.521739

>  <N_constrained_atoms>  (255) 
24.0

>  <N_unconstrained_atoms>  (255) 
0.0

>  <runtime>  (255) 
86.121089

>  <LE>  (255) 
0.251961

>  <percent_hybrid>  (255) 
38.0

>  <dist>  (255) 
10.0

>  <ecfp4>  (255) 
0.130435

>  <daylight>  (255) 
0.21

>  <topodist>  (255) 
3.0

>  <mces>  (255) 
27.0

>  <tdn>  (255) 
2.0

>  <tup>  (255) 
0.0

>  <rdn>  (255) 
0.0

>  <rup>  (255) 
0.0

>  <ldn>  (255) 
1.0

>  <lup>  (255) 
0.0

>  <mut>  (255) 
6.0

>  <maj>  (255) 
6.0

>  <min>  (255) 
0.0

>  <hyb>  (255) 
1.0

>  <sub>  (255) 
0.0

>  <query_index>  (255) 
26.0

>  <max_hit_Tanimoto>  (255) 
0.201638

>  <largest_ring>  (255) 
6

>  <N_interactions_kept>  (255) 
3.0

>  <N_interactions_lost>  (255) 
1.5

>  <interaction_uniqueness_metric>  (255) 
0.112655

>  <ad_hoc_penalty>  (255) 
-22.876068

>  <N_rotatable_bonds>  (255) 
3

>  <N_HA>  (255) 
24

>  <cluster>  (255) 
525

>  <N_interactions>  (255) 
5

>  <Enamine>  (255) 
0

>  <Mcule>  (255) 
1

>  <N_PAINS>  (255) 
0

>  <UFF_Gibbs>  (255) 
84.476242

>  <strain_per_HA>  (255) 
3.519843

>  <saltbridge:HIS:51>  (255) 
0

>  <pistack:HIS:51>  (255) 
1

>  <hydroph_interaction:HIS:51>  (255) 
1

>  <hbond:ALA:132>  (255) 
0

>  <hbond:SER:135>  (255) 
0

>  <hydroph_interaction:TYR:150>  (255) 
1

>  <pistack:TYR:161>  (255) 
0

>  <hydroph_interaction:TYR:161>  (255) 
1

>  <hydroph_interaction:ASP:83>  (255) 
0

>  <hbond:TYR:130>  (255) 
0

>  <hydroph_interaction:ALA:132>  (255) 
1

>  <hbond:HIS:51>  (255) 
0

>  <hbond:ASP:129>  (255) 
0

>  <hbond:TYR:150>  (255) 
0

>  <hbond:GLY:151>  (255) 
0

>  <hbond:TYR:161>  (255) 
0

>  <hydroph_interaction:TYR:130>  (255) 
0

>  <hydroph_interaction:PRO:131>  (255) 
0

>  <hydroph_interaction:ASP:129>  (255) 
0

>  <saltbridge:ASP:75>  (255) 
0

>  <saltbridge:ASP:83>  (255) 
0

>  <hydroph_interaction:ASN:152>  (255) 
0

>  <halogenbond:TYR:150>  (255) 
0

>  <hbond:ASP:83>  (255) 
0

>  <hydroph_interaction:VAL:155>  (255) 
0

>  <pication:TYR:161>  (255) 
0

>  <hbond:PRO:131>  (255) 
0

>  <hbond:LEU:128>  (255) 
0

>  <saltbridge:ASP:129>  (255) 
0

>  <hbond:THR:134>  (255) 
0

>  <pication:HIS:51>  (255) 
0

>  <hbond:SER:81>  (255) 
0

>  <hbond:GLY:159>  (255) 
0

>  <hydroph_interaction:PRO:101>  (255) 
0

>  <hydroph_interaction:THR:134>  (255) 
0

>  <hbond:GLY:82>  (255) 
0

>  <hydroph_interaction:GLU:104>  (255) 
0

>  <hydroph_interaction:VAL:36>  (255) 
0

>  <hydroph_interaction:MET:49>  (255) 
0

>  <halogenbond:GLU:104>  (255) 
0

>  <hydroph_interaction:LYS:107>  (255) 
0

$$$$
UEBFPNWKLCPIIC-UHFFFAOYSA-N
     RDKit          3D

 41 43  0  0  0  0  0  0  0  0999 V2000
   -8.6573    7.5877  -14.0918 C   0  0  0  0  0  0  0  0  0  0  0  0
   -8.6143    6.9498  -15.3757 N   0  0  0  0  0  0  0  0  0  0  0  0
   -7.6739    5.8733  -15.6805 C   0  0  0  0  0  0  0  0  0  0  0  0
   -8.3097    4.8975  -16.6178 C   0  0  0  0  0  0  0  0  0  0  0  0
   -9.3038    4.1049  -16.2888 O   0  0  0  0  0  0  0  0  0  0  0  0
   -9.6331    3.3901  -17.3402 C   0  0  0  0  0  0  0  0  0  0  0  0
   -8.8228    3.7290  -18.4054 C   0  0  0  0  0  0  0  0  0  0  0  0
   -7.9670    4.7046  -17.9409 C   0  0  0  0  0  0  0  0  0  0  0  0
   -8.7312    8.8451  -14.0387 O   0  0  0  0  0  0  0  0  0  0  0  0
   -8.6580    6.8072  -12.8332 C   0  0  0  0  0  0  0  0  0  0  0  0
   -8.1319    7.3649  -11.6563 C   0  0  0  0  0  0  0  0  0  0  0  0
   -8.1488    6.6416  -10.4605 C   0  0  0  0  0  0  0  0  0  0  0  0
   -8.7007    5.3510  -10.4175 C   0  0  0  0  0  0  0  0  0  0  0  0
   -8.7279    4.6035   -9.1868 N   0  0  0  0  0  0  0  0  0  0  0  0
   -8.1247    3.2650   -9.1280 C   0  0  0  0  0  0  0  0  0  0  0  0
   -8.9805    2.3387   -8.2608 C   0  0  0  0  0  0  0  0  0  0  0  0
   -9.2435    2.9705   -6.8893 C   0  0  0  0  0  0  0  0  0  0  0  0
   -9.9068    4.3436   -7.0407 C   0  0  0  0  0  0  0  0  0  0  0  0
   -9.0590    5.2688   -7.9199 C   0  0  0  0  0  0  0  0  0  0  0  0
   -9.2419    4.7999  -11.5889 C   0  0  0  0  0  0  0  0  0  0  0  0
   -9.2246    5.5222  -12.7851 C   0  0  0  0  0  0  0  0  0  0  0  0
   -9.0036    7.4823  -16.1869 H   0  0  0  0  0  0  0  0  0  0  0  0
   -6.7632    6.3095  -16.1430 H   0  0  0  0  0  0  0  0  0  0  0  0
   -7.3613    5.3360  -14.7618 H   0  0  0  0  0  0  0  0  0  0  0  0
  -10.4234    2.6513  -17.3537 H   0  0  0  0  0  0  0  0  0  0  0  0
   -8.8523    3.3126  -19.4034 H   0  0  0  0  0  0  0  0  0  0  0  0
   -7.1898    5.2111  -18.4995 H   0  0  0  0  0  0  0  0  0  0  0  0
   -7.6960    8.3564  -11.6645 H   0  0  0  0  0  0  0  0  0  0  0  0
   -7.7212    7.0852   -9.5705 H   0  0  0  0  0  0  0  0  0  0  0  0
   -7.1048    3.3446   -8.6936 H   0  0  0  0  0  0  0  0  0  0  0  0
   -8.0257    2.8208  -10.1419 H   0  0  0  0  0  0  0  0  0  0  0  0
   -8.4550    1.3695   -8.1256 H   0  0  0  0  0  0  0  0  0  0  0  0
   -9.9469    2.1411   -8.7737 H   0  0  0  0  0  0  0  0  0  0  0  0
   -9.9092    2.3044   -6.2989 H   0  0  0  0  0  0  0  0  0  0  0  0
   -8.2850    3.0767   -6.3350 H   0  0  0  0  0  0  0  0  0  0  0  0
  -10.0370    4.8043   -6.0376 H   0  0  0  0  0  0  0  0  0  0  0  0
  -10.9131    4.2204   -7.4979 H   0  0  0  0  0  0  0  0  0  0  0  0
   -9.6366    6.2006   -8.1062 H   0  0  0  0  0  0  0  0  0  0  0  0
   -8.1199    5.5391   -7.3890 H   0  0  0  0  0  0  0  0  0  0  0  0
   -9.6980    3.8185  -11.5700 H   0  0  0  0  0  0  0  0  0  0  0  0
   -9.6721    5.0835  -13.6678 H   0  0  0  0  0  0  0  0  0  0  0  0
  1  2  1  0
  2  3  1  0
  3  4  1  0
  4  5  1  0
  5  6  1  0
  6  7  2  0
  7  8  1  0
  1  9  2  0
  1 10  1  0
 10 11  2  0
 11 12  1  0
 12 13  2  0
 13 14  1  0
 14 15  1  0
 15 16  1  0
 16 17  1  0
 17 18  1  0
 18 19  1  0
 13 20  1  0
 20 21  2  0
  4  8  2  0
 21 10  1  0
 19 14  1  0
  2 22  1  0
  3 23  1  0
  3 24  1  0
  6 25  1  0
  7 26  1  0
  8 27  1  0
 11 28  1  0
 12 29  1  0
 15 30  1  0
 15 31  1  0
 16 32  1  0
 16 33  1  0
 17 34  1  0
 17 35  1  0
 18 36  1  0
 18 37  1  0
 19 38  1  0
 19 39  1  0
 20 40  1  0
 21 41  1  0
A    1
 C1 
A    2
 N1 
A    3
 C2 
A    4
 C3 
A    5
 O1 
A    6
 C4 
A    7
 C5 
A    8
 C6 
A    9
 O2 
A   10
 C7 
A   11
 C8 
A   12
 C9 
A   13
 C10
A   14
 N2 
A   15
 C11
A   16
 C12
A   17
 C13
A   18
 C14
A   19
 C15
A   20
 C16
A   21
 C17
A   22
 H1 
A   23
 H2 
A   24
 H3 
A   25
 H4 
A   26
 H5 
A   27
 H6 
A   28
 H7 
A   29
 H8 
A   30
 H9 
A   31
 H10
A   32
 H11
A   33
 H12
A   34
 H13
A   35
 H14
A   36
 H15
A   37
 H16
A   38
 H17
A   39
 H18
A   40
 H19
A   41
 H20
M  END
>  <ref_pdb>  (256) 
x0051_0B

>  <ref_mols>  (256) 
x0386_0B,x0404_0B

>  <original SMILES>  (256) 
[H]c1oc(C([H])([H])N([H])C(=O)c2c([H])c([H])c(N3C([H])([H])C([H])([H])C([H])([H])C([H])([H])C3([H])[H])c([H])c2[H])c([H])c1[H]

>  <index>  (256) 
263

>  <∆∆G>  (256) 
-6.399209

>  <∆G_bound>  (256) 
-6.094745

>  <∆G_unbound>  (256) 
0.304464

>  <comRMSD>  (256) 
0.738053

>  <N_constrained_atoms>  (256) 
21.0

>  <N_unconstrained_atoms>  (256) 
1.0

>  <runtime>  (256) 
45.984117

>  <LE>  (256) 
0.290873

>  <percent_hybrid>  (256) 
29.0

>  <dist>  (256) 
8.0

>  <ecfp4>  (256) 
0.223684

>  <daylight>  (256) 
0.175732

>  <topodist>  (256) 
3.0

>  <mces>  (256) 
23.0

>  <tdn>  (256) 
3.0

>  <tup>  (256) 
0.0

>  <rdn>  (256) 
0.0

>  <rup>  (256) 
0.0

>  <ldn>  (256) 
0.0

>  <lup>  (256) 
0.0

>  <mut>  (256) 
4.0

>  <maj>  (256) 
4.0

>  <min>  (256) 
0.0

>  <hyb>  (256) 
1.0

>  <sub>  (256) 
1.0

>  <query_index>  (256) 
109.0

>  <max_hit_Tanimoto>  (256) 
0.247209

>  <largest_ring>  (256) 
6

>  <N_interactions_kept>  (256) 
2.0

>  <N_interactions_lost>  (256) 
1.5

>  <interaction_uniqueness_metric>  (256) 
0.178786

>  <ad_hoc_penalty>  (256) 
-22.857686

>  <N_rotatable_bonds>  (256) 
4

>  <N_HA>  (256) 
21

>  <cluster>  (256) 
5977

>  <N_interactions>  (256) 
6

>  <Enamine>  (256) 
0

>  <Mcule>  (256) 
1

>  <N_PAINS>  (256) 
0

>  <UFF_Gibbs>  (256) 
150.98305

>  <strain_per_HA>  (256) 
6.862866

>  <saltbridge:HIS:51>  (256) 
0

>  <pistack:HIS:51>  (256) 
1

>  <hydroph_interaction:HIS:51>  (256) 
1

>  <hbond:ALA:132>  (256) 
0

>  <hbond:SER:135>  (256) 
0

>  <hydroph_interaction:TYR:150>  (256) 
1

>  <pistack:TYR:161>  (256) 
0

>  <hydroph_interaction:TYR:161>  (256) 
2

>  <hydroph_interaction:ASP:83>  (256) 
1

>  <hbond:TYR:130>  (256) 
0

>  <hydroph_interaction:ALA:132>  (256) 
0

>  <hbond:HIS:51>  (256) 
0

>  <hbond:ASP:129>  (256) 
0

>  <hbond:TYR:150>  (256) 
0

>  <hbond:GLY:151>  (256) 
0

>  <hbond:TYR:161>  (256) 
0

>  <hydroph_interaction:TYR:130>  (256) 
0

>  <hydroph_interaction:PRO:131>  (256) 
0

>  <hydroph_interaction:ASP:129>  (256) 
0

>  <saltbridge:ASP:75>  (256) 
0

>  <saltbridge:ASP:83>  (256) 
0

>  <hydroph_interaction:ASN:152>  (256) 
0

>  <halogenbond:TYR:150>  (256) 
0

>  <hbond:ASP:83>  (256) 
0

>  <hydroph_interaction:VAL:155>  (256) 
0

>  <pication:TYR:161>  (256) 
0

>  <hbond:PRO:131>  (256) 
0

>  <hbond:LEU:128>  (256) 
0

>  <saltbridge:ASP:129>  (256) 
0

>  <hbond:THR:134>  (256) 
0

>  <pication:HIS:51>  (256) 
0

>  <hbond:SER:81>  (256) 
0

>  <hbond:GLY:159>  (256) 
0

>  <hydroph_interaction:PRO:101>  (256) 
0

>  <hydroph_interaction:THR:134>  (256) 
0

>  <hbond:GLY:82>  (256) 
0

>  <hydroph_interaction:GLU:104>  (256) 
0

>  <hydroph_interaction:VAL:36>  (256) 
0

>  <hydroph_interaction:MET:49>  (256) 
0

>  <halogenbond:GLU:104>  (256) 
0

>  <hydroph_interaction:LYS:107>  (256) 
0

$$$$
Z3363955323
     RDKit          3D

 46 48  0  0  0  0  0  0  0  0999 V2000
   -4.5246    5.5334  -16.8302 C   0  0  0  0  0  0  0  0  0  0  0  0
   -5.5883    5.6814  -17.7672 O   0  0  0  0  0  0  0  0  0  0  0  0
   -6.9489    5.5271  -17.4564 C   0  0  0  0  0  0  0  0  0  0  0  0
   -7.8824    5.6878  -18.4806 C   0  0  0  0  0  0  0  0  0  0  0  0
   -9.2456    5.5636  -18.2219 C   0  0  0  0  0  0  0  0  0  0  0  0
   -9.7070    5.2692  -16.9287 C   0  0  0  0  0  0  0  0  0  0  0  0
  -11.1948    5.1805  -16.6977 C   0  0  0  0  0  0  0  0  0  0  0  0
   -8.7714    5.0548  -15.8798 C   0  0  0  0  0  0  0  0  0  0  0  0
   -9.2581    4.7672  -14.4598 C   0  0  0  0  0  0  0  0  0  0  0  0
   -8.3020    4.0136  -13.6263 N   0  0  0  0  0  0  0  0  0  0  0  0
   -7.4953    4.8810  -12.7561 C   0  0  0  0  0  0  0  0  0  0  0  0
   -8.2476    5.1836  -11.4972 C   0  0  0  0  0  0  0  0  0  0  0  0
   -8.5966    4.3134  -10.4859 C   0  0  0  0  0  0  0  0  0  0  0  0
   -8.3515    2.8360  -10.3907 C   0  0  0  0  0  0  0  0  0  0  0  0
   -8.5641    2.3445   -9.0096 N   0  0  0  0  0  0  0  0  0  0  0  0
   -7.3946    2.6097   -8.1521 C   0  0  0  0  0  0  0  0  0  0  0  0
   -9.8203    2.8668   -8.4184 C   0  0  0  0  0  0  0  0  0  0  0  0
   -9.8525    4.4091   -8.3507 C   0  0  0  0  0  0  0  0  0  0  0  0
   -9.3322    4.9817   -9.5866 N   0  0  0  0  0  0  0  0  0  0  0  0
   -9.4515    6.2505   -9.9464 N   0  0  0  0  0  0  0  0  0  0  0  0
   -8.8016    6.3979  -11.1214 C   0  0  0  0  0  0  0  0  0  0  0  0
   -7.3960    5.2206  -16.1583 C   0  0  0  0  0  0  0  0  0  0  0  0
   -3.5586    5.7038  -17.3481 H   0  0  0  0  0  0  0  0  0  0  0  0
   -4.5269    4.5056  -16.4079 H   0  0  0  0  0  0  0  0  0  0  0  0
   -4.6267    6.2822  -16.0150 H   0  0  0  0  0  0  0  0  0  0  0  0
   -7.5487    5.9223  -19.4837 H   0  0  0  0  0  0  0  0  0  0  0  0
   -9.9451    5.7090  -19.0370 H   0  0  0  0  0  0  0  0  0  0  0  0
  -11.4850    5.8160  -15.8326 H   0  0  0  0  0  0  0  0  0  0  0  0
  -11.7706    5.5365  -17.5808 H   0  0  0  0  0  0  0  0  0  0  0  0
  -11.4831    4.1248  -16.4990 H   0  0  0  0  0  0  0  0  0  0  0  0
   -9.5527    5.7261  -13.9781 H   0  0  0  0  0  0  0  0  0  0  0  0
  -10.1787    4.1497  -14.5057 H   0  0  0  0  0  0  0  0  0  0  0  0
   -7.6866    3.3998  -14.2092 H   0  0  0  0  0  0  0  0  0  0  0  0
   -6.5491    4.3621  -12.4862 H   0  0  0  0  0  0  0  0  0  0  0  0
   -7.2188    5.8314  -13.2653 H   0  0  0  0  0  0  0  0  0  0  0  0
   -9.0603    2.3174  -11.0712 H   0  0  0  0  0  0  0  0  0  0  0  0
   -7.3232    2.5975  -10.7415 H   0  0  0  0  0  0  0  0  0  0  0  0
   -7.5915    2.2727   -7.1114 H   0  0  0  0  0  0  0  0  0  0  0  0
   -6.5194    2.0348   -8.5231 H   0  0  0  0  0  0  0  0  0  0  0  0
   -7.1315    3.6900   -8.1415 H   0  0  0  0  0  0  0  0  0  0  0  0
  -10.6787    2.5183   -9.0346 H   0  0  0  0  0  0  0  0  0  0  0  0
   -9.9702    2.4460   -7.4002 H   0  0  0  0  0  0  0  0  0  0  0  0
   -9.2351    4.7623   -7.4966 H   0  0  0  0  0  0  0  0  0  0  0  0
  -10.8975    4.7520   -8.1897 H   0  0  0  0  0  0  0  0  0  0  0  0
   -8.7439    7.3266  -11.6738 H   0  0  0  0  0  0  0  0  0  0  0  0
   -6.6670    5.1085  -15.3727 H   0  0  0  0  0  0  0  0  0  0  0  0
  1  2  1  0
  2  3  1  0
  3  4  2  0
  4  5  1  0
  5  6  2  0
  6  7  1  0
  6  8  1  0
  8  9  1  0
  9 10  1  0
 10 11  1  0
 11 12  1  0
 12 13  2  0
 13 14  1  0
 14 15  1  0
 15 16  1  0
 15 17  1  0
 17 18  1  0
 18 19  1  0
 19 20  1  0
 20 21  2  0
  8 22  2  0
 22  3  1  0
 21 12  1  0
 19 13  1  0
  1 23  1  0
  1 24  1  0
  1 25  1  0
  4 26  1  0
  5 27  1  0
  7 28  1  0
  7 29  1  0
  7 30  1  0
  9 31  1  0
  9 32  1  0
 10 33  1  0
 11 34  1  0
 11 35  1  0
 14 36  1  0
 14 37  1  0
 16 38  1  0
 16 39  1  0
 16 40  1  0
 17 41  1  0
 17 42  1  0
 18 43  1  0
 18 44  1  0
 21 45  1  0
 22 46  1  0
A    1
 C1 
A    2
 O1 
A    3
 C2 
A    4
 C3 
A    5
 C4 
A    6
 C5 
A    7
 C6 
A    8
 C7 
A    9
 C8 
A   10
 N1 
A   11
 C9 
A   12
 C10
A   13
 C11
A   14
 C12
A   15
 N2 
A   16
 C13
A   17
 C14
A   18
 C15
A   19
 N3 
A   20
 N4 
A   21
 C16
A   22
 C17
A   23
 H1 
A   24
 H2 
A   25
 H3 
A   26
 H4 
A   27
 H5 
A   28
 H6 
A   29
 H7 
A   30
 H8 
A   31
 H9 
A   32
 H10
A   33
 H11
A   34
 H12
A   35
 H13
A   36
 H14
A   37
 H15
A   38
 H16
A   39
 H17
A   40
 H18
A   41
 H19
A   42
 H20
A   43
 H21
A   44
 H22
A   45
 H23
A   46
 H24
M  END
>  <ref_pdb>  (257) 
x0051_0B

>  <ref_mols>  (257) 
x0969_1B,x0553_0B

>  <original SMILES>  (257) 
[H]c1nn2c(c1C([H])([H])N([H])C([H])([H])c1c([H])c(OC([H])([H])[H])c([H])c([H])c1C([H])([H])[H])C([H])([H])N(C([H])([H])[H])C([H])([H])C2([H])[H]

>  <index>  (257) 
282

>  <∆∆G>  (257) 
-6.947227

>  <∆G_bound>  (257) 
-6.643199

>  <∆G_unbound>  (257) 
0.304028

>  <comRMSD>  (257) 
0.679861

>  <N_constrained_atoms>  (257) 
19.0

>  <N_unconstrained_atoms>  (257) 
4.0

>  <runtime>  (257) 
60.924924

>  <LE>  (257) 
0.302053

>  <percent_hybrid>  (257) 
48.0

>  <dist>  (257) 
4.0

>  <ecfp4>  (257) 
0.381579

>  <daylight>  (257) 
0.555046

>  <topodist>  (257) 
1.0

>  <mces>  (257) 
23.0

>  <tdn>  (257) 
0.0

>  <tup>  (257) 
1.0

>  <rdn>  (257) 
0.0

>  <rup>  (257) 
0.0

>  <ldn>  (257) 
0.0

>  <lup>  (257) 
0.0

>  <mut>  (257) 
3.0

>  <maj>  (257) 
3.0

>  <min>  (257) 
0.0

>  <hyb>  (257) 
0.0

>  <sub>  (257) 
1.0

>  <query_index>  (257) 
376.0

>  <max_hit_Tanimoto>  (257) 
0.590966

>  <largest_ring>  (257) 
6

>  <N_interactions_kept>  (257) 
1.5

>  <N_interactions_lost>  (257) 
1.0

>  <interaction_uniqueness_metric>  (257) 
0.353633

>  <ad_hoc_penalty>  (257) 
-22.834388

>  <N_rotatable_bonds>  (257) 
8

>  <N_HA>  (257) 
22

>  <cluster>  (257) 
5958

>  <N_interactions>  (257) 
7

>  <Enamine>  (257) 
1

>  <Mcule>  (257) 
0

>  <N_PAINS>  (257) 
0

>  <UFF_Gibbs>  (257) 
194.831207

>  <strain_per_HA>  (257) 
8.470922

>  <saltbridge:HIS:51>  (257) 
0

>  <pistack:HIS:51>  (257) 
1

>  <hydroph_interaction:HIS:51>  (257) 
0

>  <hbond:ALA:132>  (257) 
0

>  <hbond:SER:135>  (257) 
0

>  <hydroph_interaction:TYR:150>  (257) 
1

>  <pistack:TYR:161>  (257) 
1

>  <hydroph_interaction:TYR:161>  (257) 
0

>  <hydroph_interaction:ASP:83>  (257) 
0

>  <hbond:TYR:130>  (257) 
0

>  <hydroph_interaction:ALA:132>  (257) 
0

>  <hbond:HIS:51>  (257) 
0

>  <hbond:ASP:129>  (257) 
0

>  <hbond:TYR:150>  (257) 
0

>  <hbond:GLY:151>  (257) 
0

>  <hbond:TYR:161>  (257) 
2

>  <hydroph_interaction:TYR:130>  (257) 
0

>  <hydroph_interaction:PRO:131>  (257) 
0

>  <hydroph_interaction:ASP:129>  (257) 
0

>  <saltbridge:ASP:75>  (257) 
1

>  <saltbridge:ASP:83>  (257) 
1

>  <hydroph_interaction:ASN:152>  (257) 
0

>  <halogenbond:TYR:150>  (257) 
0

>  <hbond:ASP:83>  (257) 
0

>  <hydroph_interaction:VAL:155>  (257) 
0

>  <pication:TYR:161>  (257) 
0

>  <hbond:PRO:131>  (257) 
0

>  <hbond:LEU:128>  (257) 
0

>  <saltbridge:ASP:129>  (257) 
0

>  <hbond:THR:134>  (257) 
0

>  <pication:HIS:51>  (257) 
0

>  <hbond:SER:81>  (257) 
0

>  <hbond:GLY:159>  (257) 
0

>  <hydroph_interaction:PRO:101>  (257) 
0

>  <hydroph_interaction:THR:134>  (257) 
0

>  <hbond:GLY:82>  (257) 
0

>  <hydroph_interaction:GLU:104>  (257) 
0

>  <hydroph_interaction:VAL:36>  (257) 
0

>  <hydroph_interaction:MET:49>  (257) 
0

>  <halogenbond:GLU:104>  (257) 
0

>  <hydroph_interaction:LYS:107>  (257) 
0

$$$$
Z27039637
     RDKit          3D

 50 54  0  0  0  0  0  0  0  0999 V2000
   -6.3099    4.9006  -23.0858 O   0  0  0  0  0  0  0  0  0  0  0  0
   -6.2319    5.9237  -22.3526 C   0  0  0  0  0  0  0  0  0  0  0  0
   -5.6302    5.8170  -21.0549 N   0  0  0  0  0  0  0  0  0  0  0  0
   -4.8915    4.6781  -20.6866 N   0  0  0  0  0  0  0  0  0  0  0  0
   -4.3930    4.5031  -19.3534 C   0  0  0  0  0  0  0  0  0  0  0  0
   -3.3152    3.8716  -19.1848 O   0  0  0  0  0  0  0  0  0  0  0  0
   -5.1203    5.0254  -18.1746 C   0  0  0  0  0  0  0  0  0  0  0  0
   -4.4016    5.4138  -17.0110 C   0  0  0  0  0  0  0  0  0  0  0  0
   -5.0781    5.8996  -15.8764 C   0  0  0  0  0  0  0  0  0  0  0  0
   -6.4660    5.9732  -15.9367 C   0  0  0  0  0  0  0  0  0  0  0  0
   -7.3200    6.3870  -14.9931 N   0  0  0  0  0  0  0  0  0  0  0  0
   -8.5388    6.2369  -15.5652 C   0  0  0  0  0  0  0  0  0  0  0  0
   -8.4866    5.7444  -16.8310 N   0  0  0  0  0  0  0  0  0  0  0  0
   -7.1664    5.5896  -17.0379 C   0  0  0  0  0  0  0  0  0  0  0  0
   -6.5343    5.1041  -18.1791 C   0  0  0  0  0  0  0  0  0  0  0  0
   -6.7889    7.2100  -22.8353 C   0  0  0  0  0  0  0  0  0  0  0  0
   -6.3074    8.4379  -22.3467 C   0  0  0  0  0  0  0  0  0  0  0  0
   -6.8304    9.6440  -22.8208 C   0  0  0  0  0  0  0  0  0  0  0  0
   -7.8434    9.6462  -23.7897 C   0  0  0  0  0  0  0  0  0  0  0  0
   -8.3678   10.9486  -24.3304 C   0  0  0  0  0  0  0  0  0  0  0  0
   -7.1619   11.7131  -25.4708 S   0  0  0  0  0  0  0  0  0  0  0  0
   -7.3963   10.4972  -26.7654 C   0  0  0  0  0  0  0  0  0  0  0  0
   -8.3735   10.5986  -27.7038 N   0  0  0  0  0  0  0  0  0  0  0  0
   -8.2089    9.4707  -28.4184 C   0  0  0  0  0  0  0  0  0  0  0  0
   -8.9604    9.0347  -29.5077 C   0  0  0  0  0  0  0  0  0  0  0  0
   -8.6210    7.7944  -30.0823 C   0  0  0  0  0  0  0  0  0  0  0  0
   -7.5515    7.0308  -29.5585 C   0  0  0  0  0  0  0  0  0  0  0  0
   -6.8122    7.5023  -28.4564 C   0  0  0  0  0  0  0  0  0  0  0  0
   -7.1759    8.7347  -27.9178 C   0  0  0  0  0  0  0  0  0  0  0  0
   -6.6435    9.3754  -26.8707 N   0  0  0  0  0  0  0  0  0  0  0  0
   -8.3215    8.4242  -24.2858 C   0  0  0  0  0  0  0  0  0  0  0  0
   -7.7951    7.2174  -23.8174 C   0  0  0  0  0  0  0  0  0  0  0  0
   -5.7516    6.5936  -20.3679 H   0  0  0  0  0  0  0  0  0  0  0  0
   -4.5603    4.0176  -21.4268 H   0  0  0  0  0  0  0  0  0  0  0  0
   -3.3200    5.3495  -16.9859 H   0  0  0  0  0  0  0  0  0  0  0  0
   -4.5385    6.2021  -14.9879 H   0  0  0  0  0  0  0  0  0  0  0  0
   -7.1018    6.7398  -14.0347 H   0  0  0  0  0  0  0  0  0  0  0  0
   -9.4658    6.4817  -15.0634 H   0  0  0  0  0  0  0  0  0  0  0  0
   -7.1196    4.7848  -19.0324 H   0  0  0  0  0  0  0  0  0  0  0  0
   -5.5069    8.4742  -21.6204 H   0  0  0  0  0  0  0  0  0  0  0  0
   -6.4355   10.5791  -22.4426 H   0  0  0  0  0  0  0  0  0  0  0  0
   -9.3403   10.8070  -24.8493 H   0  0  0  0  0  0  0  0  0  0  0  0
   -8.5468   11.6499  -23.4880 H   0  0  0  0  0  0  0  0  0  0  0  0
   -9.7812    9.6244  -29.8938 H   0  0  0  0  0  0  0  0  0  0  0  0
   -9.1852    7.4221  -30.9281 H   0  0  0  0  0  0  0  0  0  0  0  0
   -7.2991    6.0786  -30.0067 H   0  0  0  0  0  0  0  0  0  0  0  0
   -5.9940    6.9272  -28.0416 H   0  0  0  0  0  0  0  0  0  0  0  0
   -5.8540    9.0692  -26.2588 H   0  0  0  0  0  0  0  0  0  0  0  0
   -9.0929    8.4046  -25.0460 H   0  0  0  0  0  0  0  0  0  0  0  0
   -8.1812    6.2882  -24.2184 H   0  0  0  0  0  0  0  0  0  0  0  0
  1  2  2  0
  2  3  1  0
  3  4  1  0
  4  5  1  0
  5  6  2  0
  5  7  1  0
  7  8  2  0
  8  9  1  0
  9 10  2  0
 10 11  1  0
 11 12  1  0
 12 13  2  0
 13 14  1  0
 14 15  2  0
  2 16  1  0
 16 17  2  0
 17 18  1  0
 18 19  2  0
 19 20  1  0
 20 21  1  0
 21 22  1  0
 22 23  2  0
 23 24  1  0
 24 25  2  0
 25 26  1  0
 26 27  2  0
 27 28  1  0
 28 29  2  0
 29 30  1  0
 19 31  1  0
 31 32  2  0
 15  7  1  0
 14 10  1  0
 32 16  1  0
 30 22  1  0
 29 24  1  0
  3 33  1  0
  4 34  1  0
  8 35  1  0
  9 36  1  0
 11 37  1  0
 12 38  1  0
 15 39  1  0
 17 40  1  0
 18 41  1  0
 20 42  1  0
 20 43  1  0
 25 44  1  0
 26 45  1  0
 27 46  1  0
 28 47  1  0
 30 48  1  0
 31 49  1  0
 32 50  1  0
A    1
 O1 
A    2
 C1 
A    3
 N1 
A    4
 N2 
A    5
 C2 
A    6
 O2 
A    7
 C3 
A    8
 C4 
A    9
 C5 
A   10
 C6 
A   11
 N3 
A   12
 C7 
A   13
 N4 
A   14
 C8 
A   15
 C9 
A   16
 C10
A   17
 C11
A   18
 C12
A   19
 C13
A   20
 C14
A   21
 S1 
A   22
 C15
A   23
 N5 
A   24
 C16
A   25
 C17
A   26
 C18
A   27
 C19
A   28
 C20
A   29
 C21
A   30
 N6 
A   31
 C22
A   32
 C23
A   33
 H1 
A   34
 H2 
A   35
 H3 
A   36
 H4 
A   37
 H5 
A   38
 H6 
A   39
 H7 
A   40
 H8 
A   41
 H9 
A   42
 H10
A   43
 H11
A   44
 H12
A   45
 H13
A   46
 H14
A   47
 H15
A   48
 H16
A   49
 H17
A   50
 H18
M  END
>  <ref_pdb>  (258) 
x0051_0B

>  <ref_mols>  (258) 
x0051_0B,x0846_1B

>  <original SMILES>  (258) 
[H]c1c([H])c(C([H])([H])Sc2nc3c([H])c([H])c([H])c([H])c3n2[H])c([H])c([H])c1C(=O)N([H])N([H])C(=O)c1c([H])c([H])c2c(nc([H])n2[H])c1[H]

>  <index>  (258) 
365

>  <∆∆G>  (258) 
-8.064691

>  <∆G_bound>  (258) 
-7.12783

>  <∆G_unbound>  (258) 
0.936861

>  <comRMSD>  (258) 
0.583408

>  <N_constrained_atoms>  (258) 
30.0

>  <N_unconstrained_atoms>  (258) 
3.0

>  <runtime>  (258) 
52.093193

>  <LE>  (258) 
0.244385

>  <percent_hybrid>  (258) 
40.0

>  <dist>  (258) 
10.0

>  <ecfp4>  (258) 
0.215054

>  <daylight>  (258) 
0.219231

>  <topodist>  (258) 
4.0

>  <mces>  (258) 
34.0

>  <tdn>  (258) 
2.0

>  <tup>  (258) 
2.0

>  <rdn>  (258) 
0.0

>  <rup>  (258) 
0.0

>  <ldn>  (258) 
0.0

>  <lup>  (258) 
0.0

>  <mut>  (258) 
5.0

>  <maj>  (258) 
5.0

>  <min>  (258) 
0.0

>  <hyb>  (258) 
1.0

>  <sub>  (258) 
2.0

>  <query_index>  (258) 
185.0

>  <max_hit_Tanimoto>  (258) 
0.312661

>  <largest_ring>  (258) 
6

>  <N_interactions_kept>  (258) 
1.0

>  <N_interactions_lost>  (258) 
2.5

>  <interaction_uniqueness_metric>  (258) 
0.196459

>  <ad_hoc_penalty>  (258) 
-22.789231

>  <N_rotatable_bonds>  (258) 
5

>  <N_HA>  (258) 
32

>  <cluster>  (258) 
5884

>  <N_interactions>  (258) 
7

>  <Enamine>  (258) 
1

>  <Mcule>  (258) 
0

>  <N_PAINS>  (258) 
0

>  <UFF_Gibbs>  (258) 
169.840521

>  <strain_per_HA>  (258) 
5.146682

>  <saltbridge:HIS:51>  (258) 
0

>  <pistack:HIS:51>  (258) 
0

>  <hydroph_interaction:HIS:51>  (258) 
0

>  <hbond:ALA:132>  (258) 
0

>  <hbond:SER:135>  (258) 
0

>  <hydroph_interaction:TYR:150>  (258) 
0

>  <pistack:TYR:161>  (258) 
2

>  <hydroph_interaction:TYR:161>  (258) 
1

>  <hydroph_interaction:ASP:83>  (258) 
0

>  <hbond:TYR:130>  (258) 
1

>  <hydroph_interaction:ALA:132>  (258) 
0

>  <hbond:HIS:51>  (258) 
0

>  <hbond:ASP:129>  (258) 
1

>  <hbond:TYR:150>  (258) 
0

>  <hbond:GLY:151>  (258) 
0

>  <hbond:TYR:161>  (258) 
0

>  <hydroph_interaction:TYR:130>  (258) 
1

>  <hydroph_interaction:PRO:131>  (258) 
1

>  <hydroph_interaction:ASP:129>  (258) 
0

>  <saltbridge:ASP:75>  (258) 
0

>  <saltbridge:ASP:83>  (258) 
0

>  <hydroph_interaction:ASN:152>  (258) 
0

>  <halogenbond:TYR:150>  (258) 
0

>  <hbond:ASP:83>  (258) 
0

>  <hydroph_interaction:VAL:155>  (258) 
0

>  <pication:TYR:161>  (258) 
0

>  <hbond:PRO:131>  (258) 
0

>  <hbond:LEU:128>  (258) 
0

>  <saltbridge:ASP:129>  (258) 
0

>  <hbond:THR:134>  (258) 
0

>  <pication:HIS:51>  (258) 
0

>  <hbond:SER:81>  (258) 
0

>  <hbond:GLY:159>  (258) 
0

>  <hydroph_interaction:PRO:101>  (258) 
0

>  <hydroph_interaction:THR:134>  (258) 
0

>  <hbond:GLY:82>  (258) 
0

>  <hydroph_interaction:GLU:104>  (258) 
0

>  <hydroph_interaction:VAL:36>  (258) 
0

>  <hydroph_interaction:MET:49>  (258) 
0

>  <halogenbond:GLU:104>  (258) 
0

>  <hydroph_interaction:LYS:107>  (258) 
0

$$$$
nan
     RDKit          3D

 52 54  0  0  0  0  0  0  0  0999 V2000
   -4.5410    7.7966  -19.2398 C   0  0  0  0  0  0  0  0  0  0  0  0
   -4.9368    6.5548  -20.0622 C   0  0  0  0  0  0  0  0  0  0  0  0
   -3.8200    5.4937  -20.0162 C   0  0  0  0  0  0  0  0  0  0  0  0
   -5.1597    6.9774  -21.5223 C   0  0  0  0  0  0  0  0  0  0  0  0
   -6.1755    6.0071  -19.5868 O   0  0  0  0  0  0  0  0  0  0  0  0
   -6.4255    5.5030  -18.2991 C   0  0  0  0  0  0  0  0  0  0  0  0
   -5.5092    5.4851  -17.4335 O   0  0  0  0  0  0  0  0  0  0  0  0
   -7.7840    5.0001  -17.9665 C   0  0  0  0  0  0  0  0  0  0  0  0
   -8.8276    5.2016  -18.8904 C   0  0  0  0  0  0  0  0  0  0  0  0
  -10.1206    4.7572  -18.6142 C   0  0  0  0  0  0  0  0  0  0  0  0
  -10.3931    4.1014  -17.4168 C   0  0  0  0  0  0  0  0  0  0  0  0
   -9.3742    3.8851  -16.4890 C   0  0  0  0  0  0  0  0  0  0  0  0
   -8.0601    4.3293  -16.7477 C   0  0  0  0  0  0  0  0  0  0  0  0
   -7.0149    4.1072  -15.8323 O   0  0  0  0  0  0  0  0  0  0  0  0
   -7.1510    3.5789  -14.5127 C   0  0  0  0  0  0  0  0  0  0  0  0
   -7.7397    4.6253  -13.5711 C   0  0  0  0  0  0  0  0  0  0  0  0
   -7.8060    4.0935  -12.2527 O   0  0  0  0  0  0  0  0  0  0  0  0
   -8.2901    4.8284  -11.1675 C   0  0  0  0  0  0  0  0  0  0  0  0
   -8.3768    4.3978   -9.8663 C   0  0  0  0  0  0  0  0  0  0  0  0
   -8.0590    3.0401   -9.3189 C   0  0  0  0  0  0  0  0  0  0  0  0
   -7.9631    3.0945   -7.7856 C   0  0  0  0  0  0  0  0  0  0  0  0
   -9.1277    3.8956   -7.1772 C   0  0  0  0  0  0  0  0  0  0  0  0
   -9.1246    5.3468   -7.6875 C   0  0  0  0  0  0  0  0  0  0  0  0
   -8.9260    5.3837   -9.1350 N   0  0  0  0  0  0  0  0  0  0  0  0
   -9.1566    6.4411   -9.8998 N   0  0  0  0  0  0  0  0  0  0  0  0
   -8.7822    6.1235  -11.1586 C   0  0  0  0  0  0  0  0  0  0  0  0
   -5.3824    8.5223  -19.2125 H   0  0  0  0  0  0  0  0  0  0  0  0
   -4.2800    7.5255  -18.1964 H   0  0  0  0  0  0  0  0  0  0  0  0
   -3.6557    8.2964  -19.6888 H   0  0  0  0  0  0  0  0  0  0  0  0
   -3.5608    5.2215  -18.9727 H   0  0  0  0  0  0  0  0  0  0  0  0
   -2.8974    5.8770  -20.5030 H   0  0  0  0  0  0  0  0  0  0  0  0
   -4.1448    4.5725  -20.5465 H   0  0  0  0  0  0  0  0  0  0  0  0
   -5.9728    7.7329  -21.5850 H   0  0  0  0  0  0  0  0  0  0  0  0
   -5.4576    6.1000  -22.1360 H   0  0  0  0  0  0  0  0  0  0  0  0
   -4.2348    7.4153  -21.9566 H   0  0  0  0  0  0  0  0  0  0  0  0
   -8.6486    5.7131  -19.8278 H   0  0  0  0  0  0  0  0  0  0  0  0
  -10.9138    4.9231  -19.3318 H   0  0  0  0  0  0  0  0  0  0  0  0
  -11.3973    3.7558  -17.2073 H   0  0  0  0  0  0  0  0  0  0  0  0
   -9.6233    3.3635  -15.5771 H   0  0  0  0  0  0  0  0  0  0  0  0
   -6.1393    3.3056  -14.1449 H   0  0  0  0  0  0  0  0  0  0  0  0
   -7.7609    2.6510  -14.5169 H   0  0  0  0  0  0  0  0  0  0  0  0
   -7.0904    5.5281  -13.5760 H   0  0  0  0  0  0  0  0  0  0  0  0
   -8.7587    4.9127  -13.9063 H   0  0  0  0  0  0  0  0  0  0  0  0
   -8.8675    2.3380   -9.6158 H   0  0  0  0  0  0  0  0  0  0  0  0
   -7.0981    2.6760   -9.7419 H   0  0  0  0  0  0  0  0  0  0  0  0
   -6.9990    3.5647   -7.4901 H   0  0  0  0  0  0  0  0  0  0  0  0
   -7.9751    2.0594   -7.3812 H   0  0  0  0  0  0  0  0  0  0  0  0
   -9.0415    3.8941   -6.0695 H   0  0  0  0  0  0  0  0  0  0  0  0
  -10.0904    3.4096   -7.4487 H   0  0  0  0  0  0  0  0  0  0  0  0
   -8.3012    5.9093   -7.1964 H   0  0  0  0  0  0  0  0  0  0  0  0
  -10.0888    5.8343   -7.4279 H   0  0  0  0  0  0  0  0  0  0  0  0
   -8.8630    6.7918  -12.0053 H   0  0  0  0  0  0  0  0  0  0  0  0
  1  2  1  0
  2  3  1  0
  2  4  1  0
  2  5  1  0
  5  6  1  0
  6  7  2  0
  6  8  1  0
  8  9  2  0
  9 10  1  0
 10 11  2  0
 11 12  1  0
 12 13  2  0
 13 14  1  0
 14 15  1  0
 15 16  1  0
 16 17  1  0
 17 18  1  0
 18 19  2  0
 19 20  1  0
 20 21  1  0
 21 22  1  0
 22 23  1  0
 23 24  1  0
 24 25  1  0
 25 26  2  0
 13  8  1  0
 26 18  1  0
 24 19  1  0
  1 27  1  0
  1 28  1  0
  1 29  1  0
  3 30  1  0
  3 31  1  0
  3 32  1  0
  4 33  1  0
  4 34  1  0
  4 35  1  0
  9 36  1  0
 10 37  1  0
 11 38  1  0
 12 39  1  0
 15 40  1  0
 15 41  1  0
 16 42  1  0
 16 43  1  0
 20 44  1  0
 20 45  1  0
 21 46  1  0
 21 47  1  0
 22 48  1  0
 22 49  1  0
 23 50  1  0
 23 51  1  0
 26 52  1  0
A    1
 C1 
A    2
 C2 
A    3
 C3 
A    4
 C4 
A    5
 O1 
A    6
 C5 
A    7
 O2 
A    8
 C6 
A    9
 C7 
A   10
 C8 
A   11
 C9 
A   12
 C10
A   13
 C11
A   14
 O3 
A   15
 C12
A   16
 C13
A   17
 O4 
A   18
 C14
A   19
 C15
A   20
 C16
A   21
 C17
A   22
 C18
A   23
 C19
A   24
 N1 
A   25
 N2 
A   26
 C20
A   27
 H1 
A   28
 H2 
A   29
 H3 
A   30
 H4 
A   31
 H5 
A   32
 H6 
A   33
 H7 
A   34
 H8 
A   35
 H9 
A   36
 H10
A   37
 H11
A   38
 H12
A   39
 H13
A   40
 H14
A   41
 H15
A   42
 H16
A   43
 H17
A   44
 H18
A   45
 H19
A   46
 H20
A   47
 H21
A   48
 H22
A   49
 H23
A   50
 H24
A   51
 H25
A   52
 H26
M  END
>  <ref_pdb>  (259) 
x0051_0B

>  <ref_mols>  (259) 
x0101_0B,x0969_1B,x0693_0B

>  <original SMILES>  (259) 
[H]c1nn2c(c1OC([H])([H])C([H])([H])Oc1c([H])c([H])c([H])c([H])c1C(=O)OC(C([H])([H])[H])(C([H])([H])[H])C([H])([H])[H])C([H])([H])C([H])([H])C([H])([H])C2([H])[H]

>  <index>  (259) 
22942

>  <∆∆G>  (259) 
-9.107093

>  <∆G_bound>  (259) 
-8.365711

>  <∆G_unbound>  (259) 
0.741382

>  <comRMSD>  (259) 
0.670795

>  <N_constrained_atoms>  (259) 
26.0

>  <N_unconstrained_atoms>  (259) 
2.0

>  <runtime>  (259) 
76.239591

>  <LE>  (259) 
0.325253

>  <percent_hybrid>  (259) 
50.0

>  <dist>  (259) 
nan

>  <ecfp4>  (259) 
nan

>  <daylight>  (259) 
nan

>  <topodist>  (259) 
nan

>  <mces>  (259) 
nan

>  <tdn>  (259) 
nan

>  <tup>  (259) 
nan

>  <rdn>  (259) 
nan

>  <rup>  (259) 
nan

>  <ldn>  (259) 
nan

>  <lup>  (259) 
nan

>  <mut>  (259) 
nan

>  <maj>  (259) 
nan

>  <min>  (259) 
nan

>  <hyb>  (259) 
nan

>  <sub>  (259) 
nan

>  <query_index>  (259) 
nan

>  <max_hit_Tanimoto>  (259) 
0.263158

>  <largest_ring>  (259) 
6

>  <N_interactions_kept>  (259) 
6.0

>  <N_interactions_lost>  (259) 
1.0

>  <interaction_uniqueness_metric>  (259) 
0.162451

>  <ad_hoc_penalty>  (259) 
-22.786637

>  <N_rotatable_bonds>  (259) 
6

>  <N_HA>  (259) 
26

>  <cluster>  (259) 
1400

>  <N_interactions>  (259) 
4

>  <Enamine>  (259) 
0

>  <Mcule>  (259) 
0

>  <N_PAINS>  (259) 
0

>  <UFF_Gibbs>  (259) 
118.910954

>  <strain_per_HA>  (259) 
4.24682

>  <saltbridge:HIS:51>  (259) 
0

>  <pistack:HIS:51>  (259) 
1

>  <hydroph_interaction:HIS:51>  (259) 
0

>  <hbond:ALA:132>  (259) 
0

>  <hbond:SER:135>  (259) 
0

>  <hydroph_interaction:TYR:150>  (259) 
0

>  <pistack:TYR:161>  (259) 
1

>  <hydroph_interaction:TYR:161>  (259) 
0

>  <hydroph_interaction:ASP:83>  (259) 
1

>  <hbond:TYR:130>  (259) 
0

>  <hydroph_interaction:ALA:132>  (259) 
0

>  <hbond:HIS:51>  (259) 
0

>  <hbond:ASP:129>  (259) 
0

>  <hbond:TYR:150>  (259) 
0

>  <hbond:GLY:151>  (259) 
0

>  <hbond:TYR:161>  (259) 
0

>  <hydroph_interaction:TYR:130>  (259) 
0

>  <hydroph_interaction:PRO:131>  (259) 
0

>  <hydroph_interaction:ASP:129>  (259) 
1

>  <saltbridge:ASP:75>  (259) 
0

>  <saltbridge:ASP:83>  (259) 
0

>  <hydroph_interaction:ASN:152>  (259) 
0

>  <halogenbond:TYR:150>  (259) 
0

>  <hbond:ASP:83>  (259) 
0

>  <hydroph_interaction:VAL:155>  (259) 
0

>  <pication:TYR:161>  (259) 
0

>  <hbond:PRO:131>  (259) 
0

>  <hbond:LEU:128>  (259) 
0

>  <saltbridge:ASP:129>  (259) 
0

>  <hbond:THR:134>  (259) 
0

>  <pication:HIS:51>  (259) 
0

>  <hbond:SER:81>  (259) 
0

>  <hbond:GLY:159>  (259) 
0

>  <hydroph_interaction:PRO:101>  (259) 
0

>  <hydroph_interaction:THR:134>  (259) 
0

>  <hbond:GLY:82>  (259) 
0

>  <hydroph_interaction:GLU:104>  (259) 
0

>  <hydroph_interaction:VAL:36>  (259) 
0

>  <hydroph_interaction:MET:49>  (259) 
0

>  <halogenbond:GLU:104>  (259) 
0

>  <hydroph_interaction:LYS:107>  (259) 
0

$$$$
Z2438105595
     RDKit          3D

 26 28  0  0  0  0  0  0  0  0999 V2000
   -9.9536    4.5579  -18.3060 C   0  0  0  0  0  0  0  0  0  0  0  0
   -9.3684    4.6102  -17.0173 C   0  0  0  0  0  0  0  0  0  0  0  0
   -8.0935    5.1811  -16.8337 C   0  0  0  0  0  0  0  0  0  0  0  0
   -7.4528    5.6848  -17.9649 C   0  0  0  0  0  0  0  0  0  0  0  0
   -8.0129    5.6317  -19.2031 C   0  0  0  0  0  0  0  0  0  0  0  0
   -9.2687    5.0747  -19.4242 C   0  0  0  0  0  0  0  0  0  0  0  0
   -7.1593    6.1704  -20.0931 N   0  0  0  0  0  0  0  0  0  0  0  0
   -6.0917    6.5443  -19.3883 N   0  0  0  0  0  0  0  0  0  0  0  0
   -6.2511    6.2674  -18.0974 N   0  0  0  0  0  0  0  0  0  0  0  0
   -5.2410    6.4982  -17.0685 C   0  0  0  0  0  0  0  0  0  0  0  0
   -4.4755    5.1992  -16.7780 C   0  0  0  0  0  0  0  0  0  0  0  0
   -3.4634    4.8138  -17.8452 C   0  0  0  0  0  0  0  0  0  0  0  0
   -2.3236    5.0013  -16.9461 N   0  0  0  0  0  0  0  0  0  0  0  0
   -3.2584    5.3871  -15.8876 C   0  0  0  0  0  0  0  0  0  0  0  0
  -10.9329    4.1155  -18.4339 H   0  0  0  0  0  0  0  0  0  0  0  0
   -9.9036    4.2074  -16.1673 H   0  0  0  0  0  0  0  0  0  0  0  0
   -7.6354    5.2233  -15.8544 H   0  0  0  0  0  0  0  0  0  0  0  0
   -9.7014    5.0366  -20.4154 H   0  0  0  0  0  0  0  0  0  0  0  0
   -4.5475    7.3017  -17.4026 H   0  0  0  0  0  0  0  0  0  0  0  0
   -5.7340    6.8486  -16.1364 H   0  0  0  0  0  0  0  0  0  0  0  0
   -5.1183    4.3502  -16.4565 H   0  0  0  0  0  0  0  0  0  0  0  0
   -3.5750    3.7548  -18.1731 H   0  0  0  0  0  0  0  0  0  0  0  0
   -3.4110    5.5240  -18.6997 H   0  0  0  0  0  0  0  0  0  0  0  0
   -1.9274    4.0598  -16.7120 H   0  0  0  0  0  0  0  0  0  0  0  0
   -3.0846    6.4400  -15.5729 H   0  0  0  0  0  0  0  0  0  0  0  0
   -3.2447    4.6751  -15.0306 H   0  0  0  0  0  0  0  0  0  0  0  0
  1  2  2  0
  2  3  1  0
  3  4  2  0
  4  5  1  0
  5  6  2  0
  5  7  1  0
  7  8  2  0
  8  9  1  0
  9 10  1  0
 10 11  1  0
 11 12  1  0
 12 13  1  0
 13 14  1  0
  6  1  1  0
  9  4  1  0
 14 11  1  0
  1 15  1  0
  2 16  1  0
  3 17  1  0
  6 18  1  0
 10 19  1  0
 10 20  1  0
 11 21  1  0
 12 22  1  0
 12 23  1  0
 13 24  1  0
 14 25  1  0
 14 26  1  0
A    1
 C1 
A    2
 C2 
A    3
 C3 
A    4
 C4 
A    5
 C5 
A    6
 C6 
A    7
 N1 
A    8
 N2 
A    9
 N3 
A   10
 C7 
A   11
 C8 
A   12
 C9 
A   13
 N4 
A   14
 C10
A   15
 H1 
A   16
 H2 
A   17
 H3 
A   18
 H4 
A   19
 H5 
A   20
 H6 
A   21
 H7 
A   22
 H8 
A   23
 H9 
A   24
 H10
A   25
 H11
A   26
 H12
M  END
>  <ref_pdb>  (260) 
x0051_0B

>  <ref_mols>  (260) 
x0490_0B,x0472_0B

>  <original SMILES>  (260) 
[H]c1c([H])c([H])c2c(nnn2C([H])([H])C2([H])C([H])([H])N([H])C2([H])[H])c1[H]

>  <index>  (260) 
234

>  <∆∆G>  (260) 
-5.243187

>  <∆G_bound>  (260) 
-4.848372

>  <∆G_unbound>  (260) 
0.394814

>  <comRMSD>  (260) 
0.840416

>  <N_constrained_atoms>  (260) 
16.0

>  <N_unconstrained_atoms>  (260) 
0.0

>  <runtime>  (260) 
23.399281

>  <LE>  (260) 
0.327699

>  <percent_hybrid>  (260) 
38.0

>  <dist>  (260) 
2.0

>  <ecfp4>  (260) 
0.28

>  <daylight>  (260) 
0.365217

>  <topodist>  (260) 
1.0

>  <mces>  (260) 
15.0

>  <tdn>  (260) 
0.0

>  <tup>  (260) 
0.0

>  <rdn>  (260) 
0.0

>  <rup>  (260) 
1.0

>  <ldn>  (260) 
0.0

>  <lup>  (260) 
0.0

>  <mut>  (260) 
1.0

>  <maj>  (260) 
1.0

>  <min>  (260) 
0.0

>  <hyb>  (260) 
0.0

>  <sub>  (260) 
2.0

>  <query_index>  (260) 
228.0

>  <max_hit_Tanimoto>  (260) 
0.272109

>  <largest_ring>  (260) 
6

>  <N_interactions_kept>  (260) 
3.0

>  <N_interactions_lost>  (260) 
1.0

>  <interaction_uniqueness_metric>  (260) 
0.053763

>  <ad_hoc_penalty>  (260) 
-22.754386

>  <N_rotatable_bonds>  (260) 
2

>  <N_HA>  (260) 
14

>  <cluster>  (260) 
6006

>  <N_interactions>  (260) 
5

>  <Enamine>  (260) 
1

>  <Mcule>  (260) 
0

>  <N_PAINS>  (260) 
0

>  <UFF_Gibbs>  (260) 
104.360608

>  <strain_per_HA>  (260) 
6.522538

>  <saltbridge:HIS:51>  (260) 
0

>  <pistack:HIS:51>  (260) 
0

>  <hydroph_interaction:HIS:51>  (260) 
0

>  <hbond:ALA:132>  (260) 
0

>  <hbond:SER:135>  (260) 
0

>  <hydroph_interaction:TYR:150>  (260) 
1

>  <pistack:TYR:161>  (260) 
0

>  <hydroph_interaction:TYR:161>  (260) 
3

>  <hydroph_interaction:ASP:83>  (260) 
0

>  <hbond:TYR:130>  (260) 
0

>  <hydroph_interaction:ALA:132>  (260) 
1

>  <hbond:HIS:51>  (260) 
0

>  <hbond:ASP:129>  (260) 
0

>  <hbond:TYR:150>  (260) 
0

>  <hbond:GLY:151>  (260) 
0

>  <hbond:TYR:161>  (260) 
0

>  <hydroph_interaction:TYR:130>  (260) 
0

>  <hydroph_interaction:PRO:131>  (260) 
0

>  <hydroph_interaction:ASP:129>  (260) 
0

>  <saltbridge:ASP:75>  (260) 
0

>  <saltbridge:ASP:83>  (260) 
0

>  <hydroph_interaction:ASN:152>  (260) 
0

>  <halogenbond:TYR:150>  (260) 
0

>  <hbond:ASP:83>  (260) 
0

>  <hydroph_interaction:VAL:155>  (260) 
0

>  <pication:TYR:161>  (260) 
0

>  <hbond:PRO:131>  (260) 
0

>  <hbond:LEU:128>  (260) 
0

>  <saltbridge:ASP:129>  (260) 
0

>  <hbond:THR:134>  (260) 
0

>  <pication:HIS:51>  (260) 
0

>  <hbond:SER:81>  (260) 
0

>  <hbond:GLY:159>  (260) 
0

>  <hydroph_interaction:PRO:101>  (260) 
0

>  <hydroph_interaction:THR:134>  (260) 
0

>  <hbond:GLY:82>  (260) 
0

>  <hydroph_interaction:GLU:104>  (260) 
0

>  <hydroph_interaction:VAL:36>  (260) 
0

>  <hydroph_interaction:MET:49>  (260) 
0

>  <halogenbond:GLU:104>  (260) 
0

>  <hydroph_interaction:LYS:107>  (260) 
0

$$$$
PV-006888971551
     RDKit          3D

 52 55  0  0  0  0  0  0  0  0999 V2000
   -3.8967    6.0044  -16.6497 C   0  0  0  0  0  0  0  0  0  0  0  0
   -3.7357    5.1850  -17.9053 C   0  0  0  0  0  0  0  0  0  0  0  0
   -2.5408    5.2940  -18.6362 C   0  0  0  0  0  0  0  0  0  0  0  0
   -2.3422    4.5422  -19.7538 N   0  0  0  0  0  0  0  0  0  0  0  0
   -3.2791    3.6683  -20.2042 C   0  0  0  0  0  0  0  0  0  0  0  0
   -4.4925    3.5359  -19.5255 C   0  0  0  0  0  0  0  0  0  0  0  0
   -4.7417    4.3091  -18.3796 C   0  0  0  0  0  0  0  0  0  0  0  0
   -6.0565    4.1880  -17.7185 C   0  0  0  0  0  0  0  0  0  0  0  0
   -6.4425    3.0522  -17.3282 O   0  0  0  0  0  0  0  0  0  0  0  0
   -6.8789    5.3512  -17.5203 N   0  0  0  0  0  0  0  0  0  0  0  0
   -8.2033    5.3154  -16.9664 C   0  0  0  0  0  0  0  0  0  0  0  0
   -8.6183    6.3538  -16.1151 C   0  0  0  0  0  0  0  0  0  0  0  0
   -9.9141    6.3589  -15.5745 C   0  0  0  0  0  0  0  0  0  0  0  0
  -10.3157    7.4140  -14.5834 C   0  0  0  0  0  0  0  0  0  0  0  0
  -10.0359    6.9406  -13.2321 N   0  0  0  0  0  0  0  0  0  0  0  0
   -8.7380    7.0852  -12.6383 C   0  0  0  0  0  0  0  0  0  0  0  0
   -8.0481    8.1115  -12.8813 O   0  0  0  0  0  0  0  0  0  0  0  0
   -8.2178    6.0756  -11.6995 C   0  0  0  0  0  0  0  0  0  0  0  0
   -8.4719    4.7152  -11.6573 C   0  0  0  0  0  0  0  0  0  0  0  0
   -9.3455    3.8928  -12.5635 C   0  0  0  0  0  0  0  0  0  0  0  0
   -8.9920    2.4017  -12.4483 C   0  0  0  0  0  0  0  0  0  0  0  0
   -8.8211    1.9801  -10.9797 C   0  0  0  0  0  0  0  0  0  0  0  0
   -7.6734    2.7617  -10.3186 C   0  0  0  0  0  0  0  0  0  0  0  0
   -7.7610    4.1850  -10.6420 N   0  0  0  0  0  0  0  0  0  0  0  0
   -7.0344    5.1254  -10.0588 N   0  0  0  0  0  0  0  0  0  0  0  0
   -7.2975    6.2911  -10.6867 C   0  0  0  0  0  0  0  0  0  0  0  0
  -10.7981    5.3157  -15.8895 C   0  0  0  0  0  0  0  0  0  0  0  0
  -10.3972    4.2911  -16.7493 C   0  0  0  0  0  0  0  0  0  0  0  0
   -9.1082    4.2894  -17.2907 C   0  0  0  0  0  0  0  0  0  0  0  0
   -4.5855    5.5133  -15.9281 H   0  0  0  0  0  0  0  0  0  0  0  0
   -4.2875    7.0142  -16.9080 H   0  0  0  0  0  0  0  0  0  0  0  0
   -2.9142    6.1202  -16.1372 H   0  0  0  0  0  0  0  0  0  0  0  0
   -1.7633    5.9756  -18.3161 H   0  0  0  0  0  0  0  0  0  0  0  0
   -3.0883    3.0875  -21.0984 H   0  0  0  0  0  0  0  0  0  0  0  0
   -5.2438    2.8550  -19.9064 H   0  0  0  0  0  0  0  0  0  0  0  0
   -6.4730    6.2865  -17.7452 H   0  0  0  0  0  0  0  0  0  0  0  0
   -7.9205    7.1420  -15.8538 H   0  0  0  0  0  0  0  0  0  0  0  0
   -9.7762    8.3647  -14.7829 H   0  0  0  0  0  0  0  0  0  0  0  0
  -11.4010    7.6320  -14.6790 H   0  0  0  0  0  0  0  0  0  0  0  0
  -10.7353    6.3088  -12.7814 H   0  0  0  0  0  0  0  0  0  0  0  0
   -9.2070    4.2169  -13.6168 H   0  0  0  0  0  0  0  0  0  0  0  0
  -10.4098    4.0375  -12.2769 H   0  0  0  0  0  0  0  0  0  0  0  0
   -8.0485    2.1972  -13.0041 H   0  0  0  0  0  0  0  0  0  0  0  0
   -9.8006    1.7982  -12.9164 H   0  0  0  0  0  0  0  0  0  0  0  0
   -8.6044    0.8911  -10.9271 H   0  0  0  0  0  0  0  0  0  0  0  0
   -9.7678    2.1715  -10.4283 H   0  0  0  0  0  0  0  0  0  0  0  0
   -7.7159    2.6248   -9.2163 H   0  0  0  0  0  0  0  0  0  0  0  0
   -6.6999    2.3686  -10.6853 H   0  0  0  0  0  0  0  0  0  0  0  0
   -6.8410    7.2380  -10.4251 H   0  0  0  0  0  0  0  0  0  0  0  0
  -11.7930    5.2917  -15.4605 H   0  0  0  0  0  0  0  0  0  0  0  0
  -11.0865    3.4952  -16.9964 H   0  0  0  0  0  0  0  0  0  0  0  0
   -8.8290    3.4992  -17.9719 H   0  0  0  0  0  0  0  0  0  0  0  0
  1  2  1  0
  2  3  2  0
  3  4  1  0
  4  5  2  0
  5  6  1  0
  6  7  2  0
  7  8  1  0
  8  9  2  0
  8 10  1  0
 10 11  1  0
 11 12  2  0
 12 13  1  0
 13 14  1  0
 14 15  1  0
 15 16  1  0
 16 17  2  0
 16 18  1  0
 18 19  2  0
 19 20  1  0
 20 21  1  0
 21 22  1  0
 22 23  1  0
 23 24  1  0
 24 25  1  0
 25 26  2  0
 13 27  2  0
 27 28  1  0
 28 29  2  0
  7  2  1  0
 29 11  1  0
 26 18  1  0
 24 19  1  0
  1 30  1  0
  1 31  1  0
  1 32  1  0
  3 33  1  0
  5 34  1  0
  6 35  1  0
 10 36  1  0
 12 37  1  0
 14 38  1  0
 14 39  1  0
 15 40  1  0
 20 41  1  0
 20 42  1  0
 21 43  1  0
 21 44  1  0
 22 45  1  0
 22 46  1  0
 23 47  1  0
 23 48  1  0
 26 49  1  0
 27 50  1  0
 28 51  1  0
 29 52  1  0
A    1
 C1 
A    2
 C2 
A    3
 C3 
A    4
 N1 
A    5
 C4 
A    6
 C5 
A    7
 C6 
A    8
 C7 
A    9
 O1 
A   10
 N2 
A   11
 C8 
A   12
 C9 
A   13
 C10
A   14
 C11
A   15
 N3 
A   16
 C12
A   17
 O2 
A   18
 C13
A   19
 C14
A   20
 C15
A   21
 C16
A   22
 C17
A   23
 C18
A   24
 N4 
A   25
 N5 
A   26
 C19
A   27
 C20
A   28
 C21
A   29
 C22
A   30
 H1 
A   31
 H2 
A   32
 H3 
A   33
 H4 
A   34
 H5 
A   35
 H6 
A   36
 H7 
A   37
 H8 
A   38
 H9 
A   39
 H10
A   40
 H11
A   41
 H12
A   42
 H13
A   43
 H14
A   44
 H15
A   45
 H16
A   46
 H17
A   47
 H18
A   48
 H19
A   49
 H20
A   50
 H21
A   51
 H22
A   52
 H23
M  END
>  <ref_pdb>  (261) 
x0051_0B

>  <ref_mols>  (261) 
x0852_0B,x0969_1B

>  <original SMILES>  (261) 
[H]c1nc([H])c(C([H])([H])[H])c(C(=O)N([H])c2c([H])c([H])c([H])c(C([H])([H])N([H])C(=O)c3c([H])nn4c3C([H])([H])C([H])([H])C([H])([H])C4([H])[H])c2[H])c1[H]

>  <index>  (261) 
187

>  <∆∆G>  (261) 
-8.567987

>  <∆G_bound>  (261) 
-7.633201

>  <∆G_unbound>  (261) 
0.934786

>  <comRMSD>  (261) 
0.430471

>  <N_constrained_atoms>  (261) 
28.0

>  <N_unconstrained_atoms>  (261) 
3.0

>  <runtime>  (261) 
65.533433

>  <LE>  (261) 
0.276387

>  <percent_hybrid>  (261) 
36.0

>  <dist>  (261) 
8.0

>  <ecfp4>  (261) 
0.346535

>  <daylight>  (261) 
0.384615

>  <topodist>  (261) 
3.0

>  <mces>  (261) 
31.0

>  <tdn>  (261) 
2.0

>  <tup>  (261) 
1.0

>  <rdn>  (261) 
0.0

>  <rup>  (261) 
0.0

>  <ldn>  (261) 
0.0

>  <lup>  (261) 
0.0

>  <mut>  (261) 
4.0

>  <maj>  (261) 
4.0

>  <min>  (261) 
0.0

>  <hyb>  (261) 
1.0

>  <sub>  (261) 
2.0

>  <query_index>  (261) 
46.0

>  <max_hit_Tanimoto>  (261) 
0.34193

>  <largest_ring>  (261) 
6

>  <N_interactions_kept>  (261) 
2.5

>  <N_interactions_lost>  (261) 
3.5

>  <interaction_uniqueness_metric>  (261) 
0.27981

>  <ad_hoc_penalty>  (261) 
-22.750171

>  <N_rotatable_bonds>  (261) 
6

>  <N_HA>  (261) 
29

>  <cluster>  (261) 
6049

>  <N_interactions>  (261) 
10

>  <Enamine>  (261) 
1

>  <Mcule>  (261) 
0

>  <N_PAINS>  (261) 
0

>  <UFF_Gibbs>  (261) 
309.749683

>  <strain_per_HA>  (261) 
9.991925

>  <saltbridge:HIS:51>  (261) 
0

>  <pistack:HIS:51>  (261) 
1

>  <hydroph_interaction:HIS:51>  (261) 
0

>  <hbond:ALA:132>  (261) 
0

>  <hbond:SER:135>  (261) 
0

>  <hydroph_interaction:TYR:150>  (261) 
1

>  <pistack:TYR:161>  (261) 
1

>  <hydroph_interaction:TYR:161>  (261) 
2

>  <hydroph_interaction:ASP:83>  (261) 
1

>  <hbond:TYR:130>  (261) 
1

>  <hydroph_interaction:ALA:132>  (261) 
1

>  <hbond:HIS:51>  (261) 
0

>  <hbond:ASP:129>  (261) 
0

>  <hbond:TYR:150>  (261) 
0

>  <hbond:GLY:151>  (261) 
0

>  <hbond:TYR:161>  (261) 
1

>  <hydroph_interaction:TYR:130>  (261) 
0

>  <hydroph_interaction:PRO:131>  (261) 
0

>  <hydroph_interaction:ASP:129>  (261) 
1

>  <saltbridge:ASP:75>  (261) 
0

>  <saltbridge:ASP:83>  (261) 
0

>  <hydroph_interaction:ASN:152>  (261) 
0

>  <halogenbond:TYR:150>  (261) 
0

>  <hbond:ASP:83>  (261) 
0

>  <hydroph_interaction:VAL:155>  (261) 
0

>  <pication:TYR:161>  (261) 
0

>  <hbond:PRO:131>  (261) 
0

>  <hbond:LEU:128>  (261) 
0

>  <saltbridge:ASP:129>  (261) 
0

>  <hbond:THR:134>  (261) 
0

>  <pication:HIS:51>  (261) 
0

>  <hbond:SER:81>  (261) 
0

>  <hbond:GLY:159>  (261) 
0

>  <hydroph_interaction:PRO:101>  (261) 
0

>  <hydroph_interaction:THR:134>  (261) 
0

>  <hbond:GLY:82>  (261) 
0

>  <hydroph_interaction:GLU:104>  (261) 
0

>  <hydroph_interaction:VAL:36>  (261) 
0

>  <hydroph_interaction:MET:49>  (261) 
0

>  <halogenbond:GLU:104>  (261) 
0

>  <hydroph_interaction:LYS:107>  (261) 
0

$$$$
CSSB00000717227
     RDKit          3D

 20 21  0  0  0  0  0  0  0  0999 V2000
   -9.9755    4.1359  -15.7066 N   0  0  0  0  0  0  0  0  0  0  0  0
   -9.1919    4.2655  -16.8893 C   0  0  0  0  0  0  0  0  0  0  0  0
   -7.9977    4.8892  -16.9189 N   0  0  0  0  0  0  0  0  0  0  0  0
   -7.6266    4.7745  -18.2112 C   0  0  0  0  0  0  0  0  0  0  0  0
   -8.6095    4.0886  -18.9046 C   0  0  0  0  0  0  0  0  0  0  0  0
   -9.5607    3.7903  -18.0552 O   0  0  0  0  0  0  0  0  0  0  0  0
   -6.3561    5.3151  -18.7541 C   0  0  0  0  0  0  0  0  0  0  0  0
   -5.4618    5.9921  -17.9033 C   0  0  0  0  0  0  0  0  0  0  0  0
   -4.2607    6.5070  -18.4005 C   0  0  0  0  0  0  0  0  0  0  0  0
   -3.9376    6.3532  -19.7500 C   0  0  0  0  0  0  0  0  0  0  0  0
   -4.8152    5.6840  -20.6052 C   0  0  0  0  0  0  0  0  0  0  0  0
   -6.0181    5.1667  -20.1138 C   0  0  0  0  0  0  0  0  0  0  0  0
  -10.8950    3.6427  -15.7378 H   0  0  0  0  0  0  0  0  0  0  0  0
   -9.6358    4.5327  -14.8027 H   0  0  0  0  0  0  0  0  0  0  0  0
   -8.6251    3.8281  -19.9535 H   0  0  0  0  0  0  0  0  0  0  0  0
   -5.6896    6.1243  -16.8530 H   0  0  0  0  0  0  0  0  0  0  0  0
   -3.5798    7.0260  -17.7382 H   0  0  0  0  0  0  0  0  0  0  0  0
   -3.0074    6.7525  -20.1330 H   0  0  0  0  0  0  0  0  0  0  0  0
   -4.5635    5.5654  -21.6512 H   0  0  0  0  0  0  0  0  0  0  0  0
   -6.6755    4.6540  -20.8018 H   0  0  0  0  0  0  0  0  0  0  0  0
  1  2  1  0
  2  3  2  0
  3  4  1  0
  4  5  2  0
  5  6  1  0
  4  7  1  0
  7  8  2  0
  8  9  1  0
  9 10  2  0
 10 11  1  0
 11 12  2  0
  6  2  1  0
 12  7  1  0
  1 13  1  0
  1 14  1  0
  5 15  1  0
  8 16  1  0
  9 17  1  0
 10 18  1  0
 11 19  1  0
 12 20  1  0
A    1
 N1 
A    2
 C1 
A    3
 N2 
A    4
 C2 
A    5
 C3 
A    6
 O1 
A    7
 C4 
A    8
 C5 
A    9
 C6 
A   10
 C7 
A   11
 C8 
A   12
 C9 
A   13
 H1 
A   14
 H2 
A   15
 H3 
A   16
 H4 
A   17
 H5 
A   18
 H6 
A   19
 H7 
A   20
 H8 
M  END
>  <ref_pdb>  (262) 
x0051_0B

>  <ref_mols>  (262) 
x0680_0B,x0386_0B

>  <original SMILES>  (262) 
[H]c1oc(N([H])[H])nc1-c1c([H])c([H])c([H])c([H])c1[H]

>  <index>  (262) 
269

>  <∆∆G>  (262) 
-5.180398

>  <∆G_bound>  (262) 
-5.105114

>  <∆G_unbound>  (262) 
0.075284

>  <comRMSD>  (262) 
0.704614

>  <N_constrained_atoms>  (262) 
13.0

>  <N_unconstrained_atoms>  (262) 
0.0

>  <runtime>  (262) 
29.464552

>  <LE>  (262) 
0.398492

>  <percent_hybrid>  (262) 
25.0

>  <dist>  (262) 
3.0

>  <ecfp4>  (262) 
0.183673

>  <daylight>  (262) 
0.471074

>  <topodist>  (262) 
2.0

>  <mces>  (262) 
12.0

>  <tdn>  (262) 
1.0

>  <tup>  (262) 
1.0

>  <rdn>  (262) 
0.0

>  <rup>  (262) 
0.0

>  <ldn>  (262) 
0.0

>  <lup>  (262) 
0.0

>  <mut>  (262) 
1.0

>  <maj>  (262) 
1.0

>  <min>  (262) 
0.0

>  <hyb>  (262) 
0.0

>  <sub>  (262) 
2.0

>  <query_index>  (262) 
296.0

>  <max_hit_Tanimoto>  (262) 
0.119481

>  <largest_ring>  (262) 
6

>  <N_interactions_kept>  (262) 
3.5

>  <N_interactions_lost>  (262) 
0.5

>  <interaction_uniqueness_metric>  (262) 
0.064157

>  <ad_hoc_penalty>  (262) 
-22.687947

>  <N_rotatable_bonds>  (262) 
2

>  <N_HA>  (262) 
12

>  <cluster>  (262) 
5971

>  <N_interactions>  (262) 
4

>  <Enamine>  (262) 
1

>  <Mcule>  (262) 
0

>  <N_PAINS>  (262) 
0

>  <UFF_Gibbs>  (262) 
76.126306

>  <strain_per_HA>  (262) 
5.85587

>  <saltbridge:HIS:51>  (262) 
0

>  <pistack:HIS:51>  (262) 
0

>  <hydroph_interaction:HIS:51>  (262) 
0

>  <hbond:ALA:132>  (262) 
0

>  <hbond:SER:135>  (262) 
1

>  <hydroph_interaction:TYR:150>  (262) 
0

>  <pistack:TYR:161>  (262) 
0

>  <hydroph_interaction:TYR:161>  (262) 
3

>  <hydroph_interaction:ASP:83>  (262) 
0

>  <hbond:TYR:130>  (262) 
0

>  <hydroph_interaction:ALA:132>  (262) 
0

>  <hbond:HIS:51>  (262) 
0

>  <hbond:ASP:129>  (262) 
0

>  <hbond:TYR:150>  (262) 
0

>  <hbond:GLY:151>  (262) 
0

>  <hbond:TYR:161>  (262) 
0

>  <hydroph_interaction:TYR:130>  (262) 
0

>  <hydroph_interaction:PRO:131>  (262) 
0

>  <hydroph_interaction:ASP:129>  (262) 
0

>  <saltbridge:ASP:75>  (262) 
0

>  <saltbridge:ASP:83>  (262) 
0

>  <hydroph_interaction:ASN:152>  (262) 
0

>  <halogenbond:TYR:150>  (262) 
0

>  <hbond:ASP:83>  (262) 
0

>  <hydroph_interaction:VAL:155>  (262) 
0

>  <pication:TYR:161>  (262) 
0

>  <hbond:PRO:131>  (262) 
0

>  <hbond:LEU:128>  (262) 
0

>  <saltbridge:ASP:129>  (262) 
0

>  <hbond:THR:134>  (262) 
0

>  <pication:HIS:51>  (262) 
0

>  <hbond:SER:81>  (262) 
0

>  <hbond:GLY:159>  (262) 
0

>  <hydroph_interaction:PRO:101>  (262) 
0

>  <hydroph_interaction:THR:134>  (262) 
0

>  <hbond:GLY:82>  (262) 
0

>  <hydroph_interaction:GLU:104>  (262) 
0

>  <hydroph_interaction:VAL:36>  (262) 
0

>  <hydroph_interaction:MET:49>  (262) 
0

>  <halogenbond:GLU:104>  (262) 
0

>  <hydroph_interaction:LYS:107>  (262) 
0

$$$$
WTJMAXUZDKRMOS-UHFFFAOYSA-N
     RDKit          3D

 42 44  0  0  0  0  0  0  0  0999 V2000
   -7.8268    5.2910  -12.7403 C   0  0  0  0  0  0  0  0  0  0  0  0
   -8.0304    4.0123  -13.3596 N   0  0  0  0  0  0  0  0  0  0  0  0
   -7.3137    3.6045  -14.5670 C   0  0  0  0  0  0  0  0  0  0  0  0
   -7.8234    4.3669  -15.7719 C   0  0  0  0  0  0  0  0  0  0  0  0
   -6.9783    5.1548  -16.5965 C   0  0  0  0  0  0  0  0  0  0  0  0
   -5.4987    5.2736  -16.3391 C   0  0  0  0  0  0  0  0  0  0  0  0
   -7.5333    5.8446  -17.6882 C   0  0  0  0  0  0  0  0  0  0  0  0
   -8.8952    5.7489  -17.9754 C   0  0  0  0  0  0  0  0  0  0  0  0
   -9.7284    4.9473  -17.1879 C   0  0  0  0  0  0  0  0  0  0  0  0
  -11.1985    4.8716  -17.4778 C   0  0  0  0  0  0  0  0  0  0  0  0
   -9.1916    4.2708  -16.0849 C   0  0  0  0  0  0  0  0  0  0  0  0
   -7.1464    6.1721  -13.3319 O   0  0  0  0  0  0  0  0  0  0  0  0
   -8.4298    5.6170  -11.4333 C   0  0  0  0  0  0  0  0  0  0  0  0
   -8.7865    4.7800  -10.3869 C   0  0  0  0  0  0  0  0  0  0  0  0
   -9.2756    5.5385   -9.3871 N   0  0  0  0  0  0  0  0  0  0  0  0
   -9.6619    5.0531   -8.0626 C   0  0  0  0  0  0  0  0  0  0  0  0
   -9.8841    3.5327   -8.0789 C   0  0  0  0  0  0  0  0  0  0  0  0
   -8.7482    2.8254   -8.8335 C   0  0  0  0  0  0  0  0  0  0  0  0
   -8.6873    3.2831  -10.2983 C   0  0  0  0  0  0  0  0  0  0  0  0
   -9.2119    6.8181   -9.7165 N   0  0  0  0  0  0  0  0  0  0  0  0
   -8.7023    6.8923  -10.9629 C   0  0  0  0  0  0  0  0  0  0  0  0
   -8.7575    3.3656  -12.9851 H   0  0  0  0  0  0  0  0  0  0  0  0
   -7.4870    2.5209  -14.7438 H   0  0  0  0  0  0  0  0  0  0  0  0
   -6.2254    3.7249  -14.3972 H   0  0  0  0  0  0  0  0  0  0  0  0
   -4.9990    5.9138  -17.0970 H   0  0  0  0  0  0  0  0  0  0  0  0
   -5.3219    5.7283  -15.3424 H   0  0  0  0  0  0  0  0  0  0  0  0
   -5.0273    4.2693  -16.3815 H   0  0  0  0  0  0  0  0  0  0  0  0
   -6.9103    6.4617  -18.3239 H   0  0  0  0  0  0  0  0  0  0  0  0
   -9.2989    6.2977  -18.8175 H   0  0  0  0  0  0  0  0  0  0  0  0
  -11.3933    5.0124  -18.5623 H   0  0  0  0  0  0  0  0  0  0  0  0
  -11.7279    5.6641  -16.9089 H   0  0  0  0  0  0  0  0  0  0  0  0
  -11.6048    3.8807  -17.1827 H   0  0  0  0  0  0  0  0  0  0  0  0
   -9.8428    3.6673  -15.4629 H   0  0  0  0  0  0  0  0  0  0  0  0
  -10.5937    5.5615   -7.7344 H   0  0  0  0  0  0  0  0  0  0  0  0
   -8.8542    5.2990   -7.3398 H   0  0  0  0  0  0  0  0  0  0  0  0
  -10.8544    3.3044   -8.5720 H   0  0  0  0  0  0  0  0  0  0  0  0
   -9.9302    3.1550   -7.0348 H   0  0  0  0  0  0  0  0  0  0  0  0
   -7.7789    3.0454   -8.3339 H   0  0  0  0  0  0  0  0  0  0  0  0
   -8.9087    1.7263   -8.7989 H   0  0  0  0  0  0  0  0  0  0  0  0
   -9.5398    2.8340  -10.8508 H   0  0  0  0  0  0  0  0  0  0  0  0
   -7.7344    2.9354  -10.7513 H   0  0  0  0  0  0  0  0  0  0  0  0
   -8.5346    7.8198  -11.4942 H   0  0  0  0  0  0  0  0  0  0  0  0
  1  2  1  0
  2  3  1  0
  3  4  1  0
  4  5  2  0
  5  6  1  0
  5  7  1  0
  7  8  2  0
  8  9  1  0
  9 10  1  0
  9 11  2  0
  1 12  2  0
  1 13  1  0
 13 14  2  0
 14 15  1  0
 15 16  1  0
 16 17  1  0
 17 18  1  0
 18 19  1  0
 15 20  1  0
 20 21  2  0
  4 11  1  0
 21 13  1  0
 19 14  1  0
  2 22  1  0
  3 23  1  0
  3 24  1  0
  6 25  1  0
  6 26  1  0
  6 27  1  0
  7 28  1  0
  8 29  1  0
 10 30  1  0
 10 31  1  0
 10 32  1  0
 11 33  1  0
 16 34  1  0
 16 35  1  0
 17 36  1  0
 17 37  1  0
 18 38  1  0
 18 39  1  0
 19 40  1  0
 19 41  1  0
 21 42  1  0
A    1
 C1 
A    2
 N1 
A    3
 C2 
A    4
 C3 
A    5
 C4 
A    6
 C5 
A    7
 C6 
A    8
 C7 
A    9
 C8 
A   10
 C9 
A   11
 C10
A   12
 O1 
A   13
 C11
A   14
 C12
A   15
 N2 
A   16
 C13
A   17
 C14
A   18
 C15
A   19
 C16
A   20
 N3 
A   21
 C17
A   22
 H1 
A   23
 H2 
A   24
 H3 
A   25
 H4 
A   26
 H5 
A   27
 H6 
A   28
 H7 
A   29
 H8 
A   30
 H9 
A   31
 H10
A   32
 H11
A   33
 H12
A   34
 H13
A   35
 H14
A   36
 H15
A   37
 H16
A   38
 H17
A   39
 H18
A   40
 H19
A   41
 H20
A   42
 H21
M  END
>  <ref_pdb>  (263) 
x0051_0B

>  <ref_mols>  (263) 
x0553_0B,x0969_1B

>  <original SMILES>  (263) 
[H]c1nn2c(c1C(=O)N([H])C([H])([H])c1c([H])c(C([H])([H])[H])c([H])c([H])c1C([H])([H])[H])C([H])([H])C([H])([H])C([H])([H])C2([H])[H]

>  <index>  (263) 
330

>  <∆∆G>  (263) 
-7.656341

>  <∆G_bound>  (263) 
-7.42879

>  <∆G_unbound>  (263) 
0.227551

>  <comRMSD>  (263) 
0.468768

>  <N_constrained_atoms>  (263) 
19.0

>  <N_unconstrained_atoms>  (263) 
3.0

>  <runtime>  (263) 
56.96161

>  <LE>  (263) 
0.348015

>  <percent_hybrid>  (263) 
48.0

>  <dist>  (263) 
7.0

>  <ecfp4>  (263) 
0.291139

>  <daylight>  (263) 
0.314286

>  <topodist>  (263) 
2.0

>  <mces>  (263) 
22.0

>  <tdn>  (263) 
1.0

>  <tup>  (263) 
1.0

>  <rdn>  (263) 
0.0

>  <rup>  (263) 
0.0

>  <ldn>  (263) 
0.0

>  <lup>  (263) 
0.0

>  <mut>  (263) 
3.0

>  <maj>  (263) 
3.0

>  <min>  (263) 
0.0

>  <hyb>  (263) 
2.0

>  <sub>  (263) 
0.0

>  <query_index>  (263) 
375.0

>  <max_hit_Tanimoto>  (263) 
0.344756

>  <largest_ring>  (263) 
6

>  <N_interactions_kept>  (263) 
1.5

>  <N_interactions_lost>  (263) 
1.0

>  <interaction_uniqueness_metric>  (263) 
0.103838

>  <ad_hoc_penalty>  (263) 
-22.612395

>  <N_rotatable_bonds>  (263) 
5

>  <N_HA>  (263) 
21

>  <cluster>  (263) 
5918

>  <N_interactions>  (263) 
5

>  <Enamine>  (263) 
0

>  <Mcule>  (263) 
1

>  <N_PAINS>  (263) 
0

>  <UFF_Gibbs>  (263) 
111.719146

>  <strain_per_HA>  (263) 
5.078143

>  <saltbridge:HIS:51>  (263) 
0

>  <pistack:HIS:51>  (263) 
1

>  <hydroph_interaction:HIS:51>  (263) 
0

>  <hbond:ALA:132>  (263) 
0

>  <hbond:SER:135>  (263) 
0

>  <hydroph_interaction:TYR:150>  (263) 
1

>  <pistack:TYR:161>  (263) 
1

>  <hydroph_interaction:TYR:161>  (263) 
1

>  <hydroph_interaction:ASP:83>  (263) 
0

>  <hbond:TYR:130>  (263) 
0

>  <hydroph_interaction:ALA:132>  (263) 
0

>  <hbond:HIS:51>  (263) 
0

>  <hbond:ASP:129>  (263) 
0

>  <hbond:TYR:150>  (263) 
0

>  <hbond:GLY:151>  (263) 
1

>  <hbond:TYR:161>  (263) 
0

>  <hydroph_interaction:TYR:130>  (263) 
0

>  <hydroph_interaction:PRO:131>  (263) 
0

>  <hydroph_interaction:ASP:129>  (263) 
0

>  <saltbridge:ASP:75>  (263) 
0

>  <saltbridge:ASP:83>  (263) 
0

>  <hydroph_interaction:ASN:152>  (263) 
0

>  <halogenbond:TYR:150>  (263) 
0

>  <hbond:ASP:83>  (263) 
0

>  <hydroph_interaction:VAL:155>  (263) 
0

>  <pication:TYR:161>  (263) 
0

>  <hbond:PRO:131>  (263) 
0

>  <hbond:LEU:128>  (263) 
0

>  <saltbridge:ASP:129>  (263) 
0

>  <hbond:THR:134>  (263) 
0

>  <pication:HIS:51>  (263) 
0

>  <hbond:SER:81>  (263) 
0

>  <hbond:GLY:159>  (263) 
0

>  <hydroph_interaction:PRO:101>  (263) 
0

>  <hydroph_interaction:THR:134>  (263) 
0

>  <hbond:GLY:82>  (263) 
0

>  <hydroph_interaction:GLU:104>  (263) 
0

>  <hydroph_interaction:VAL:36>  (263) 
0

>  <hydroph_interaction:MET:49>  (263) 
0

>  <halogenbond:GLU:104>  (263) 
0

>  <hydroph_interaction:LYS:107>  (263) 
0

$$$$
CSSS00000693921
     RDKit          3D

 42 45  0  0  0  0  0  0  0  0999 V2000
   -1.6860    6.2450  -13.0194 C   0  0  0  0  0  0  0  0  0  0  0  0
   -2.9843    6.2298  -13.7102 N   0  0  0  0  0  0  0  0  0  0  0  0
   -2.9354    7.1138  -14.8912 C   0  0  0  0  0  0  0  0  0  0  0  0
   -4.3048    7.1606  -15.5715 C   0  0  0  0  0  0  0  0  0  0  0  0
   -4.7657    5.7980  -15.8589 N   0  0  0  0  0  0  0  0  0  0  0  0
   -4.7031    4.8143  -14.7736 C   0  0  0  0  0  0  0  0  0  0  0  0
   -3.3209    4.8514  -14.1171 C   0  0  0  0  0  0  0  0  0  0  0  0
   -5.6206    5.5612  -16.9920 C   0  0  0  0  0  0  0  0  0  0  0  0
   -6.7630    4.9693  -16.7901 N   0  0  0  0  0  0  0  0  0  0  0  0
   -7.8113    4.5880  -17.6970 C   0  0  0  0  0  0  0  0  0  0  0  0
   -8.6385    3.5309  -17.2880 C   0  0  0  0  0  0  0  0  0  0  0  0
   -9.7516    3.1556  -18.0408 C   0  0  0  0  0  0  0  0  0  0  0  0
  -10.0701    3.8502  -19.2047 C   0  0  0  0  0  0  0  0  0  0  0  0
   -9.2730    4.9173  -19.6189 C   0  0  0  0  0  0  0  0  0  0  0  0
   -8.1358    5.2957  -18.8832 C   0  0  0  0  0  0  0  0  0  0  0  0
   -7.3578    6.3966  -19.3649 N   0  0  0  0  0  0  0  0  0  0  0  0
   -5.9366    6.3446  -19.3796 C   0  0  0  0  0  0  0  0  0  0  0  0
   -5.1301    5.9212  -18.3373 C   0  0  0  0  0  0  0  0  0  0  0  0
   -3.7624    6.0146  -18.6494 C   0  0  0  0  0  0  0  0  0  0  0  0
   -3.5197    6.5023  -19.9278 C   0  0  0  0  0  0  0  0  0  0  0  0
   -2.1755    6.8013  -20.5010 C   0  0  0  0  0  0  0  0  0  0  0  0
   -4.9864    6.8627  -20.6664 S   0  0  0  0  0  0  0  0  0  0  0  0
   -0.8705    5.8769  -13.6816 H   0  0  0  0  0  0  0  0  0  0  0  0
   -1.4429    7.2765  -12.6848 H   0  0  0  0  0  0  0  0  0  0  0  0
   -1.7297    5.6077  -12.1102 H   0  0  0  0  0  0  0  0  0  0  0  0
   -2.1714    6.7603  -15.6215 H   0  0  0  0  0  0  0  0  0  0  0  0
   -2.6672    8.1482  -14.5819 H   0  0  0  0  0  0  0  0  0  0  0  0
   -4.2281    7.7640  -16.5013 H   0  0  0  0  0  0  0  0  0  0  0  0
   -5.0366    7.6583  -14.8988 H   0  0  0  0  0  0  0  0  0  0  0  0
   -4.8850    3.7899  -15.1671 H   0  0  0  0  0  0  0  0  0  0  0  0
   -5.4844    5.0483  -14.0181 H   0  0  0  0  0  0  0  0  0  0  0  0
   -3.3428    4.1857  -13.2260 H   0  0  0  0  0  0  0  0  0  0  0  0
   -2.5633    4.4522  -14.8306 H   0  0  0  0  0  0  0  0  0  0  0  0
   -8.4197    2.9983  -16.3705 H   0  0  0  0  0  0  0  0  0  0  0  0
  -10.3748    2.3334  -17.7134 H   0  0  0  0  0  0  0  0  0  0  0  0
  -10.9380    3.5650  -19.7851 H   0  0  0  0  0  0  0  0  0  0  0  0
   -9.5362    5.4472  -20.5259 H   0  0  0  0  0  0  0  0  0  0  0  0
   -7.8057    7.0527  -20.0443 H   0  0  0  0  0  0  0  0  0  0  0  0
   -2.9707    5.7601  -17.9562 H   0  0  0  0  0  0  0  0  0  0  0  0
   -1.8601    7.8192  -20.1915 H   0  0  0  0  0  0  0  0  0  0  0  0
   -1.4326    6.0608  -20.1371 H   0  0  0  0  0  0  0  0  0  0  0  0
   -2.2166    6.7521  -21.6091 H   0  0  0  0  0  0  0  0  0  0  0  0
  1  2  1  0
  2  3  1  0
  3  4  1  0
  4  5  1  0
  5  6  1  0
  6  7  1  0
  5  8  1  0
  8  9  2  0
  9 10  1  0
 10 11  2  0
 11 12  1  0
 12 13  2  0
 13 14  1  0
 14 15  2  0
 15 16  1  0
 16 17  1  0
 17 18  2  0
 18 19  1  0
 19 20  2  0
 20 21  1  0
 20 22  1  0
  7  2  1  0
 18  8  1  0
 15 10  1  0
 22 17  1  0
  1 23  1  0
  1 24  1  0
  1 25  1  0
  3 26  1  0
  3 27  1  0
  4 28  1  0
  4 29  1  0
  6 30  1  0
  6 31  1  0
  7 32  1  0
  7 33  1  0
 11 34  1  0
 12 35  1  0
 13 36  1  0
 14 37  1  0
 16 38  1  0
 19 39  1  0
 21 40  1  0
 21 41  1  0
 21 42  1  0
A    1
 C1 
A    2
 N1 
A    3
 C2 
A    4
 C3 
A    5
 N2 
A    6
 C4 
A    7
 C5 
A    8
 C6 
A    9
 N3 
A   10
 C7 
A   11
 C8 
A   12
 C9 
A   13
 C10
A   14
 C11
A   15
 C12
A   16
 N4 
A   17
 C13
A   18
 C14
A   19
 C15
A   20
 C16
A   21
 C17
A   22
 S1 
A   23
 H1 
A   24
 H2 
A   25
 H3 
A   26
 H4 
A   27
 H5 
A   28
 H6 
A   29
 H7 
A   30
 H8 
A   31
 H9 
A   32
 H10
A   33
 H11
A   34
 H12
A   35
 H13
A   36
 H14
A   37
 H15
A   38
 H16
A   39
 H17
A   40
 H18
A   41
 H19
A   42
 H20
M  END
>  <ref_pdb>  (264) 
x0051_0B

>  <ref_mols>  (264) 
x0429_0B,x0089_0B

>  <original SMILES>  (264) 
[H]c1c([H])c([H])c2c(c1[H])N=C(N1C([H])([H])C([H])([H])N(C([H])([H])[H])C([H])([H])C1([H])[H])c1c(sc(C([H])([H])[H])c1[H])N2[H]

>  <index>  (264) 
399

>  <∆∆G>  (264) 
-8.030606

>  <∆G_bound>  (264) 
-7.566177

>  <∆G_unbound>  (264) 
0.464429

>  <comRMSD>  (264) 
0.794848

>  <N_constrained_atoms>  (264) 
19.0

>  <N_unconstrained_atoms>  (264) 
4.0

>  <runtime>  (264) 
29.584267

>  <LE>  (264) 
0.349157

>  <percent_hybrid>  (264) 
34.0

>  <dist>  (264) 
7.0

>  <ecfp4>  (264) 
0.148649

>  <daylight>  (264) 
0.142857

>  <topodist>  (264) 
3.0

>  <mces>  (264) 
22.0

>  <tdn>  (264) 
0.0

>  <tup>  (264) 
1.0

>  <rdn>  (264) 
0.0

>  <rup>  (264) 
1.0

>  <ldn>  (264) 
0.0

>  <lup>  (264) 
1.0

>  <mut>  (264) 
2.0

>  <maj>  (264) 
2.0

>  <min>  (264) 
0.0

>  <hyb>  (264) 
2.0

>  <sub>  (264) 
2.0

>  <query_index>  (264) 
103.0

>  <max_hit_Tanimoto>  (264) 
0.200481

>  <largest_ring>  (264) 
7

>  <N_interactions_kept>  (264) 
2.0

>  <N_interactions_lost>  (264) 
1.5

>  <interaction_uniqueness_metric>  (264) 
0.031789

>  <ad_hoc_penalty>  (264) 
-22.590001

>  <N_rotatable_bonds>  (264) 
2

>  <N_HA>  (264) 
22

>  <cluster>  (264) 
5855

>  <N_interactions>  (264) 
4

>  <Enamine>  (264) 
1

>  <Mcule>  (264) 
0

>  <N_PAINS>  (264) 
0

>  <UFF_Gibbs>  (264) 
72.17566

>  <strain_per_HA>  (264) 
3.138072

>  <saltbridge:HIS:51>  (264) 
0

>  <pistack:HIS:51>  (264) 
0

>  <hydroph_interaction:HIS:51>  (264) 
0

>  <hbond:ALA:132>  (264) 
0

>  <hbond:SER:135>  (264) 
0

>  <hydroph_interaction:TYR:150>  (264) 
1

>  <pistack:TYR:161>  (264) 
0

>  <hydroph_interaction:TYR:161>  (264) 
3

>  <hydroph_interaction:ASP:83>  (264) 
0

>  <hbond:TYR:130>  (264) 
0

>  <hydroph_interaction:ALA:132>  (264) 
0

>  <hbond:HIS:51>  (264) 
0

>  <hbond:ASP:129>  (264) 
0

>  <hbond:TYR:150>  (264) 
0

>  <hbond:GLY:151>  (264) 
0

>  <hbond:TYR:161>  (264) 
0

>  <hydroph_interaction:TYR:130>  (264) 
0

>  <hydroph_interaction:PRO:131>  (264) 
0

>  <hydroph_interaction:ASP:129>  (264) 
0

>  <saltbridge:ASP:75>  (264) 
0

>  <saltbridge:ASP:83>  (264) 
0

>  <hydroph_interaction:ASN:152>  (264) 
0

>  <halogenbond:TYR:150>  (264) 
0

>  <hbond:ASP:83>  (264) 
0

>  <hydroph_interaction:VAL:155>  (264) 
0

>  <pication:TYR:161>  (264) 
0

>  <hbond:PRO:131>  (264) 
0

>  <hbond:LEU:128>  (264) 
0

>  <saltbridge:ASP:129>  (264) 
0

>  <hbond:THR:134>  (264) 
0

>  <pication:HIS:51>  (264) 
0

>  <hbond:SER:81>  (264) 
0

>  <hbond:GLY:159>  (264) 
0

>  <hydroph_interaction:PRO:101>  (264) 
0

>  <hydroph_interaction:THR:134>  (264) 
0

>  <hbond:GLY:82>  (264) 
0

>  <hydroph_interaction:GLU:104>  (264) 
0

>  <hydroph_interaction:VAL:36>  (264) 
0

>  <hydroph_interaction:MET:49>  (264) 
0

>  <halogenbond:GLU:104>  (264) 
0

>  <hydroph_interaction:LYS:107>  (264) 
0

$$$$
CSSS00025781953
     RDKit          3D

 24 26  0  0  0  0  0  0  0  0999 V2000
   -4.2368    5.7495  -15.5464 O   0  0  0  0  0  0  0  0  0  0  0  0
   -5.4106    5.3883  -15.8312 C   0  0  0  0  0  0  0  0  0  0  0  0
   -6.3165    4.8775  -14.7505 C   0  0  0  0  0  0  0  0  0  0  0  0
   -7.7691    5.2908  -15.0127 C   0  0  0  0  0  0  0  0  0  0  0  0
   -8.1854    5.0329  -16.4437 C   0  0  0  0  0  0  0  0  0  0  0  0
   -9.5379    4.8044  -16.7398 C   0  0  0  0  0  0  0  0  0  0  0  0
   -9.9622    4.6785  -18.0641 C   0  0  0  0  0  0  0  0  0  0  0  0
   -9.0491    4.8062  -19.1123 C   0  0  0  0  0  0  0  0  0  0  0  0
   -7.6953    5.0528  -18.8426 C   0  0  0  0  0  0  0  0  0  0  0  0
   -6.7785    5.2083  -19.8924 C   0  0  0  0  0  0  0  0  0  0  0  0
   -5.4334    5.4627  -19.6185 C   0  0  0  0  0  0  0  0  0  0  0  0
   -4.9857    5.5467  -18.2984 C   0  0  0  0  0  0  0  0  0  0  0  0
   -5.8843    5.3801  -17.2317 C   0  0  0  0  0  0  0  0  0  0  0  0
   -7.2521    5.1542  -17.5001 C   0  0  0  0  0  0  0  0  0  0  0  0
   -5.9948    5.2719  -13.7622 H   0  0  0  0  0  0  0  0  0  0  0  0
   -6.2466    3.7687  -14.7233 H   0  0  0  0  0  0  0  0  0  0  0  0
   -8.4287    4.7351  -14.3109 H   0  0  0  0  0  0  0  0  0  0  0  0
   -7.8837    6.3765  -14.8037 H   0  0  0  0  0  0  0  0  0  0  0  0
  -10.2683    4.7354  -15.9431 H   0  0  0  0  0  0  0  0  0  0  0  0
  -11.0075    4.4984  -18.2797 H   0  0  0  0  0  0  0  0  0  0  0  0
   -9.4023    4.7202  -20.1331 H   0  0  0  0  0  0  0  0  0  0  0  0
   -7.1028    5.1387  -20.9240 H   0  0  0  0  0  0  0  0  0  0  0  0
   -4.7318    5.5847  -20.4337 H   0  0  0  0  0  0  0  0  0  0  0  0
   -3.9336    5.7224  -18.1120 H   0  0  0  0  0  0  0  0  0  0  0  0
  1  2  2  0
  2  3  1  0
  3  4  1  0
  4  5  1  0
  5  6  1  0
  6  7  2  0
  7  8  1  0
  8  9  2  0
  9 10  1  0
 10 11  2  0
 11 12  1  0
 12 13  2  0
 13 14  1  0
 13  2  1  0
 14  5  2  0
 14  9  1  0
  3 15  1  0
  3 16  1  0
  4 17  1  0
  4 18  1  0
  6 19  1  0
  7 20  1  0
  8 21  1  0
 10 22  1  0
 11 23  1  0
 12 24  1  0
A    1
 O1 
A    2
 C1 
A    3
 C2 
A    4
 C3 
A    5
 C4 
A    6
 C5 
A    7
 C6 
A    8
 C7 
A    9
 C8 
A   10
 C9 
A   11
 C10
A   12
 C11
A   13
 C12
A   14
 C13
A   15
 H1 
A   16
 H2 
A   17
 H3 
A   18
 H4 
A   19
 H5 
A   20
 H6 
A   21
 H7 
A   22
 H8 
A   23
 H9 
A   24
 H10
M  END
>  <ref_pdb>  (265) 
x0051_0B

>  <ref_mols>  (265) 
x0727_0B,x0455_0B

>  <original SMILES>  (265) 
[H]c1c([H])c2c3c(c([H])c([H])c([H])c3c1[H])C([H])([H])C([H])([H])C2=O

>  <index>  (265) 
376

>  <∆∆G>  (265) 
-7.462438

>  <∆G_bound>  (265) 
-7.453799

>  <∆G_unbound>  (265) 
0.008639

>  <comRMSD>  (265) 
0.32864

>  <N_constrained_atoms>  (265) 
14.0

>  <N_unconstrained_atoms>  (265) 
0.0

>  <runtime>  (265) 
19.230891

>  <LE>  (265) 
0.533031

>  <percent_hybrid>  (265) 
34.0

>  <dist>  (265) 
3.0

>  <ecfp4>  (265) 
0.295455

>  <daylight>  (265) 
0.36

>  <topodist>  (265) 
0.0

>  <mces>  (265) 
16.0

>  <tdn>  (265) 
0.0

>  <tup>  (265) 
0.0

>  <rdn>  (265) 
0.0

>  <rup>  (265) 
0.0

>  <ldn>  (265) 
0.0

>  <lup>  (265) 
0.0

>  <mut>  (265) 
2.0

>  <maj>  (265) 
2.0

>  <min>  (265) 
0.0

>  <hyb>  (265) 
1.0

>  <sub>  (265) 
0.0

>  <query_index>  (265) 
57.0

>  <max_hit_Tanimoto>  (265) 
0.158462

>  <largest_ring>  (265) 
6

>  <N_interactions_kept>  (265) 
0.0

>  <N_interactions_lost>  (265) 
3.0

>  <interaction_uniqueness_metric>  (265) 
0.047384

>  <ad_hoc_penalty>  (265) 
-22.587181

>  <N_rotatable_bonds>  (265) 
0

>  <N_HA>  (265) 
14

>  <cluster>  (265) 
5873

>  <N_interactions>  (265) 
6

>  <Enamine>  (265) 
1

>  <Mcule>  (265) 
0

>  <N_PAINS>  (265) 
0

>  <UFF_Gibbs>  (265) 
51.887823

>  <strain_per_HA>  (265) 
3.706273

>  <saltbridge:HIS:51>  (265) 
0

>  <pistack:HIS:51>  (265) 
0

>  <hydroph_interaction:HIS:51>  (265) 
0

>  <hbond:ALA:132>  (265) 
0

>  <hbond:SER:135>  (265) 
0

>  <hydroph_interaction:TYR:150>  (265) 
1

>  <pistack:TYR:161>  (265) 
1

>  <hydroph_interaction:TYR:161>  (265) 
4

>  <hydroph_interaction:ASP:83>  (265) 
0

>  <hbond:TYR:130>  (265) 
0

>  <hydroph_interaction:ALA:132>  (265) 
0

>  <hbond:HIS:51>  (265) 
0

>  <hbond:ASP:129>  (265) 
0

>  <hbond:TYR:150>  (265) 
0

>  <hbond:GLY:151>  (265) 
0

>  <hbond:TYR:161>  (265) 
0

>  <hydroph_interaction:TYR:130>  (265) 
0

>  <hydroph_interaction:PRO:131>  (265) 
0

>  <hydroph_interaction:ASP:129>  (265) 
0

>  <saltbridge:ASP:75>  (265) 
0

>  <saltbridge:ASP:83>  (265) 
0

>  <hydroph_interaction:ASN:152>  (265) 
0

>  <halogenbond:TYR:150>  (265) 
0

>  <hbond:ASP:83>  (265) 
0

>  <hydroph_interaction:VAL:155>  (265) 
0

>  <pication:TYR:161>  (265) 
0

>  <hbond:PRO:131>  (265) 
0

>  <hbond:LEU:128>  (265) 
0

>  <saltbridge:ASP:129>  (265) 
0

>  <hbond:THR:134>  (265) 
0

>  <pication:HIS:51>  (265) 
0

>  <hbond:SER:81>  (265) 
0

>  <hbond:GLY:159>  (265) 
0

>  <hydroph_interaction:PRO:101>  (265) 
0

>  <hydroph_interaction:THR:134>  (265) 
0

>  <hbond:GLY:82>  (265) 
0

>  <hydroph_interaction:GLU:104>  (265) 
0

>  <hydroph_interaction:VAL:36>  (265) 
0

>  <hydroph_interaction:MET:49>  (265) 
0

>  <halogenbond:GLU:104>  (265) 
0

>  <hydroph_interaction:LYS:107>  (265) 
0

$$$$
Z5080829372
     RDKit          3D

 37 40  0  0  0  0  0  0  0  0999 V2000
   -7.6672    6.5156  -19.4807 C   0  0  0  0  0  0  0  0  0  0  0  0
   -7.1689    5.9154  -18.2502 N   0  0  0  0  0  0  0  0  0  0  0  0
   -6.0368    6.2554  -17.6427 N   0  0  0  0  0  0  0  0  0  0  0  0
   -5.8687    5.5537  -16.5225 N   0  0  0  0  0  0  0  0  0  0  0  0
   -6.9442    4.7471  -16.4280 C   0  0  0  0  0  0  0  0  0  0  0  0
   -7.2675    3.8177  -15.4348 C   0  0  0  0  0  0  0  0  0  0  0  0
   -6.3889    3.5859  -14.2371 C   0  0  0  0  0  0  0  0  0  0  0  0
   -7.0465    4.0238  -13.0507 O   0  0  0  0  0  0  0  0  0  0  0  0
   -7.2401    5.3716  -12.7298 C   0  0  0  0  0  0  0  0  0  0  0  0
   -6.7607    6.2776  -13.4643 O   0  0  0  0  0  0  0  0  0  0  0  0
   -8.0133    5.7462  -11.5363 C   0  0  0  0  0  0  0  0  0  0  0  0
   -8.6206    4.9173  -10.6081 C   0  0  0  0  0  0  0  0  0  0  0  0
   -8.7010    3.4170  -10.6043 C   0  0  0  0  0  0  0  0  0  0  0  0
   -9.1506    2.7683   -8.9557 S   0  0  0  0  0  0  0  0  0  0  0  0
  -10.5619    3.8977   -8.7130 C   0  0  0  0  0  0  0  0  0  0  0  0
  -10.0601    5.3343   -8.5846 C   0  0  0  0  0  0  0  0  0  0  0  0
   -9.2829    5.7247   -9.7583 N   0  0  0  0  0  0  0  0  0  0  0  0
   -9.0543    6.9790  -10.1118 N   0  0  0  0  0  0  0  0  0  0  0  0
   -8.2912    7.0221  -11.1953 N   0  0  0  0  0  0  0  0  0  0  0  0
   -8.4866    3.1171  -15.5848 C   0  0  0  0  0  0  0  0  0  0  0  0
   -9.3251    3.3572  -16.6995 C   0  0  0  0  0  0  0  0  0  0  0  0
   -8.9614    4.3011  -17.6784 C   0  0  0  0  0  0  0  0  0  0  0  0
   -7.7545    4.9727  -17.4980 C   0  0  0  0  0  0  0  0  0  0  0  0
   -6.8983    7.1880  -19.9167 H   0  0  0  0  0  0  0  0  0  0  0  0
   -7.9061    5.7198  -20.2172 H   0  0  0  0  0  0  0  0  0  0  0  0
   -8.5828    7.1047  -19.2640 H   0  0  0  0  0  0  0  0  0  0  0  0
   -6.1862    2.4980  -14.1484 H   0  0  0  0  0  0  0  0  0  0  0  0
   -5.4076    4.0982  -14.3397 H   0  0  0  0  0  0  0  0  0  0  0  0
   -9.4554    3.0872  -11.3490 H   0  0  0  0  0  0  0  0  0  0  0  0
   -7.7162    2.9849  -10.8731 H   0  0  0  0  0  0  0  0  0  0  0  0
  -11.2693    3.8111   -9.5658 H   0  0  0  0  0  0  0  0  0  0  0  0
  -11.0960    3.6096   -7.7833 H   0  0  0  0  0  0  0  0  0  0  0  0
  -10.9312    6.0151   -8.4733 H   0  0  0  0  0  0  0  0  0  0  0  0
   -9.4241    5.4281   -7.6782 H   0  0  0  0  0  0  0  0  0  0  0  0
   -8.7899    2.3916  -14.8402 H   0  0  0  0  0  0  0  0  0  0  0  0
  -10.2555    2.8133  -16.7986 H   0  0  0  0  0  0  0  0  0  0  0  0
   -9.5965    4.4956  -18.5326 H   0  0  0  0  0  0  0  0  0  0  0  0
  1  2  1  0
  2  3  1  0
  3  4  2  0
  4  5  1  0
  5  6  2  0
  6  7  1  0
  7  8  1  0
  8  9  1  0
  9 10  2  0
  9 11  1  0
 11 12  2  0
 12 13  1  0
 13 14  1  0
 14 15  1  0
 15 16  1  0
 16 17  1  0
 17 18  1  0
 18 19  2  0
  6 20  1  0
 20 21  2  0
 21 22  1  0
 22 23  2  0
 23  2  1  0
 23  5  1  0
 19 11  1  0
 17 12  1  0
  1 24  1  0
  1 25  1  0
  1 26  1  0
  7 27  1  0
  7 28  1  0
 13 29  1  0
 13 30  1  0
 15 31  1  0
 15 32  1  0
 16 33  1  0
 16 34  1  0
 20 35  1  0
 21 36  1  0
 22 37  1  0
A    1
 C1 
A    2
 N1 
A    3
 N2 
A    4
 N3 
A    5
 C2 
A    6
 C3 
A    7
 C4 
A    8
 O1 
A    9
 C5 
A   10
 O2 
A   11
 C6 
A   12
 C7 
A   13
 C8 
A   14
 S1 
A   15
 C9 
A   16
 C10
A   17
 N4 
A   18
 N5 
A   19
 N6 
A   20
 C11
A   21
 C12
A   22
 C13
A   23
 C14
A   24
 H1 
A   25
 H2 
A   26
 H3 
A   27
 H4 
A   28
 H5 
A   29
 H6 
A   30
 H7 
A   31
 H8 
A   32
 H9 
A   33
 H10
A   34
 H11
A   35
 H12
A   36
 H13
A   37
 H14
M  END
>  <ref_pdb>  (266) 
x0051_0B

>  <ref_mols>  (266) 
x0969_1B,x0435_0B

>  <original SMILES>  (266) 
[H]c1c([H])c([H])c2c(nnn2C([H])([H])[H])c1C([H])([H])OC(=O)c1nnn2c1C([H])([H])SC([H])([H])C2([H])[H]

>  <index>  (266) 
391

>  <∆∆G>  (266) 
-7.801668

>  <∆G_bound>  (266) 
-7.214126

>  <∆G_unbound>  (266) 
0.587542

>  <comRMSD>  (266) 
0.42018

>  <N_constrained_atoms>  (266) 
20.0

>  <N_unconstrained_atoms>  (266) 
3.0

>  <runtime>  (266) 
53.860511

>  <LE>  (266) 
0.339203

>  <percent_hybrid>  (266) 
50.0

>  <dist>  (266) 
7.0

>  <ecfp4>  (266) 
0.094737

>  <daylight>  (266) 
0.265363

>  <topodist>  (266) 
1.0

>  <mces>  (266) 
25.0

>  <tdn>  (266) 
0.0

>  <tup>  (266) 
1.0

>  <rdn>  (266) 
0.0

>  <rup>  (266) 
0.0

>  <ldn>  (266) 
0.0

>  <lup>  (266) 
0.0

>  <mut>  (266) 
5.0

>  <maj>  (266) 
5.0

>  <min>  (266) 
0.0

>  <hyb>  (266) 
1.0

>  <sub>  (266) 
0.0

>  <query_index>  (266) 
343.0

>  <max_hit_Tanimoto>  (266) 
0.229912

>  <largest_ring>  (266) 
6

>  <N_interactions_kept>  (266) 
2.5

>  <N_interactions_lost>  (266) 
1.0

>  <interaction_uniqueness_metric>  (266) 
0.139279

>  <ad_hoc_penalty>  (266) 
-22.543912

>  <N_rotatable_bonds>  (266) 
4

>  <N_HA>  (266) 
23

>  <cluster>  (266) 
5860

>  <N_interactions>  (266) 
4

>  <Enamine>  (266) 
1

>  <Mcule>  (266) 
0

>  <N_PAINS>  (266) 
0

>  <UFF_Gibbs>  (266) 
100.661571

>  <strain_per_HA>  (266) 
4.37659

>  <saltbridge:HIS:51>  (266) 
1

>  <pistack:HIS:51>  (266) 
1

>  <hydroph_interaction:HIS:51>  (266) 
0

>  <hbond:ALA:132>  (266) 
0

>  <hbond:SER:135>  (266) 
0

>  <hydroph_interaction:TYR:150>  (266) 
0

>  <pistack:TYR:161>  (266) 
1

>  <hydroph_interaction:TYR:161>  (266) 
1

>  <hydroph_interaction:ASP:83>  (266) 
0

>  <hbond:TYR:130>  (266) 
0

>  <hydroph_interaction:ALA:132>  (266) 
0

>  <hbond:HIS:51>  (266) 
0

>  <hbond:ASP:129>  (266) 
0

>  <hbond:TYR:150>  (266) 
0

>  <hbond:GLY:151>  (266) 
0

>  <hbond:TYR:161>  (266) 
0

>  <hydroph_interaction:TYR:130>  (266) 
0

>  <hydroph_interaction:PRO:131>  (266) 
0

>  <hydroph_interaction:ASP:129>  (266) 
0

>  <saltbridge:ASP:75>  (266) 
0

>  <saltbridge:ASP:83>  (266) 
0

>  <hydroph_interaction:ASN:152>  (266) 
0

>  <halogenbond:TYR:150>  (266) 
0

>  <hbond:ASP:83>  (266) 
0

>  <hydroph_interaction:VAL:155>  (266) 
0

>  <pication:TYR:161>  (266) 
0

>  <hbond:PRO:131>  (266) 
0

>  <hbond:LEU:128>  (266) 
0

>  <saltbridge:ASP:129>  (266) 
0

>  <hbond:THR:134>  (266) 
0

>  <pication:HIS:51>  (266) 
0

>  <hbond:SER:81>  (266) 
0

>  <hbond:GLY:159>  (266) 
0

>  <hydroph_interaction:PRO:101>  (266) 
0

>  <hydroph_interaction:THR:134>  (266) 
0

>  <hbond:GLY:82>  (266) 
0

>  <hydroph_interaction:GLU:104>  (266) 
0

>  <hydroph_interaction:VAL:36>  (266) 
0

>  <hydroph_interaction:MET:49>  (266) 
0

>  <halogenbond:GLU:104>  (266) 
0

>  <hydroph_interaction:LYS:107>  (266) 
0

$$$$
MCULE-8781922235
     RDKit          3D

 18 19  0  0  0  0  0  0  0  0999 V2000
   -6.3129    5.2848  -19.9893 C   0  0  0  0  0  0  0  0  0  0  0  0
   -5.0434    5.4072  -20.4614 N   0  0  0  0  0  0  0  0  0  0  0  0
   -3.9746    5.4892  -19.6266 C   0  0  0  0  0  0  0  0  0  0  0  0
   -4.1635    5.4486  -18.2452 C   0  0  0  0  0  0  0  0  0  0  0  0
   -5.4564    5.3234  -17.7335 C   0  0  0  0  0  0  0  0  0  0  0  0
   -6.5556    5.2393  -18.6061 C   0  0  0  0  0  0  0  0  0  0  0  0
   -7.9427    5.1058  -18.1041 C   0  0  0  0  0  0  0  0  0  0  0  0
   -8.3499    5.0465  -16.7809 C   0  0  0  0  0  0  0  0  0  0  0  0
   -9.7219    4.9235  -16.8155 C   0  0  0  0  0  0  0  0  0  0  0  0
  -10.0724    4.9147  -18.1487 C   0  0  0  0  0  0  0  0  0  0  0  0
   -8.9943    5.0245  -18.8894 O   0  0  0  0  0  0  0  0  0  0  0  0
   -7.1307    5.2232  -20.6957 H   0  0  0  0  0  0  0  0  0  0  0  0
   -2.9780    5.5860  -20.0360 H   0  0  0  0  0  0  0  0  0  0  0  0
   -3.3150    5.5136  -17.5763 H   0  0  0  0  0  0  0  0  0  0  0  0
   -5.5874    5.2933  -16.6609 H   0  0  0  0  0  0  0  0  0  0  0  0
   -7.7367    5.0865  -15.8915 H   0  0  0  0  0  0  0  0  0  0  0  0
  -10.3893    4.8489  -15.9675 H   0  0  0  0  0  0  0  0  0  0  0  0
  -11.0772    4.8309  -18.5404 H   0  0  0  0  0  0  0  0  0  0  0  0
  1  2  2  0
  2  3  1  0
  3  4  2  0
  4  5  1  0
  5  6  2  0
  6  7  1  0
  7  8  2  0
  8  9  1  0
  9 10  2  0
 10 11  1  0
  6  1  1  0
 11  7  1  0
  1 12  1  0
  3 13  1  0
  4 14  1  0
  5 15  1  0
  8 16  1  0
  9 17  1  0
 10 18  1  0
A    1
 C1 
A    2
 N1 
A    3
 C2 
A    4
 C3 
A    5
 C4 
A    6
 C5 
A    7
 C6 
A    8
 C7 
A    9
 C8 
A   10
 C9 
A   11
 O1 
A   12
 H1 
A   13
 H2 
A   14
 H3 
A   15
 H4 
A   16
 H5 
A   17
 H6 
A   18
 H7 
M  END
>  <ref_pdb>  (267) 
x0051_0B

>  <ref_mols>  (267) 
x0680_0B,x0386_0B

>  <original SMILES>  (267) 
[H]c1nc([H])c(-c2oc([H])c([H])c2[H])c([H])c1[H]

>  <index>  (267) 
385

>  <∆∆G>  (267) 
-5.261297

>  <∆G_bound>  (267) 
-5.260823

>  <∆G_unbound>  (267) 
0.000473

>  <comRMSD>  (267) 
0.632776

>  <N_constrained_atoms>  (267) 
13.0

>  <N_unconstrained_atoms>  (267) 
0.0

>  <runtime>  (267) 
22.844367

>  <LE>  (267) 
0.404715

>  <percent_hybrid>  (267) 
25.0

>  <dist>  (267) 
3.0

>  <ecfp4>  (267) 
0.22449

>  <daylight>  (267) 
0.311594

>  <topodist>  (267) 
1.0

>  <mces>  (267) 
12.0

>  <tdn>  (267) 
1.0

>  <tup>  (267) 
0.0

>  <rdn>  (267) 
0.0

>  <rup>  (267) 
0.0

>  <ldn>  (267) 
0.0

>  <lup>  (267) 
0.0

>  <mut>  (267) 
2.0

>  <maj>  (267) 
2.0

>  <min>  (267) 
0.0

>  <hyb>  (267) 
0.0

>  <sub>  (267) 
1.0

>  <query_index>  (267) 
296.0

>  <max_hit_Tanimoto>  (267) 
0.115028

>  <largest_ring>  (267) 
6

>  <N_interactions_kept>  (267) 
3.5

>  <N_interactions_lost>  (267) 
0.5

>  <interaction_uniqueness_metric>  (267) 
0.016266

>  <ad_hoc_penalty>  (267) 
-22.502836

>  <N_rotatable_bonds>  (267) 
1

>  <N_HA>  (267) 
11

>  <cluster>  (267) 
5864

>  <N_interactions>  (267) 
3

>  <Enamine>  (267) 
0

>  <Mcule>  (267) 
1

>  <N_PAINS>  (267) 
0

>  <UFF_Gibbs>  (267) 
43.178154

>  <strain_per_HA>  (267) 
3.321396

>  <saltbridge:HIS:51>  (267) 
0

>  <pistack:HIS:51>  (267) 
0

>  <hydroph_interaction:HIS:51>  (267) 
0

>  <hbond:ALA:132>  (267) 
0

>  <hbond:SER:135>  (267) 
0

>  <hydroph_interaction:TYR:150>  (267) 
0

>  <pistack:TYR:161>  (267) 
0

>  <hydroph_interaction:TYR:161>  (267) 
3

>  <hydroph_interaction:ASP:83>  (267) 
0

>  <hbond:TYR:130>  (267) 
0

>  <hydroph_interaction:ALA:132>  (267) 
0

>  <hbond:HIS:51>  (267) 
0

>  <hbond:ASP:129>  (267) 
0

>  <hbond:TYR:150>  (267) 
0

>  <hbond:GLY:151>  (267) 
0

>  <hbond:TYR:161>  (267) 
0

>  <hydroph_interaction:TYR:130>  (267) 
0

>  <hydroph_interaction:PRO:131>  (267) 
0

>  <hydroph_interaction:ASP:129>  (267) 
0

>  <saltbridge:ASP:75>  (267) 
0

>  <saltbridge:ASP:83>  (267) 
0

>  <hydroph_interaction:ASN:152>  (267) 
0

>  <halogenbond:TYR:150>  (267) 
0

>  <hbond:ASP:83>  (267) 
0

>  <hydroph_interaction:VAL:155>  (267) 
0

>  <pication:TYR:161>  (267) 
0

>  <hbond:PRO:131>  (267) 
0

>  <hbond:LEU:128>  (267) 
0

>  <saltbridge:ASP:129>  (267) 
0

>  <hbond:THR:134>  (267) 
0

>  <pication:HIS:51>  (267) 
0

>  <hbond:SER:81>  (267) 
0

>  <hbond:GLY:159>  (267) 
0

>  <hydroph_interaction:PRO:101>  (267) 
0

>  <hydroph_interaction:THR:134>  (267) 
0

>  <hbond:GLY:82>  (267) 
0

>  <hydroph_interaction:GLU:104>  (267) 
0

>  <hydroph_interaction:VAL:36>  (267) 
0

>  <hydroph_interaction:MET:49>  (267) 
0

>  <halogenbond:GLU:104>  (267) 
0

>  <hydroph_interaction:LYS:107>  (267) 
0

$$$$
Z2916345007
     RDKit          3D

 41 43  0  0  0  0  0  0  0  0999 V2000
   -8.3606    6.7903   -9.6317 C   0  0  0  0  0  0  0  0  0  0  0  0
   -8.4053    6.6549  -11.0816 N   0  0  0  0  0  0  0  0  0  0  0  0
   -8.0756    7.5911  -11.9943 C   0  0  0  0  0  0  0  0  0  0  0  0
   -8.1484    7.1280  -13.2607 N   0  0  0  0  0  0  0  0  0  0  0  0
   -8.5296    5.8417  -13.1082 C   0  0  0  0  0  0  0  0  0  0  0  0
   -8.7415    4.9202  -14.1868 N   0  0  0  0  0  0  0  0  0  0  0  0
   -8.5051    5.2437  -15.5681 C   0  0  0  0  0  0  0  0  0  0  0  0
   -7.9351    6.3265  -15.8734 O   0  0  0  0  0  0  0  0  0  0  0  0
   -8.9168    4.3067  -16.6427 C   0  0  0  0  0  0  0  0  0  0  0  0
  -10.0745    3.5237  -16.4790 C   0  0  0  0  0  0  0  0  0  0  0  0
  -10.4877    2.6471  -17.4836 C   0  0  0  0  0  0  0  0  0  0  0  0
   -9.7549    2.5418  -18.6643 C   0  0  0  0  0  0  0  0  0  0  0  0
   -8.6053    3.3120  -18.8465 C   0  0  0  0  0  0  0  0  0  0  0  0
   -8.1731    4.2008  -17.8412 C   0  0  0  0  0  0  0  0  0  0  0  0
   -7.0109    4.9744  -17.9957 O   0  0  0  0  0  0  0  0  0  0  0  0
   -6.1895    4.9871  -19.1608 C   0  0  0  0  0  0  0  0  0  0  0  0
   -5.0402    5.9792  -18.9708 C   0  0  0  0  0  0  0  0  0  0  0  0
   -5.5387    7.4086  -18.7595 C   0  0  0  0  0  0  0  0  0  0  0  0
   -4.6492    8.2435  -19.6420 C   0  0  0  0  0  0  0  0  0  0  0  0
   -3.6622    7.2488  -20.2189 C   0  0  0  0  0  0  0  0  0  0  0  0
   -4.2084    5.9588  -20.1059 O   0  0  0  0  0  0  0  0  0  0  0  0
   -8.6829    5.5397  -11.7742 C   0  0  0  0  0  0  0  0  0  0  0  0
   -7.4038    6.3780   -9.2492 H   0  0  0  0  0  0  0  0  0  0  0  0
   -8.4380    7.8597   -9.3426 H   0  0  0  0  0  0  0  0  0  0  0  0
   -9.2070    6.2369   -9.1732 H   0  0  0  0  0  0  0  0  0  0  0  0
   -7.7773    8.6010  -11.7448 H   0  0  0  0  0  0  0  0  0  0  0  0
   -9.0489    3.9523  -13.9411 H   0  0  0  0  0  0  0  0  0  0  0  0
  -10.6769    3.6053  -15.5832 H   0  0  0  0  0  0  0  0  0  0  0  0
  -11.3820    2.0524  -17.3482 H   0  0  0  0  0  0  0  0  0  0  0  0
  -10.0789    1.8619  -19.4419 H   0  0  0  0  0  0  0  0  0  0  0  0
   -8.0566    3.2053  -19.7720 H   0  0  0  0  0  0  0  0  0  0  0  0
   -6.7941    5.2806  -20.0476 H   0  0  0  0  0  0  0  0  0  0  0  0
   -5.7681    3.9720  -19.3278 H   0  0  0  0  0  0  0  0  0  0  0  0
   -4.4403    5.6619  -18.0875 H   0  0  0  0  0  0  0  0  0  0  0  0
   -5.4320    7.7052  -17.6928 H   0  0  0  0  0  0  0  0  0  0  0  0
   -6.6015    7.5356  -19.0647 H   0  0  0  0  0  0  0  0  0  0  0  0
   -5.2445    8.7102  -20.4580 H   0  0  0  0  0  0  0  0  0  0  0  0
   -4.1263    9.0362  -19.0630 H   0  0  0  0  0  0  0  0  0  0  0  0
   -3.4613    7.4768  -21.2876 H   0  0  0  0  0  0  0  0  0  0  0  0
   -2.7003    7.2910  -19.6604 H   0  0  0  0  0  0  0  0  0  0  0  0
   -8.9638    4.5871  -11.3436 H   0  0  0  0  0  0  0  0  0  0  0  0
  1  2  1  0
  2  3  1  0
  3  4  2  0
  4  5  1  0
  5  6  1  0
  6  7  1  0
  7  8  2  0
  7  9  1  0
  9 10  2  0
 10 11  1  0
 11 12  2  0
 12 13  1  0
 13 14  2  0
 14 15  1  0
 15 16  1  0
 16 17  1  0
 17 18  1  0
 18 19  1  0
 19 20  1  0
 20 21  1  0
  5 22  2  0
 22  2  1  0
 14  9  1  0
 21 17  1  0
  1 23  1  0
  1 24  1  0
  1 25  1  0
  3 26  1  0
  6 27  1  0
 10 28  1  0
 11 29  1  0
 12 30  1  0
 13 31  1  0
 16 32  1  0
 16 33  1  0
 17 34  1  0
 18 35  1  0
 18 36  1  0
 19 37  1  0
 19 38  1  0
 20 39  1  0
 20 40  1  0
 22 41  1  0
A    1
 C1 
A    2
 N1 
A    3
 C2 
A    4
 N2 
A    5
 C3 
A    6
 N3 
A    7
 C4 
A    8
 O1 
A    9
 C5 
A   10
 C6 
A   11
 C7 
A   12
 C8 
A   13
 C9 
A   14
 C10
A   15
 O2 
A   16
 C11
A   17
 C12
A   18
 C13
A   19
 C14
A   20
 C15
A   21
 O3 
A   22
 C16
A   23
 H1 
A   24
 H2 
A   25
 H3 
A   26
 H4 
A   27
 H5 
A   28
 H6 
A   29
 H7 
A   30
 H8 
A   31
 H9 
A   32
 H10
A   33
 H11
A   34
 H12
A   35
 H13
A   36
 H14
A   37
 H15
A   38
 H16
A   39
 H17
A   40
 H18
A   41
 H19
M  END
>  <ref_pdb>  (268) 
x0051_0B

>  <ref_mols>  (268) 
x1098_0B,x0229_0B

>  <original SMILES>  (268) 
[H]c1c([H])c([H])c(C(=O)N([H])c2nc([H])n(C([H])([H])[H])c2[H])c(OC([H])([H])C2([H])OC([H])([H])C([H])([H])C2([H])[H])c1[H]

>  <index>  (268) 
554

>  <∆∆G>  (268) 
-8.917257

>  <∆G_bound>  (268) 
-6.159106

>  <∆G_unbound>  (268) 
2.758151

>  <comRMSD>  (268) 
0.638841

>  <N_constrained_atoms>  (268) 
26.0

>  <N_unconstrained_atoms>  (268) 
0.0

>  <runtime>  (268) 
46.720654

>  <LE>  (268) 
0.342971

>  <percent_hybrid>  (268) 
43.0

>  <dist>  (268) 
7.0

>  <ecfp4>  (268) 
0.247191

>  <daylight>  (268) 
0.254072

>  <topodist>  (268) 
3.0

>  <mces>  (268) 
24.0

>  <tdn>  (268) 
2.0

>  <tup>  (268) 
0.0

>  <rdn>  (268) 
1.0

>  <rup>  (268) 
0.0

>  <ldn>  (268) 
0.0

>  <lup>  (268) 
0.0

>  <mut>  (268) 
4.0

>  <maj>  (268) 
4.0

>  <min>  (268) 
0.0

>  <hyb>  (268) 
0.0

>  <sub>  (268) 
2.0

>  <query_index>  (268) 
28.0

>  <max_hit_Tanimoto>  (268) 
0.322176

>  <largest_ring>  (268) 
6

>  <N_interactions_kept>  (268) 
2.0

>  <N_interactions_lost>  (268) 
3.5

>  <interaction_uniqueness_metric>  (268) 
0.431659

>  <ad_hoc_penalty>  (268) 
-22.49415

>  <N_rotatable_bonds>  (268) 
6

>  <N_HA>  (268) 
22

>  <cluster>  (268) 
461

>  <N_interactions>  (268) 
8

>  <Enamine>  (268) 
1

>  <Mcule>  (268) 
0

>  <N_PAINS>  (268) 
0

>  <UFF_Gibbs>  (268) 
140.7374

>  <strain_per_HA>  (268) 
5.412977

>  <saltbridge:HIS:51>  (268) 
0

>  <pistack:HIS:51>  (268) 
1

>  <hydroph_interaction:HIS:51>  (268) 
0

>  <hbond:ALA:132>  (268) 
0

>  <hbond:SER:135>  (268) 
0

>  <hydroph_interaction:TYR:150>  (268) 
1

>  <pistack:TYR:161>  (268) 
1

>  <hydroph_interaction:TYR:161>  (268) 
0

>  <hydroph_interaction:ASP:83>  (268) 
0

>  <hbond:TYR:130>  (268) 
0

>  <hydroph_interaction:ALA:132>  (268) 
1

>  <hbond:HIS:51>  (268) 
0

>  <hbond:ASP:129>  (268) 
0

>  <hbond:TYR:150>  (268) 
0

>  <hbond:GLY:151>  (268) 
0

>  <hbond:TYR:161>  (268) 
2

>  <hydroph_interaction:TYR:130>  (268) 
0

>  <hydroph_interaction:PRO:131>  (268) 
0

>  <hydroph_interaction:ASP:129>  (268) 
0

>  <saltbridge:ASP:75>  (268) 
0

>  <saltbridge:ASP:83>  (268) 
1

>  <hydroph_interaction:ASN:152>  (268) 
0

>  <halogenbond:TYR:150>  (268) 
0

>  <hbond:ASP:83>  (268) 
0

>  <hydroph_interaction:VAL:155>  (268) 
0

>  <pication:TYR:161>  (268) 
0

>  <hbond:PRO:131>  (268) 
0

>  <hbond:LEU:128>  (268) 
0

>  <saltbridge:ASP:129>  (268) 
0

>  <hbond:THR:134>  (268) 
0

>  <pication:HIS:51>  (268) 
1

>  <hbond:SER:81>  (268) 
0

>  <hbond:GLY:159>  (268) 
0

>  <hydroph_interaction:PRO:101>  (268) 
0

>  <hydroph_interaction:THR:134>  (268) 
0

>  <hbond:GLY:82>  (268) 
0

>  <hydroph_interaction:GLU:104>  (268) 
0

>  <hydroph_interaction:VAL:36>  (268) 
0

>  <hydroph_interaction:MET:49>  (268) 
0

>  <halogenbond:GLU:104>  (268) 
0

>  <hydroph_interaction:LYS:107>  (268) 
0

$$$$
MCULE-7739129000
     RDKit          3D

 34 35  0  0  0  0  0  0  0  0999 V2000
   -5.8484    4.7246  -19.9088 C   0  0  0  0  0  0  0  0  0  0  0  0
   -6.5521    3.7720  -20.3434 O   0  0  0  0  0  0  0  0  0  0  0  0
   -4.5505    5.0157  -20.5633 C   0  0  0  0  0  0  0  0  0  0  0  0
   -3.4776    5.5744  -19.8441 C   0  0  0  0  0  0  0  0  0  0  0  0
   -2.2590    5.8354  -20.4782 C   0  0  0  0  0  0  0  0  0  0  0  0
   -2.0900    5.5370  -21.8363 C   0  0  0  0  0  0  0  0  0  0  0  0
   -3.1493    4.9683  -22.5547 C   0  0  0  0  0  0  0  0  0  0  0  0
   -4.3682    4.7052  -21.9229 C   0  0  0  0  0  0  0  0  0  0  0  0
   -0.8429    5.8048  -22.4828 N   0  0  0  0  0  0  0  0  0  0  0  0
   -6.3095    5.5042  -18.7898 N   0  0  0  0  0  0  0  0  0  0  0  0
   -7.5582    5.2586  -18.1191 C   0  0  0  0  0  0  0  0  0  0  0  0
   -8.7366    5.0754  -18.8642 C   0  0  0  0  0  0  0  0  0  0  0  0
   -9.9648    4.8640  -18.2221 C   0  0  0  0  0  0  0  0  0  0  0  0
  -11.2205    4.7065  -19.0277 C   0  0  0  0  0  0  0  0  0  0  0  0
  -10.0229    4.8829  -16.8231 C   0  0  0  0  0  0  0  0  0  0  0  0
   -8.8627    5.0806  -16.0723 C   0  0  0  0  0  0  0  0  0  0  0  0
   -7.6235    5.2614  -16.7075 C   0  0  0  0  0  0  0  0  0  0  0  0
   -6.3889    5.4795  -15.8756 C   0  0  0  0  0  0  0  0  0  0  0  0
   -3.5621    5.7853  -18.7867 H   0  0  0  0  0  0  0  0  0  0  0  0
   -1.4437    6.2635  -19.9086 H   0  0  0  0  0  0  0  0  0  0  0  0
   -3.0308    4.7290  -23.6040 H   0  0  0  0  0  0  0  0  0  0  0  0
   -5.1738    4.2695  -22.5011 H   0  0  0  0  0  0  0  0  0  0  0  0
   -0.7068    5.5835  -23.4945 H   0  0  0  0  0  0  0  0  0  0  0  0
   -0.0466    6.2267  -21.9548 H   0  0  0  0  0  0  0  0  0  0  0  0
   -5.7081    6.2718  -18.4191 H   0  0  0  0  0  0  0  0  0  0  0  0
   -8.7032    5.1219  -19.9457 H   0  0  0  0  0  0  0  0  0  0  0  0
  -11.0040    4.2064  -19.9958 H   0  0  0  0  0  0  0  0  0  0  0  0
  -11.6594    5.7065  -19.2266 H   0  0  0  0  0  0  0  0  0  0  0  0
  -11.9628    4.0871  -18.4806 H   0  0  0  0  0  0  0  0  0  0  0  0
  -10.9686    4.7507  -16.3120 H   0  0  0  0  0  0  0  0  0  0  0  0
   -8.9336    5.0939  -14.9917 H   0  0  0  0  0  0  0  0  0  0  0  0
   -6.0915    6.5478  -15.9252 H   0  0  0  0  0  0  0  0  0  0  0  0
   -5.5565    4.8485  -16.2528 H   0  0  0  0  0  0  0  0  0  0  0  0
   -6.5631    5.2095  -14.8122 H   0  0  0  0  0  0  0  0  0  0  0  0
  1  2  2  0
  1  3  1  0
  3  4  2  0
  4  5  1  0
  5  6  2  0
  6  7  1  0
  7  8  2  0
  6  9  1  0
  1 10  1  0
 10 11  1  0
 11 12  2  0
 12 13  1  0
 13 14  1  0
 13 15  2  0
 15 16  1  0
 16 17  2  0
 17 18  1  0
  3  8  1  0
 11 17  1  0
  4 19  1  0
  5 20  1  0
  7 21  1  0
  8 22  1  0
  9 23  1  0
  9 24  1  0
 10 25  1  0
 12 26  1  0
 14 27  1  0
 14 28  1  0
 14 29  1  0
 15 30  1  0
 16 31  1  0
 18 32  1  0
 18 33  1  0
 18 34  1  0
A    1
 C1 
A    2
 O1 
A    3
 C2 
A    4
 C3 
A    5
 C4 
A    6
 C5 
A    7
 C6 
A    8
 C7 
A    9
 N1 
A   10
 N2 
A   11
 C8 
A   12
 C9 
A   13
 C10
A   14
 C11
A   15
 C12
A   16
 C13
A   17
 C14
A   18
 C15
A   19
 H1 
A   20
 H2 
A   21
 H3 
A   22
 H4 
A   23
 H5 
A   24
 H6 
A   25
 H7 
A   26
 H8 
A   27
 H9 
A   28
 H10
A   29
 H11
A   30
 H12
A   31
 H13
A   32
 H14
A   33
 H15
A   34
 H16
M  END
>  <ref_pdb>  (269) 
x0051_0B

>  <ref_mols>  (269) 
x0852_0B,x0605_0B

>  <original SMILES>  (269) 
[H]c1c([H])c(N([H])[H])c([H])c([H])c1C(=O)N([H])c1c([H])c(C([H])([H])[H])c([H])c([H])c1C([H])([H])[H]

>  <index>  (269) 
356

>  <∆∆G>  (269) 
-7.790796

>  <∆G_bound>  (269) 
-7.829123

>  <∆G_unbound>  (269) 
-0.038328

>  <comRMSD>  (269) 
0.867587

>  <N_constrained_atoms>  (269) 
21.0

>  <N_unconstrained_atoms>  (269) 
1.0

>  <runtime>  (269) 
40.89265

>  <LE>  (269) 
0.354127

>  <percent_hybrid>  (269) 
20.0

>  <dist>  (269) 
4.0

>  <ecfp4>  (269) 
0.245902

>  <daylight>  (269) 
0.503876

>  <topodist>  (269) 
3.0

>  <mces>  (269) 
18.0

>  <tdn>  (269) 
2.0

>  <tup>  (269) 
1.0

>  <rdn>  (269) 
0.0

>  <rup>  (269) 
0.0

>  <ldn>  (269) 
0.0

>  <lup>  (269) 
0.0

>  <mut>  (269) 
1.0

>  <maj>  (269) 
1.0

>  <min>  (269) 
0.0

>  <hyb>  (269) 
0.0

>  <sub>  (269) 
2.0

>  <query_index>  (269) 
176.0

>  <max_hit_Tanimoto>  (269) 
0.452693

>  <largest_ring>  (269) 
6

>  <N_interactions_kept>  (269) 
3.0

>  <N_interactions_lost>  (269) 
3.0

>  <interaction_uniqueness_metric>  (269) 
0.244473

>  <ad_hoc_penalty>  (269) 
-22.36816

>  <N_rotatable_bonds>  (269) 
5

>  <N_HA>  (269) 
18

>  <cluster>  (269) 
5893

>  <N_interactions>  (269) 
8

>  <Enamine>  (269) 
0

>  <Mcule>  (269) 
1

>  <N_PAINS>  (269) 
0

>  <UFF_Gibbs>  (269) 
111.020556

>  <strain_per_HA>  (269) 
5.046389

>  <saltbridge:HIS:51>  (269) 
0

>  <pistack:HIS:51>  (269) 
0

>  <hydroph_interaction:HIS:51>  (269) 
0

>  <hbond:ALA:132>  (269) 
0

>  <hbond:SER:135>  (269) 
0

>  <hydroph_interaction:TYR:150>  (269) 
1

>  <pistack:TYR:161>  (269) 
0

>  <hydroph_interaction:TYR:161>  (269) 
4

>  <hydroph_interaction:ASP:83>  (269) 
0

>  <hbond:TYR:130>  (269) 
1

>  <hydroph_interaction:ALA:132>  (269) 
0

>  <hbond:HIS:51>  (269) 
0

>  <hbond:ASP:129>  (269) 
0

>  <hbond:TYR:150>  (269) 
0

>  <hbond:GLY:151>  (269) 
0

>  <hbond:TYR:161>  (269) 
0

>  <hydroph_interaction:TYR:130>  (269) 
0

>  <hydroph_interaction:PRO:131>  (269) 
0

>  <hydroph_interaction:ASP:129>  (269) 
1

>  <saltbridge:ASP:75>  (269) 
0

>  <saltbridge:ASP:83>  (269) 
0

>  <hydroph_interaction:ASN:152>  (269) 
0

>  <halogenbond:TYR:150>  (269) 
0

>  <hbond:ASP:83>  (269) 
0

>  <hydroph_interaction:VAL:155>  (269) 
0

>  <pication:TYR:161>  (269) 
0

>  <hbond:PRO:131>  (269) 
0

>  <hbond:LEU:128>  (269) 
0

>  <saltbridge:ASP:129>  (269) 
0

>  <hbond:THR:134>  (269) 
0

>  <pication:HIS:51>  (269) 
0

>  <hbond:SER:81>  (269) 
0

>  <hbond:GLY:159>  (269) 
1

>  <hydroph_interaction:PRO:101>  (269) 
0

>  <hydroph_interaction:THR:134>  (269) 
0

>  <hbond:GLY:82>  (269) 
0

>  <hydroph_interaction:GLU:104>  (269) 
0

>  <hydroph_interaction:VAL:36>  (269) 
0

>  <hydroph_interaction:MET:49>  (269) 
0

>  <halogenbond:GLU:104>  (269) 
0

>  <hydroph_interaction:LYS:107>  (269) 
0

$$$$
CSSS00000015475
     RDKit          3D

 24 25  0  0  0  0  0  0  0  0999 V2000
  -10.2423    5.3484  -18.3716 C   0  0  0  0  0  0  0  0  0  0  0  0
   -9.0407    5.3270  -17.4598 C   0  0  0  0  0  0  0  0  0  0  0  0
   -9.2441    5.3915  -16.0771 C   0  0  0  0  0  0  0  0  0  0  0  0
   -8.1554    5.3737  -15.2105 C   0  0  0  0  0  0  0  0  0  0  0  0
   -8.3484    5.4322  -13.9663 O   0  0  0  0  0  0  0  0  0  0  0  0
   -6.8885    5.2937  -15.6981 N   0  0  0  0  0  0  0  0  0  0  0  0
   -6.6288    5.2280  -17.0431 C   0  0  0  0  0  0  0  0  0  0  0  0
   -5.2927    5.1446  -17.5325 C   0  0  0  0  0  0  0  0  0  0  0  0
   -4.1263    5.1270  -16.5685 C   0  0  0  0  0  0  0  0  0  0  0  0
   -5.0723    5.0787  -18.9290 C   0  0  0  0  0  0  0  0  0  0  0  0
   -3.4616    4.9735  -19.6385 Cl  0  0  0  0  0  0  0  0  0  0  0  0
   -6.1513    5.0955  -19.8112 C   0  0  0  0  0  0  0  0  0  0  0  0
   -7.4561    5.1766  -19.3396 C   0  0  0  0  0  0  0  0  0  0  0  0
   -7.7174    5.2438  -17.9597 C   0  0  0  0  0  0  0  0  0  0  0  0
  -10.2740    4.4167  -18.9747 H   0  0  0  0  0  0  0  0  0  0  0  0
  -10.1872    6.2283  -19.0465 H   0  0  0  0  0  0  0  0  0  0  0  0
  -11.1932    5.4165  -17.8011 H   0  0  0  0  0  0  0  0  0  0  0  0
  -10.2465    5.4556  -15.6696 H   0  0  0  0  0  0  0  0  0  0  0  0
   -6.1146    5.2844  -14.9978 H   0  0  0  0  0  0  0  0  0  0  0  0
   -3.1401    5.0601  -17.0653 H   0  0  0  0  0  0  0  0  0  0  0  0
   -4.2118    4.2487  -15.8946 H   0  0  0  0  0  0  0  0  0  0  0  0
   -4.1251    6.0599  -15.9664 H   0  0  0  0  0  0  0  0  0  0  0  0
   -5.9781    5.0449  -20.8791 H   0  0  0  0  0  0  0  0  0  0  0  0
   -8.2545    5.1859  -20.0693 H   0  0  0  0  0  0  0  0  0  0  0  0
  1  2  1  0
  2  3  2  0
  3  4  1  0
  4  5  2  0
  4  6  1  0
  6  7  1  0
  7  8  2  0
  8  9  1  0
  8 10  1  0
 10 11  1  0
 10 12  2  0
 12 13  1  0
 13 14  2  0
 14  2  1  0
 14  7  1  0
  1 15  1  0
  1 16  1  0
  1 17  1  0
  3 18  1  0
  6 19  1  0
  9 20  1  0
  9 21  1  0
  9 22  1  0
 12 23  1  0
 13 24  1  0
A    1
 C1 
A    2
 C2 
A    3
 C3 
A    4
 C4 
A    5
 O1 
A    6
 N1 
A    7
 C5 
A    8
 C6 
A    9
 C7 
A   10
 C8 
A   11
CL1 
A   12
 C9 
A   13
 C10
A   14
 C11
A   15
 H1 
A   16
 H2 
A   17
 H3 
A   18
 H4 
A   19
 H5 
A   20
 H6 
A   21
 H7 
A   22
 H8 
A   23
 H9 
A   24
 H10
M  END
>  <ref_pdb>  (270) 
x0051_0B

>  <ref_mols>  (270) 
x0425_0B,x0435_0B

>  <original SMILES>  (270) 
[H]c1c(Cl)c(C([H])([H])[H])c2c(c1[H])c(C([H])([H])[H])c([H])c(=O)n2[H]

>  <index>  (270) 
421

>  <∆∆G>  (270) 
-8.013758

>  <∆G_bound>  (270) 
-8.031411

>  <∆G_unbound>  (270) 
-0.017653

>  <comRMSD>  (270) 
0.903182

>  <N_constrained_atoms>  (270) 
13.0

>  <N_unconstrained_atoms>  (270) 
3.0

>  <runtime>  (270) 
18.537195

>  <LE>  (270) 
0.50086

>  <percent_hybrid>  (270) 
40.0

>  <dist>  (270) 
4.0

>  <ecfp4>  (270) 
0.083333

>  <daylight>  (270) 
0.106918

>  <topodist>  (270) 
3.0

>  <mces>  (270) 
13.0

>  <tdn>  (270) 
1.0

>  <tup>  (270) 
2.0

>  <rdn>  (270) 
0.0

>  <rup>  (270) 
0.0

>  <ldn>  (270) 
0.0

>  <lup>  (270) 
0.0

>  <mut>  (270) 
0.0

>  <maj>  (270) 
0.0

>  <min>  (270) 
0.0

>  <hyb>  (270) 
1.0

>  <sub>  (270) 
3.0

>  <query_index>  (270) 
107.0

>  <max_hit_Tanimoto>  (270) 
0.161332

>  <largest_ring>  (270) 
6

>  <N_interactions_kept>  (270) 
1.0

>  <N_interactions_lost>  (270) 
2.5

>  <interaction_uniqueness_metric>  (270) 
0.08952

>  <ad_hoc_penalty>  (270) 
-22.360353

>  <N_rotatable_bonds>  (270) 
2

>  <N_HA>  (270) 
14

>  <cluster>  (270) 
5836

>  <N_interactions>  (270) 
6

>  <Enamine>  (270) 
1

>  <Mcule>  (270) 
0

>  <N_PAINS>  (270) 
0

>  <UFF_Gibbs>  (270) 
59.722539

>  <strain_per_HA>  (270) 
3.732659

>  <saltbridge:HIS:51>  (270) 
0

>  <pistack:HIS:51>  (270) 
0

>  <hydroph_interaction:HIS:51>  (270) 
0

>  <hbond:ALA:132>  (270) 
0

>  <hbond:SER:135>  (270) 
0

>  <hydroph_interaction:TYR:150>  (270) 
1

>  <pistack:TYR:161>  (270) 
2

>  <hydroph_interaction:TYR:161>  (270) 
2

>  <hydroph_interaction:ASP:83>  (270) 
0

>  <hbond:TYR:130>  (270) 
0

>  <hydroph_interaction:ALA:132>  (270) 
0

>  <hbond:HIS:51>  (270) 
0

>  <hbond:ASP:129>  (270) 
0

>  <hbond:TYR:150>  (270) 
0

>  <hbond:GLY:151>  (270) 
0

>  <hbond:TYR:161>  (270) 
1

>  <hydroph_interaction:TYR:130>  (270) 
0

>  <hydroph_interaction:PRO:131>  (270) 
0

>  <hydroph_interaction:ASP:129>  (270) 
0

>  <saltbridge:ASP:75>  (270) 
0

>  <saltbridge:ASP:83>  (270) 
0

>  <hydroph_interaction:ASN:152>  (270) 
0

>  <halogenbond:TYR:150>  (270) 
0

>  <hbond:ASP:83>  (270) 
0

>  <hydroph_interaction:VAL:155>  (270) 
0

>  <pication:TYR:161>  (270) 
0

>  <hbond:PRO:131>  (270) 
0

>  <hbond:LEU:128>  (270) 
0

>  <saltbridge:ASP:129>  (270) 
0

>  <hbond:THR:134>  (270) 
0

>  <pication:HIS:51>  (270) 
0

>  <hbond:SER:81>  (270) 
0

>  <hbond:GLY:159>  (270) 
0

>  <hydroph_interaction:PRO:101>  (270) 
0

>  <hydroph_interaction:THR:134>  (270) 
0

>  <hbond:GLY:82>  (270) 
0

>  <hydroph_interaction:GLU:104>  (270) 
0

>  <hydroph_interaction:VAL:36>  (270) 
0

>  <hydroph_interaction:MET:49>  (270) 
0

>  <halogenbond:GLU:104>  (270) 
0

>  <hydroph_interaction:LYS:107>  (270) 
0

$$$$
MCULE-2083531843
     RDKit          3D

 43 44  0  0  0  0  0  0  0  0999 V2000
   -7.0054    5.4866  -16.4711 N   0  0  0  0  0  0  0  0  0  0  0  0
   -8.4035    5.9446  -16.4030 C   0  0  0  0  0  0  0  0  0  0  0  0
   -9.3359    4.9718  -17.1453 C   0  0  0  0  0  0  0  0  0  0  0  0
   -8.7050    4.3495  -18.4076 C   0  0  0  0  0  0  0  0  0  0  0  0
   -7.4869    5.1357  -18.8964 C   0  0  0  0  0  0  0  0  0  0  0  0
   -6.4120    5.1866  -17.7914 C   0  0  0  0  0  0  0  0  0  0  0  0
   -5.3403    6.2247  -18.1421 C   0  0  0  0  0  0  0  0  0  0  0  0
   -6.2005    5.3175  -15.2808 C   0  0  0  0  0  0  0  0  0  0  0  0
   -5.2215    4.5222  -15.2991 O   0  0  0  0  0  0  0  0  0  0  0  0
   -6.4776    6.0707  -14.0083 C   0  0  0  0  0  0  0  0  0  0  0  0
   -7.2139    5.1893  -13.0018 C   0  0  0  0  0  0  0  0  0  0  0  0
   -7.4946    5.9469  -11.8278 O   0  0  0  0  0  0  0  0  0  0  0  0
   -8.1637    5.4456  -10.7014 C   0  0  0  0  0  0  0  0  0  0  0  0
   -8.3745    6.3052   -9.6178 C   0  0  0  0  0  0  0  0  0  0  0  0
   -9.0361    5.8534   -8.4740 C   0  0  0  0  0  0  0  0  0  0  0  0
   -9.4942    4.5358   -8.4018 C   0  0  0  0  0  0  0  0  0  0  0  0
   -9.2913    3.6560   -9.4819 C   0  0  0  0  0  0  0  0  0  0  0  0
   -9.7317    2.3242   -9.4592 O   0  0  0  0  0  0  0  0  0  0  0  0
  -10.4187    1.7230   -8.3665 C   0  0  0  0  0  0  0  0  0  0  0  0
   -8.6267    4.1171  -10.6258 C   0  0  0  0  0  0  0  0  0  0  0  0
   -8.7659    6.0379  -15.3607 H   0  0  0  0  0  0  0  0  0  0  0  0
   -8.4722    6.9521  -16.8678 H   0  0  0  0  0  0  0  0  0  0  0  0
  -10.2639    5.5167  -17.4248 H   0  0  0  0  0  0  0  0  0  0  0  0
   -9.6316    4.1531  -16.4532 H   0  0  0  0  0  0  0  0  0  0  0  0
   -8.3911    3.3053  -18.1864 H   0  0  0  0  0  0  0  0  0  0  0  0
   -9.4632    4.3028  -19.2192 H   0  0  0  0  0  0  0  0  0  0  0  0
   -7.8077    6.1626  -19.1813 H   0  0  0  0  0  0  0  0  0  0  0  0
   -7.0698    4.6447  -19.8027 H   0  0  0  0  0  0  0  0  0  0  0  0
   -5.9320    4.1831  -17.7521 H   0  0  0  0  0  0  0  0  0  0  0  0
   -4.5165    6.1957  -17.3986 H   0  0  0  0  0  0  0  0  0  0  0  0
   -4.9098    6.0087  -19.1432 H   0  0  0  0  0  0  0  0  0  0  0  0
   -5.7787    7.2456  -18.1485 H   0  0  0  0  0  0  0  0  0  0  0  0
   -5.5109    6.3932  -13.5640 H   0  0  0  0  0  0  0  0  0  0  0  0
   -7.0586    6.9942  -14.2142 H   0  0  0  0  0  0  0  0  0  0  0  0
   -8.1657    4.8223  -13.4424 H   0  0  0  0  0  0  0  0  0  0  0  0
   -6.5743    4.3187  -12.7369 H   0  0  0  0  0  0  0  0  0  0  0  0
   -8.0236    7.3284   -9.6633 H   0  0  0  0  0  0  0  0  0  0  0  0
   -9.1942    6.5264   -7.6412 H   0  0  0  0  0  0  0  0  0  0  0  0
  -10.0034    4.2120   -7.5045 H   0  0  0  0  0  0  0  0  0  0  0  0
  -11.3736    2.2569   -8.1757 H   0  0  0  0  0  0  0  0  0  0  0  0
   -9.7812    1.7425   -7.4574 H   0  0  0  0  0  0  0  0  0  0  0  0
  -10.6463    0.6670   -8.6182 H   0  0  0  0  0  0  0  0  0  0  0  0
   -8.4767    3.4315  -11.4488 H   0  0  0  0  0  0  0  0  0  0  0  0
  1  2  1  0
  2  3  1  0
  3  4  1  0
  4  5  1  0
  5  6  1  0
  6  7  1  0
  1  8  1  0
  8  9  2  0
  8 10  1  0
 10 11  1  0
 11 12  1  0
 12 13  1  0
 13 14  2  0
 14 15  1  0
 15 16  2  0
 16 17  1  0
 17 18  1  0
 18 19  1  0
 17 20  2  0
  6  1  1  0
 20 13  1  0
  2 21  1  0
  2 22  1  0
  3 23  1  0
  3 24  1  0
  4 25  1  0
  4 26  1  0
  5 27  1  0
  5 28  1  0
  6 29  1  0
  7 30  1  0
  7 31  1  0
  7 32  1  0
 10 33  1  0
 10 34  1  0
 11 35  1  0
 11 36  1  0
 14 37  1  0
 15 38  1  0
 16 39  1  0
 19 40  1  0
 19 41  1  0
 19 42  1  0
 20 43  1  0
A    1
 N1 
A    2
 C1 
A    3
 C2 
A    4
 C3 
A    5
 C4 
A    6
 C5 
A    7
 C6 
A    8
 C7 
A    9
 O1 
A   10
 C8 
A   11
 C9 
A   12
 O2 
A   13
 C10
A   14
 C11
A   15
 C12
A   16
 C13
A   17
 C14
A   18
 O3 
A   19
 C15
A   20
 C16
A   21
 H1 
A   22
 H2 
A   23
 H3 
A   24
 H4 
A   25
 H5 
A   26
 H6 
A   27
 H7 
A   28
 H8 
A   29
 H9 
A   30
 H10
A   31
 H11
A   32
 H12
A   33
 H13
A   34
 H14
A   35
 H15
A   36
 H16
A   37
 H17
A   38
 H18
A   39
 H19
A   40
 H20
A   41
 H21
A   42
 H22
A   43
 H23
M  END
>  <ref_pdb>  (271) 
x0051_0B

>  <ref_mols>  (271) 
x0605_0B,x0969_1B

>  <original SMILES>  (271) 
[H]c1c([H])c(OC([H])([H])[H])c([H])c(OC([H])([H])C([H])([H])C(=O)N2C([H])([H])C([H])([H])C([H])([H])C([H])([H])C2([H])C([H])([H])[H])c1[H]

>  <index>  (271) 
261

>  <∆∆G>  (271) 
-6.909577

>  <∆G_bound>  (271) 
-6.499512

>  <∆G_unbound>  (271) 
0.410065

>  <comRMSD>  (271) 
0.74727

>  <N_constrained_atoms>  (271) 
19.0

>  <N_unconstrained_atoms>  (271) 
4.0

>  <runtime>  (271) 
64.616511

>  <LE>  (271) 
0.300416

>  <percent_hybrid>  (271) 
48.0

>  <dist>  (271) 
9.0

>  <ecfp4>  (271) 
0.164557

>  <daylight>  (271) 
0.111588

>  <topodist>  (271) 
2.0

>  <mces>  (271) 
21.0

>  <tdn>  (271) 
0.0

>  <tup>  (271) 
0.0

>  <rdn>  (271) 
1.0

>  <rup>  (271) 
0.0

>  <ldn>  (271) 
1.0

>  <lup>  (271) 
0.0

>  <mut>  (271) 
6.0

>  <maj>  (271) 
6.0

>  <min>  (271) 
0.0

>  <hyb>  (271) 
1.0

>  <sub>  (271) 
0.0

>  <query_index>  (271) 
307.0

>  <max_hit_Tanimoto>  (271) 
0.133333

>  <largest_ring>  (271) 
6

>  <N_interactions_kept>  (271) 
2.5

>  <N_interactions_lost>  (271) 
0.5

>  <interaction_uniqueness_metric>  (271) 
0.155753

>  <ad_hoc_penalty>  (271) 
-22.349395

>  <N_rotatable_bonds>  (271) 
7

>  <N_HA>  (271) 
20

>  <cluster>  (271) 
5979

>  <N_interactions>  (271) 
6

>  <Enamine>  (271) 
0

>  <Mcule>  (271) 
1

>  <N_PAINS>  (271) 
0

>  <UFF_Gibbs>  (271) 
170.838001

>  <strain_per_HA>  (271) 
7.427739

>  <saltbridge:HIS:51>  (271) 
0

>  <pistack:HIS:51>  (271) 
1

>  <hydroph_interaction:HIS:51>  (271) 
1

>  <hbond:ALA:132>  (271) 
0

>  <hbond:SER:135>  (271) 
0

>  <hydroph_interaction:TYR:150>  (271) 
0

>  <pistack:TYR:161>  (271) 
0

>  <hydroph_interaction:TYR:161>  (271) 
3

>  <hydroph_interaction:ASP:83>  (271) 
0

>  <hbond:TYR:130>  (271) 
0

>  <hydroph_interaction:ALA:132>  (271) 
0

>  <hbond:HIS:51>  (271) 
1

>  <hbond:ASP:129>  (271) 
0

>  <hbond:TYR:150>  (271) 
0

>  <hbond:GLY:151>  (271) 
0

>  <hbond:TYR:161>  (271) 
0

>  <hydroph_interaction:TYR:130>  (271) 
0

>  <hydroph_interaction:PRO:131>  (271) 
0

>  <hydroph_interaction:ASP:129>  (271) 
0

>  <saltbridge:ASP:75>  (271) 
0

>  <saltbridge:ASP:83>  (271) 
0

>  <hydroph_interaction:ASN:152>  (271) 
0

>  <halogenbond:TYR:150>  (271) 
0

>  <hbond:ASP:83>  (271) 
0

>  <hydroph_interaction:VAL:155>  (271) 
0

>  <pication:TYR:161>  (271) 
0

>  <hbond:PRO:131>  (271) 
0

>  <hbond:LEU:128>  (271) 
0

>  <saltbridge:ASP:129>  (271) 
0

>  <hbond:THR:134>  (271) 
0

>  <pication:HIS:51>  (271) 
0

>  <hbond:SER:81>  (271) 
0

>  <hbond:GLY:159>  (271) 
0

>  <hydroph_interaction:PRO:101>  (271) 
0

>  <hydroph_interaction:THR:134>  (271) 
0

>  <hbond:GLY:82>  (271) 
0

>  <hydroph_interaction:GLU:104>  (271) 
0

>  <hydroph_interaction:VAL:36>  (271) 
0

>  <hydroph_interaction:MET:49>  (271) 
0

>  <halogenbond:GLU:104>  (271) 
0

>  <hydroph_interaction:LYS:107>  (271) 
0

$$$$
CSSB00013921274
     RDKit          3D

 18 19  0  0  0  0  0  0  0  0999 V2000
   -9.9773    5.3981  -14.5498 I   0  0  0  0  0  0  0  0  0  0  0  0
   -9.0847    5.2228  -16.4467 C   0  0  0  0  0  0  0  0  0  0  0  0
   -7.7618    5.3660  -16.6625 N   0  0  0  0  0  0  0  0  0  0  0  0
   -7.6366    5.1763  -17.9917 C   0  0  0  0  0  0  0  0  0  0  0  0
   -8.8859    4.9262  -18.5282 C   0  0  0  0  0  0  0  0  0  0  0  0
   -9.7519    4.9629  -17.5470 O   0  0  0  0  0  0  0  0  0  0  0  0
   -6.3428    5.2368  -18.7151 C   0  0  0  0  0  0  0  0  0  0  0  0
   -5.1558    5.5052  -18.0074 C   0  0  0  0  0  0  0  0  0  0  0  0
   -3.9290    5.5653  -18.6756 C   0  0  0  0  0  0  0  0  0  0  0  0
   -3.8716    5.3587  -20.0552 C   0  0  0  0  0  0  0  0  0  0  0  0
   -5.0412    5.0916  -20.7695 C   0  0  0  0  0  0  0  0  0  0  0  0
   -6.2712    5.0303  -20.1068 C   0  0  0  0  0  0  0  0  0  0  0  0
   -9.1408    4.7319  -19.5605 H   0  0  0  0  0  0  0  0  0  0  0  0
   -5.1743    5.6689  -16.9372 H   0  0  0  0  0  0  0  0  0  0  0  0
   -3.0219    5.7723  -18.1226 H   0  0  0  0  0  0  0  0  0  0  0  0
   -2.9210    5.4056  -20.5706 H   0  0  0  0  0  0  0  0  0  0  0  0
   -4.9952    4.9317  -21.8391 H   0  0  0  0  0  0  0  0  0  0  0  0
   -7.1580    4.8215  -20.6885 H   0  0  0  0  0  0  0  0  0  0  0  0
  1  2  1  0
  2  3  2  0
  3  4  1  0
  4  5  2  0
  5  6  1  0
  4  7  1  0
  7  8  2  0
  8  9  1  0
  9 10  2  0
 10 11  1  0
 11 12  2  0
  6  2  1  0
 12  7  1  0
  5 13  1  0
  8 14  1  0
  9 15  1  0
 10 16  1  0
 11 17  1  0
 12 18  1  0
A    1
 I1 
A    2
 C1 
A    3
 N1 
A    4
 C2 
A    5
 C3 
A    6
 O1 
A    7
 C4 
A    8
 C5 
A    9
 C6 
A   10
 C7 
A   11
 C8 
A   12
 C9 
A   13
 H1 
A   14
 H2 
A   15
 H3 
A   16
 H4 
A   17
 H5 
A   18
 H6 
M  END
>  <ref_pdb>  (272) 
x0051_0B

>  <ref_mols>  (272) 
x0680_0B,x0386_0B

>  <original SMILES>  (272) 
[H]c1oc(I)nc1-c1c([H])c([H])c([H])c([H])c1[H]

>  <index>  (272) 
470

>  <∆∆G>  (272) 
-5.065631

>  <∆G_bound>  (272) 
-5.024235

>  <∆G_unbound>  (272) 
0.041395

>  <comRMSD>  (272) 
0.804919

>  <N_constrained_atoms>  (272) 
12.0

>  <N_unconstrained_atoms>  (272) 
1.0

>  <runtime>  (272) 
29.884859

>  <LE>  (272) 
0.389664

>  <percent_hybrid>  (272) 
17.0

>  <dist>  (272) 
3.0

>  <ecfp4>  (272) 
0.183673

>  <daylight>  (272) 
0.467213

>  <topodist>  (272) 
2.0

>  <mces>  (272) 
12.0

>  <tdn>  (272) 
1.0

>  <tup>  (272) 
1.0

>  <rdn>  (272) 
0.0

>  <rup>  (272) 
0.0

>  <ldn>  (272) 
0.0

>  <lup>  (272) 
0.0

>  <mut>  (272) 
1.0

>  <maj>  (272) 
1.0

>  <min>  (272) 
0.0

>  <hyb>  (272) 
0.0

>  <sub>  (272) 
2.0

>  <query_index>  (272) 
296.0

>  <max_hit_Tanimoto>  (272) 
0.121372

>  <largest_ring>  (272) 
6

>  <N_interactions_kept>  (272) 
3.5

>  <N_interactions_lost>  (272) 
0.5

>  <interaction_uniqueness_metric>  (272) 
0.016266

>  <ad_hoc_penalty>  (272) 
-22.316986

>  <N_rotatable_bonds>  (272) 
1

>  <N_HA>  (272) 
12

>  <cluster>  (272) 
5791

>  <N_interactions>  (272) 
3

>  <Enamine>  (272) 
1

>  <Mcule>  (272) 
0

>  <N_PAINS>  (272) 
0

>  <UFF_Gibbs>  (272) 
28.945695

>  <strain_per_HA>  (272) 
2.226592

>  <saltbridge:HIS:51>  (272) 
0

>  <pistack:HIS:51>  (272) 
0

>  <hydroph_interaction:HIS:51>  (272) 
0

>  <hbond:ALA:132>  (272) 
0

>  <hbond:SER:135>  (272) 
0

>  <hydroph_interaction:TYR:150>  (272) 
0

>  <pistack:TYR:161>  (272) 
0

>  <hydroph_interaction:TYR:161>  (272) 
3

>  <hydroph_interaction:ASP:83>  (272) 
0

>  <hbond:TYR:130>  (272) 
0

>  <hydroph_interaction:ALA:132>  (272) 
0

>  <hbond:HIS:51>  (272) 
0

>  <hbond:ASP:129>  (272) 
0

>  <hbond:TYR:150>  (272) 
0

>  <hbond:GLY:151>  (272) 
0

>  <hbond:TYR:161>  (272) 
0

>  <hydroph_interaction:TYR:130>  (272) 
0

>  <hydroph_interaction:PRO:131>  (272) 
0

>  <hydroph_interaction:ASP:129>  (272) 
0

>  <saltbridge:ASP:75>  (272) 
0

>  <saltbridge:ASP:83>  (272) 
0

>  <hydroph_interaction:ASN:152>  (272) 
0

>  <halogenbond:TYR:150>  (272) 
0

>  <hbond:ASP:83>  (272) 
0

>  <hydroph_interaction:VAL:155>  (272) 
0

>  <pication:TYR:161>  (272) 
0

>  <hbond:PRO:131>  (272) 
0

>  <hbond:LEU:128>  (272) 
0

>  <saltbridge:ASP:129>  (272) 
0

>  <hbond:THR:134>  (272) 
0

>  <pication:HIS:51>  (272) 
0

>  <hbond:SER:81>  (272) 
0

>  <hbond:GLY:159>  (272) 
0

>  <hydroph_interaction:PRO:101>  (272) 
0

>  <hydroph_interaction:THR:134>  (272) 
0

>  <hbond:GLY:82>  (272) 
0

>  <hydroph_interaction:GLU:104>  (272) 
0

>  <hydroph_interaction:VAL:36>  (272) 
0

>  <hydroph_interaction:MET:49>  (272) 
0

>  <halogenbond:GLU:104>  (272) 
0

>  <hydroph_interaction:LYS:107>  (272) 
0

$$$$
MCULE-5325814666
     RDKit          3D

 27 28  0  0  0  0  0  0  0  0999 V2000
   -6.6829    6.0285  -19.5998 N   0  0  0  0  0  0  0  0  0  0  0  0
   -7.9092    5.5105  -19.6585 N   0  0  0  0  0  0  0  0  0  0  0  0
   -8.2705    5.2848  -18.3825 C   0  0  0  0  0  0  0  0  0  0  0  0
   -7.2577    5.6708  -17.5602 C   0  0  0  0  0  0  0  0  0  0  0  0
   -7.3401    5.5545  -16.1724 C   0  0  0  0  0  0  0  0  0  0  0  0
   -8.5264    5.0120  -15.6408 C   0  0  0  0  0  0  0  0  0  0  0  0
   -9.5797    4.6099  -16.4974 C   0  0  0  0  0  0  0  0  0  0  0  0
   -9.4568    4.7460  -17.8945 C   0  0  0  0  0  0  0  0  0  0  0  0
   -6.2666    6.1325  -18.3408 N   0  0  0  0  0  0  0  0  0  0  0  0
   -4.9594    6.6550  -17.9399 C   0  0  0  0  0  0  0  0  0  0  0  0
   -3.8588    5.5740  -17.9726 C   0  0  0  0  0  0  0  0  0  0  0  0
   -3.5627    5.0887  -19.4007 C   0  0  0  0  0  0  0  0  0  0  0  0
   -4.1501    4.4428  -17.0063 C   0  0  0  0  0  0  0  0  0  0  0  0
   -3.8390    4.6108  -15.6217 N   0  0  0  0  0  0  0  0  0  0  0  0
   -4.9650    3.0942  -17.4752 S   0  0  0  0  0  0  0  0  0  0  0  0
   -6.5301    5.8604  -15.5244 H   0  0  0  0  0  0  0  0  0  0  0  0
   -8.6328    4.9011  -14.5696 H   0  0  0  0  0  0  0  0  0  0  0  0
  -10.4859    4.1943  -16.0763 H   0  0  0  0  0  0  0  0  0  0  0  0
  -10.2532    4.4418  -18.5610 H   0  0  0  0  0  0  0  0  0  0  0  0
   -4.6779    7.4884  -18.6198 H   0  0  0  0  0  0  0  0  0  0  0  0
   -5.0227    7.0905  -16.9194 H   0  0  0  0  0  0  0  0  0  0  0  0
   -2.9244    6.0653  -17.6214 H   0  0  0  0  0  0  0  0  0  0  0  0
   -3.2697    5.9474  -20.0416 H   0  0  0  0  0  0  0  0  0  0  0  0
   -4.4466    4.5955  -19.8553 H   0  0  0  0  0  0  0  0  0  0  0  0
   -2.7201    4.3647  -19.3871 H   0  0  0  0  0  0  0  0  0  0  0  0
   -3.3809    5.4852  -15.2814 H   0  0  0  0  0  0  0  0  0  0  0  0
   -4.0750    3.8673  -14.9274 H   0  0  0  0  0  0  0  0  0  0  0  0
  1  2  2  0
  2  3  1  0
  3  4  2  0
  4  5  1  0
  5  6  2  0
  6  7  1  0
  7  8  2  0
  4  9  1  0
  9 10  1  0
 10 11  1  0
 11 12  1  0
 11 13  1  0
 13 14  1  0
 13 15  2  0
  9  1  1  0
  3  8  1  0
  5 16  1  0
  6 17  1  0
  7 18  1  0
  8 19  1  0
 10 20  1  0
 10 21  1  0
 11 22  1  0
 12 23  1  0
 12 24  1  0
 12 25  1  0
 14 26  1  0
 14 27  1  0
A    1
 N1 
A    2
 N2 
A    3
 C1 
A    4
 C2 
A    5
 C3 
A    6
 C4 
A    7
 C5 
A    8
 C6 
A    9
 N3 
A   10
 C7 
A   11
 C8 
A   12
 C9 
A   13
 C10
A   14
 N4 
A   15
 S1 
A   16
 H1 
A   17
 H2 
A   18
 H3 
A   19
 H4 
A   20
 H5 
A   21
 H6 
A   22
 H7 
A   23
 H8 
A   24
 H9 
A   25
 H10
A   26
 H11
A   27
 H12
M  END
>  <ref_pdb>  (273) 
x0051_0B

>  <ref_mols>  (273) 
x0490_0B,x0472_0B

>  <original SMILES>  (273) 
[H]c1c([H])c([H])c2c(nnn2C([H])([H])C([H])(C(=S)N([H])[H])C([H])([H])[H])c1[H]

>  <index>  (273) 
210

>  <∆∆G>  (273) 
-7.633509

>  <∆G_bound>  (273) 
-6.562515

>  <∆G_unbound>  (273) 
1.070994

>  <comRMSD>  (273) 
0.732755

>  <N_constrained_atoms>  (273) 
16.0

>  <N_unconstrained_atoms>  (273) 
1.0

>  <runtime>  (273) 
22.824455

>  <LE>  (273) 
0.44903

>  <percent_hybrid>  (273) 
38.0

>  <dist>  (273) 
3.0

>  <ecfp4>  (273) 
0.314815

>  <daylight>  (273) 
0.352941

>  <topodist>  (273) 
1.0

>  <mces>  (273) 
15.0

>  <tdn>  (273) 
0.0

>  <tup>  (273) 
1.0

>  <rdn>  (273) 
0.0

>  <rup>  (273) 
0.0

>  <ldn>  (273) 
0.0

>  <lup>  (273) 
0.0

>  <mut>  (273) 
1.0

>  <maj>  (273) 
1.0

>  <min>  (273) 
0.0

>  <hyb>  (273) 
1.0

>  <sub>  (273) 
0.0

>  <query_index>  (273) 
228.0

>  <max_hit_Tanimoto>  (273) 
0.262987

>  <largest_ring>  (273) 
6

>  <N_interactions_kept>  (273) 
3.0

>  <N_interactions_lost>  (273) 
1.0

>  <interaction_uniqueness_metric>  (273) 
0.053763

>  <ad_hoc_penalty>  (273) 
-22.300848

>  <N_rotatable_bonds>  (273) 
4

>  <N_HA>  (273) 
15

>  <cluster>  (273) 
6027

>  <N_interactions>  (273) 
5

>  <Enamine>  (273) 
0

>  <Mcule>  (273) 
1

>  <N_PAINS>  (273) 
0

>  <UFF_Gibbs>  (273) 
129.844691

>  <strain_per_HA>  (273) 
7.637923

>  <saltbridge:HIS:51>  (273) 
0

>  <pistack:HIS:51>  (273) 
0

>  <hydroph_interaction:HIS:51>  (273) 
0

>  <hbond:ALA:132>  (273) 
0

>  <hbond:SER:135>  (273) 
0

>  <hydroph_interaction:TYR:150>  (273) 
1

>  <pistack:TYR:161>  (273) 
0

>  <hydroph_interaction:TYR:161>  (273) 
3

>  <hydroph_interaction:ASP:83>  (273) 
0

>  <hbond:TYR:130>  (273) 
0

>  <hydroph_interaction:ALA:132>  (273) 
1

>  <hbond:HIS:51>  (273) 
0

>  <hbond:ASP:129>  (273) 
0

>  <hbond:TYR:150>  (273) 
0

>  <hbond:GLY:151>  (273) 
0

>  <hbond:TYR:161>  (273) 
0

>  <hydroph_interaction:TYR:130>  (273) 
0

>  <hydroph_interaction:PRO:131>  (273) 
0

>  <hydroph_interaction:ASP:129>  (273) 
0

>  <saltbridge:ASP:75>  (273) 
0

>  <saltbridge:ASP:83>  (273) 
0

>  <hydroph_interaction:ASN:152>  (273) 
0

>  <halogenbond:TYR:150>  (273) 
0

>  <hbond:ASP:83>  (273) 
0

>  <hydroph_interaction:VAL:155>  (273) 
0

>  <pication:TYR:161>  (273) 
0

>  <hbond:PRO:131>  (273) 
0

>  <hbond:LEU:128>  (273) 
0

>  <saltbridge:ASP:129>  (273) 
0

>  <hbond:THR:134>  (273) 
0

>  <pication:HIS:51>  (273) 
0

>  <hbond:SER:81>  (273) 
0

>  <hbond:GLY:159>  (273) 
0

>  <hydroph_interaction:PRO:101>  (273) 
0

>  <hydroph_interaction:THR:134>  (273) 
0

>  <hbond:GLY:82>  (273) 
0

>  <hydroph_interaction:GLU:104>  (273) 
0

>  <hydroph_interaction:VAL:36>  (273) 
0

>  <hydroph_interaction:MET:49>  (273) 
0

>  <halogenbond:GLU:104>  (273) 
0

>  <hydroph_interaction:LYS:107>  (273) 
0

$$$$
nan
     RDKit          3D

 55 57  0  0  0  0  0  0  0  0999 V2000
   -4.8786    7.7823  -20.6700 C   0  0  0  0  0  0  0  0  0  0  0  0
   -4.9213    6.6133  -19.6640 C   0  0  0  0  0  0  0  0  0  0  0  0
   -4.1671    7.0395  -18.3894 C   0  0  0  0  0  0  0  0  0  0  0  0
   -4.2403    5.3893  -20.3079 C   0  0  0  0  0  0  0  0  0  0  0  0
   -6.3292    6.3055  -19.3447 N   0  0  0  0  0  0  0  0  0  0  0  0
   -6.7670    5.2457  -18.4733 C   0  0  0  0  0  0  0  0  0  0  0  0
   -5.9307    4.5719  -17.8138 O   0  0  0  0  0  0  0  0  0  0  0  0
   -8.2092    4.9258  -18.3577 C   0  0  0  0  0  0  0  0  0  0  0  0
   -8.9781    4.8635  -19.5335 C   0  0  0  0  0  0  0  0  0  0  0  0
  -10.3208    4.4853  -19.4873 C   0  0  0  0  0  0  0  0  0  0  0  0
  -10.9139    4.1611  -18.2695 C   0  0  0  0  0  0  0  0  0  0  0  0
  -10.1709    4.2251  -17.0897 C   0  0  0  0  0  0  0  0  0  0  0  0
   -8.8188    4.6140  -17.1123 C   0  0  0  0  0  0  0  0  0  0  0  0
   -8.1004    4.7554  -15.8231 C   0  0  0  0  0  0  0  0  0  0  0  0
   -7.3232    5.7329  -15.6438 O   0  0  0  0  0  0  0  0  0  0  0  0
   -8.3022    3.7995  -14.7711 N   0  0  0  0  0  0  0  0  0  0  0  0
   -7.7272    3.9668  -13.4384 C   0  0  0  0  0  0  0  0  0  0  0  0
   -8.4992    5.0304  -12.6558 C   0  0  0  0  0  0  0  0  0  0  0  0
   -7.9175    5.2063  -11.2861 C   0  0  0  0  0  0  0  0  0  0  0  0
   -8.1632    4.4567  -10.1536 C   0  0  0  0  0  0  0  0  0  0  0  0
   -9.1740    3.3630   -9.9659 C   0  0  0  0  0  0  0  0  0  0  0  0
   -8.8789    2.5789   -8.6776 C   0  0  0  0  0  0  0  0  0  0  0  0
   -8.5693    3.5235   -7.5032 C   0  0  0  0  0  0  0  0  0  0  0  0
   -7.3320    4.3848   -7.8043 C   0  0  0  0  0  0  0  0  0  0  0  0
   -7.4078    4.9440   -9.1525 N   0  0  0  0  0  0  0  0  0  0  0  0
   -6.6507    5.9350   -9.5980 N   0  0  0  0  0  0  0  0  0  0  0  0
   -6.9456    6.1165  -10.9026 C   0  0  0  0  0  0  0  0  0  0  0  0
   -3.8325    8.0183  -20.9627 H   0  0  0  0  0  0  0  0  0  0  0  0
   -5.3312    8.6946  -20.2237 H   0  0  0  0  0  0  0  0  0  0  0  0
   -5.4505    7.5270  -21.5894 H   0  0  0  0  0  0  0  0  0  0  0  0
   -4.7080    7.8677  -17.8824 H   0  0  0  0  0  0  0  0  0  0  0  0
   -3.1420    7.3892  -18.6396 H   0  0  0  0  0  0  0  0  0  0  0  0
   -4.0657    6.1988  -17.6740 H   0  0  0  0  0  0  0  0  0  0  0  0
   -4.8206    5.0519  -21.1942 H   0  0  0  0  0  0  0  0  0  0  0  0
   -4.1687    4.5409  -19.5966 H   0  0  0  0  0  0  0  0  0  0  0  0
   -3.2078    5.6417  -20.6355 H   0  0  0  0  0  0  0  0  0  0  0  0
   -7.0763    6.9008  -19.7721 H   0  0  0  0  0  0  0  0  0  0  0  0
   -8.5312    5.0785  -20.4975 H   0  0  0  0  0  0  0  0  0  0  0  0
  -10.8998    4.4336  -20.4001 H   0  0  0  0  0  0  0  0  0  0  0  0
  -11.9554    3.8680  -18.2370 H   0  0  0  0  0  0  0  0  0  0  0  0
  -10.6642    3.9991  -16.1525 H   0  0  0  0  0  0  0  0  0  0  0  0
   -8.8199    2.9155  -14.9779 H   0  0  0  0  0  0  0  0  0  0  0  0
   -7.7881    2.9990  -12.8966 H   0  0  0  0  0  0  0  0  0  0  0  0
   -6.6534    4.2402  -13.5230 H   0  0  0  0  0  0  0  0  0  0  0  0
   -9.5654    4.7270  -12.5681 H   0  0  0  0  0  0  0  0  0  0  0  0
   -8.4642    6.0014  -13.1949 H   0  0  0  0  0  0  0  0  0  0  0  0
  -10.1861    3.8201   -9.8996 H   0  0  0  0  0  0  0  0  0  0  0  0
   -9.1533    2.6701  -10.8348 H   0  0  0  0  0  0  0  0  0  0  0  0
   -8.0102    1.9039   -8.8457 H   0  0  0  0  0  0  0  0  0  0  0  0
   -9.7581    1.9482   -8.4234 H   0  0  0  0  0  0  0  0  0  0  0  0
   -8.3893    2.9279   -6.5828 H   0  0  0  0  0  0  0  0  0  0  0  0
   -9.4453    4.1842   -7.3206 H   0  0  0  0  0  0  0  0  0  0  0  0
   -6.4170    3.7592   -7.7252 H   0  0  0  0  0  0  0  0  0  0  0  0
   -7.2625    5.2074   -7.0602 H   0  0  0  0  0  0  0  0  0  0  0  0
   -6.4804    6.8617  -11.5350 H   0  0  0  0  0  0  0  0  0  0  0  0
  1  2  1  0
  2  3  1  0
  2  4  1  0
  2  5  1  0
  5  6  1  0
  6  7  2  0
  6  8  1  0
  8  9  2  0
  9 10  1  0
 10 11  2  0
 11 12  1  0
 12 13  2  0
 13 14  1  0
 14 15  2  0
 14 16  1  0
 16 17  1  0
 17 18  1  0
 18 19  1  0
 19 20  2  0
 20 21  1  0
 21 22  1  0
 22 23  1  0
 23 24  1  0
 24 25  1  0
 25 26  1  0
 26 27  2  0
 13  8  1  0
 27 19  1  0
 25 20  1  0
  1 28  1  0
  1 29  1  0
  1 30  1  0
  3 31  1  0
  3 32  1  0
  3 33  1  0
  4 34  1  0
  4 35  1  0
  4 36  1  0
  5 37  1  0
  9 38  1  0
 10 39  1  0
 11 40  1  0
 12 41  1  0
 16 42  1  0
 17 43  1  0
 17 44  1  0
 18 45  1  0
 18 46  1  0
 21 47  1  0
 21 48  1  0
 22 49  1  0
 22 50  1  0
 23 51  1  0
 23 52  1  0
 24 53  1  0
 24 54  1  0
 27 55  1  0
A    1
 C1 
A    2
 C2 
A    3
 C3 
A    4
 C4 
A    5
 N1 
A    6
 C5 
A    7
 O1 
A    8
 C6 
A    9
 C7 
A   10
 C8 
A   11
 C9 
A   12
 C10
A   13
 C11
A   14
 C12
A   15
 O2 
A   16
 N2 
A   17
 C13
A   18
 C14
A   19
 C15
A   20
 C16
A   21
 C17
A   22
 C18
A   23
 C19
A   24
 C20
A   25
 N3 
A   26
 N4 
A   27
 C21
A   28
 H1 
A   29
 H2 
A   30
 H3 
A   31
 H4 
A   32
 H5 
A   33
 H6 
A   34
 H7 
A   35
 H8 
A   36
 H9 
A   37
 H10
A   38
 H11
A   39
 H12
A   40
 H13
A   41
 H14
A   42
 H15
A   43
 H16
A   44
 H17
A   45
 H18
A   46
 H19
A   47
 H20
A   48
 H21
A   49
 H22
A   50
 H23
A   51
 H24
A   52
 H25
A   53
 H26
A   54
 H27
A   55
 H28
M  END
>  <ref_pdb>  (274) 
x0051_0B

>  <ref_mols>  (274) 
x0101_0B,x0969_1B,x0693_0B

>  <original SMILES>  (274) 
[H]c1nn2c(c1C([H])([H])C([H])([H])N([H])C(=O)c1c([H])c([H])c([H])c([H])c1C(=O)N([H])C(C([H])([H])[H])(C([H])([H])[H])C([H])([H])[H])C([H])([H])C([H])([H])C([H])([H])C2([H])[H]

>  <index>  (274) 
22930

>  <∆∆G>  (274) 
-10.875054

>  <∆G_bound>  (274) 
-9.13663

>  <∆G_unbound>  (274) 
1.738424

>  <comRMSD>  (274) 
0.462374

>  <N_constrained_atoms>  (274) 
27.0

>  <N_unconstrained_atoms>  (274) 
3.0

>  <runtime>  (274) 
63.567978

>  <LE>  (274) 
0.362502

>  <percent_hybrid>  (274) 
50.0

>  <dist>  (274) 
nan

>  <ecfp4>  (274) 
nan

>  <daylight>  (274) 
nan

>  <topodist>  (274) 
nan

>  <mces>  (274) 
nan

>  <tdn>  (274) 
nan

>  <tup>  (274) 
nan

>  <rdn>  (274) 
nan

>  <rup>  (274) 
nan

>  <ldn>  (274) 
nan

>  <lup>  (274) 
nan

>  <mut>  (274) 
nan

>  <maj>  (274) 
nan

>  <min>  (274) 
nan

>  <hyb>  (274) 
nan

>  <sub>  (274) 
nan

>  <query_index>  (274) 
nan

>  <max_hit_Tanimoto>  (274) 
0.340886

>  <largest_ring>  (274) 
6

>  <N_interactions_kept>  (274) 
4.0

>  <N_interactions_lost>  (274) 
3.0

>  <interaction_uniqueness_metric>  (274) 
0.244555

>  <ad_hoc_penalty>  (274) 
-22.287695

>  <N_rotatable_bonds>  (274) 
5

>  <N_HA>  (274) 
27

>  <cluster>  (274) 
1402

>  <N_interactions>  (274) 
7

>  <Enamine>  (274) 
0

>  <Mcule>  (274) 
0

>  <N_PAINS>  (274) 
0

>  <UFF_Gibbs>  (274) 
284.083749

>  <strain_per_HA>  (274) 
9.469458

>  <saltbridge:HIS:51>  (274) 
0

>  <pistack:HIS:51>  (274) 
1

>  <hydroph_interaction:HIS:51>  (274) 
0

>  <hbond:ALA:132>  (274) 
0

>  <hbond:SER:135>  (274) 
0

>  <hydroph_interaction:TYR:150>  (274) 
1

>  <pistack:TYR:161>  (274) 
1

>  <hydroph_interaction:TYR:161>  (274) 
0

>  <hydroph_interaction:ASP:83>  (274) 
1

>  <hbond:TYR:130>  (274) 
1

>  <hydroph_interaction:ALA:132>  (274) 
0

>  <hbond:HIS:51>  (274) 
0

>  <hbond:ASP:129>  (274) 
0

>  <hbond:TYR:150>  (274) 
0

>  <hbond:GLY:151>  (274) 
0

>  <hbond:TYR:161>  (274) 
1

>  <hydroph_interaction:TYR:130>  (274) 
0

>  <hydroph_interaction:PRO:131>  (274) 
0

>  <hydroph_interaction:ASP:129>  (274) 
1

>  <saltbridge:ASP:75>  (274) 
0

>  <saltbridge:ASP:83>  (274) 
0

>  <hydroph_interaction:ASN:152>  (274) 
0

>  <halogenbond:TYR:150>  (274) 
0

>  <hbond:ASP:83>  (274) 
0

>  <hydroph_interaction:VAL:155>  (274) 
0

>  <pication:TYR:161>  (274) 
0

>  <hbond:PRO:131>  (274) 
0

>  <hbond:LEU:128>  (274) 
0

>  <saltbridge:ASP:129>  (274) 
0

>  <hbond:THR:134>  (274) 
0

>  <pication:HIS:51>  (274) 
0

>  <hbond:SER:81>  (274) 
0

>  <hbond:GLY:159>  (274) 
0

>  <hydroph_interaction:PRO:101>  (274) 
0

>  <hydroph_interaction:THR:134>  (274) 
0

>  <hbond:GLY:82>  (274) 
0

>  <hydroph_interaction:GLU:104>  (274) 
0

>  <hydroph_interaction:VAL:36>  (274) 
0

>  <hydroph_interaction:MET:49>  (274) 
0

>  <halogenbond:GLU:104>  (274) 
0

>  <hydroph_interaction:LYS:107>  (274) 
0

$$$$
Z2691844754
     RDKit          3D

 45 48  0  0  0  0  0  0  0  0999 V2000
   -6.4009    5.9385  -11.7343 O   0  0  0  0  0  0  0  0  0  0  0  0
   -7.4260    5.2043  -11.7475 C   0  0  0  0  0  0  0  0  0  0  0  0
   -7.6484    4.3094  -12.8482 N   0  0  0  0  0  0  0  0  0  0  0  0
   -6.6647    4.1138  -13.9136 C   0  0  0  0  0  0  0  0  0  0  0  0
   -6.6390    5.3094  -14.8941 C   0  0  0  0  0  0  0  0  0  0  0  0
   -5.3600    5.2361  -15.7519 C   0  0  0  0  0  0  0  0  0  0  0  0
   -5.3931    6.2778  -16.8684 C   0  0  0  0  0  0  0  0  0  0  0  0
   -6.5399    5.9770  -17.8336 C   0  0  0  0  0  0  0  0  0  0  0  0
   -7.8471    5.7564  -17.1136 C   0  0  0  0  0  0  0  0  0  0  0  0
   -9.0468    5.8524  -17.8331 C   0  0  0  0  0  0  0  0  0  0  0  0
  -10.2663    5.6198  -17.1995 C   0  0  0  0  0  0  0  0  0  0  0  0
  -10.2788    5.2861  -15.8471 C   0  0  0  0  0  0  0  0  0  0  0  0
   -9.1108    5.1801  -15.1627 N   0  0  0  0  0  0  0  0  0  0  0  0
   -7.8962    5.3736  -15.7509 C   0  0  0  0  0  0  0  0  0  0  0  0
   -8.3910    5.3142  -10.6356 C   0  0  0  0  0  0  0  0  0  0  0  0
   -9.2661    4.3704  -10.1183 C   0  0  0  0  0  0  0  0  0  0  0  0
   -9.5031    2.9550  -10.5646 C   0  0  0  0  0  0  0  0  0  0  0  0
  -10.1867    2.1464   -9.4521 C   0  0  0  0  0  0  0  0  0  0  0  0
  -11.3575    2.9289   -8.8385 C   0  0  0  0  0  0  0  0  0  0  0  0
  -10.8620    4.2356   -8.1999 C   0  0  0  0  0  0  0  0  0  0  0  0
   -9.9282    4.9290   -9.0867 N   0  0  0  0  0  0  0  0  0  0  0  0
   -9.4957    6.1629   -8.8856 N   0  0  0  0  0  0  0  0  0  0  0  0
   -8.5595    6.4230   -9.8205 C   0  0  0  0  0  0  0  0  0  0  0  0
   -8.5374    3.7692  -12.9075 H   0  0  0  0  0  0  0  0  0  0  0  0
   -6.9085    3.1838  -14.4732 H   0  0  0  0  0  0  0  0  0  0  0  0
   -5.6631    3.9648  -13.4529 H   0  0  0  0  0  0  0  0  0  0  0  0
   -6.5912    6.2540  -14.3104 H   0  0  0  0  0  0  0  0  0  0  0  0
   -4.4717    5.4245  -15.1099 H   0  0  0  0  0  0  0  0  0  0  0  0
   -5.2508    4.2221  -16.1984 H   0  0  0  0  0  0  0  0  0  0  0  0
   -5.5199    7.2943  -16.4345 H   0  0  0  0  0  0  0  0  0  0  0  0
   -4.4307    6.2571  -17.4240 H   0  0  0  0  0  0  0  0  0  0  0  0
   -6.6368    6.8255  -18.5455 H   0  0  0  0  0  0  0  0  0  0  0  0
   -6.2985    5.0633  -18.4191 H   0  0  0  0  0  0  0  0  0  0  0  0
   -9.0365    6.1108  -18.8849 H   0  0  0  0  0  0  0  0  0  0  0  0
  -11.1939    5.7007  -17.7513 H   0  0  0  0  0  0  0  0  0  0  0  0
  -11.2179    5.1134  -15.3386 H   0  0  0  0  0  0  0  0  0  0  0  0
  -10.1642    2.9666  -11.4573 H   0  0  0  0  0  0  0  0  0  0  0  0
   -8.5389    2.4708  -10.8287 H   0  0  0  0  0  0  0  0  0  0  0  0
   -9.4461    1.9051   -8.6579 H   0  0  0  0  0  0  0  0  0  0  0  0
  -10.5615    1.1883   -9.8723 H   0  0  0  0  0  0  0  0  0  0  0  0
  -11.8580    2.3067   -8.0658 H   0  0  0  0  0  0  0  0  0  0  0  0
  -12.1028    3.1617   -9.6305 H   0  0  0  0  0  0  0  0  0  0  0  0
  -10.3453    4.0046   -7.2433 H   0  0  0  0  0  0  0  0  0  0  0  0
  -11.7294    4.8944   -7.9803 H   0  0  0  0  0  0  0  0  0  0  0  0
   -8.0283    7.3623   -9.9002 H   0  0  0  0  0  0  0  0  0  0  0  0
  1  2  2  0
  2  3  1  0
  3  4  1  0
  4  5  1  0
  5  6  1  0
  6  7  1  0
  7  8  1  0
  8  9  1  0
  9 10  2  0
 10 11  1  0
 11 12  2  0
 12 13  1  0
 13 14  2  0
  2 15  1  0
 15 16  2  0
 16 17  1  0
 17 18  1  0
 18 19  1  0
 19 20  1  0
 20 21  1  0
 21 22  1  0
 22 23  2  0
 14  5  1  0
 14  9  1  0
 23 15  1  0
 21 16  1  0
  3 24  1  0
  4 25  1  0
  4 26  1  0
  5 27  1  0
  6 28  1  0
  6 29  1  0
  7 30  1  0
  7 31  1  0
  8 32  1  0
  8 33  1  0
 10 34  1  0
 11 35  1  0
 12 36  1  0
 17 37  1  0
 17 38  1  0
 18 39  1  0
 18 40  1  0
 19 41  1  0
 19 42  1  0
 20 43  1  0
 20 44  1  0
 23 45  1  0
A    1
 O1 
A    2
 C1 
A    3
 N1 
A    4
 C2 
A    5
 C3 
A    6
 C4 
A    7
 C5 
A    8
 C6 
A    9
 C7 
A   10
 C8 
A   11
 C9 
A   12
 C10
A   13
 N2 
A   14
 C11
A   15
 C12
A   16
 C13
A   17
 C14
A   18
 C15
A   19
 C16
A   20
 C17
A   21
 N3 
A   22
 N4 
A   23
 C18
A   24
 H1 
A   25
 H2 
A   26
 H3 
A   27
 H4 
A   28
 H5 
A   29
 H6 
A   30
 H7 
A   31
 H8 
A   32
 H9 
A   33
 H10
A   34
 H11
A   35
 H12
A   36
 H13
A   37
 H14
A   38
 H15
A   39
 H16
A   40
 H17
A   41
 H18
A   42
 H19
A   43
 H20
A   44
 H21
A   45
 H22
M  END
>  <ref_pdb>  (275) 
x0051_0B

>  <ref_mols>  (275) 
x0969_1B,x0455_0B

>  <original SMILES>  (275) 
[H]c1nc2c(c([H])c1[H])C([H])([H])C([H])([H])C([H])([H])C2([H])C([H])([H])N([H])C(=O)c1c([H])nn2c1C([H])([H])C([H])([H])C([H])([H])C2([H])[H]

>  <index>  (275) 
262

>  <∆∆G>  (275) 
-5.903085

>  <∆G_bound>  (275) 
-4.646679

>  <∆G_unbound>  (275) 
1.256406

>  <comRMSD>  (275) 
0.372107

>  <N_constrained_atoms>  (275) 
20.0

>  <N_unconstrained_atoms>  (275) 
3.0

>  <runtime>  (275) 
78.384182

>  <LE>  (275) 
0.256656

>  <percent_hybrid>  (275) 
50.0

>  <dist>  (275) 
5.0

>  <ecfp4>  (275) 
0.329268

>  <daylight>  (275) 
0.315508

>  <topodist>  (275) 
1.0

>  <mces>  (275) 
25.0

>  <tdn>  (275) 
0.0

>  <tup>  (275) 
1.0

>  <rdn>  (275) 
0.0

>  <rup>  (275) 
0.0

>  <ldn>  (275) 
0.0

>  <lup>  (275) 
0.0

>  <mut>  (275) 
3.0

>  <maj>  (275) 
3.0

>  <min>  (275) 
0.0

>  <hyb>  (275) 
1.0

>  <sub>  (275) 
0.0

>  <query_index>  (275) 
204.0

>  <max_hit_Tanimoto>  (275) 
0.302775

>  <largest_ring>  (275) 
6

>  <N_interactions_kept>  (275) 
1.0

>  <N_interactions_lost>  (275) 
1.5

>  <interaction_uniqueness_metric>  (275) 
0.168292

>  <ad_hoc_penalty>  (275) 
-22.286694

>  <N_rotatable_bonds>  (275) 
3

>  <N_HA>  (275) 
23

>  <cluster>  (275) 
5978

>  <N_interactions>  (275) 
6

>  <Enamine>  (275) 
1

>  <Mcule>  (275) 
0

>  <N_PAINS>  (275) 
0

>  <UFF_Gibbs>  (275) 
174.596873

>  <strain_per_HA>  (275) 
7.591168

>  <saltbridge:HIS:51>  (275) 
0

>  <pistack:HIS:51>  (275) 
1

>  <hydroph_interaction:HIS:51>  (275) 
1

>  <hbond:ALA:132>  (275) 
0

>  <hbond:SER:135>  (275) 
0

>  <hydroph_interaction:TYR:150>  (275) 
1

>  <pistack:TYR:161>  (275) 
0

>  <hydroph_interaction:TYR:161>  (275) 
2

>  <hydroph_interaction:ASP:83>  (275) 
0

>  <hbond:TYR:130>  (275) 
0

>  <hydroph_interaction:ALA:132>  (275) 
0

>  <hbond:HIS:51>  (275) 
1

>  <hbond:ASP:129>  (275) 
0

>  <hbond:TYR:150>  (275) 
0

>  <hbond:GLY:151>  (275) 
0

>  <hbond:TYR:161>  (275) 
0

>  <hydroph_interaction:TYR:130>  (275) 
0

>  <hydroph_interaction:PRO:131>  (275) 
0

>  <hydroph_interaction:ASP:129>  (275) 
0

>  <saltbridge:ASP:75>  (275) 
0

>  <saltbridge:ASP:83>  (275) 
0

>  <hydroph_interaction:ASN:152>  (275) 
0

>  <halogenbond:TYR:150>  (275) 
0

>  <hbond:ASP:83>  (275) 
0

>  <hydroph_interaction:VAL:155>  (275) 
0

>  <pication:TYR:161>  (275) 
0

>  <hbond:PRO:131>  (275) 
0

>  <hbond:LEU:128>  (275) 
0

>  <saltbridge:ASP:129>  (275) 
0

>  <hbond:THR:134>  (275) 
0

>  <pication:HIS:51>  (275) 
0

>  <hbond:SER:81>  (275) 
0

>  <hbond:GLY:159>  (275) 
0

>  <hydroph_interaction:PRO:101>  (275) 
0

>  <hydroph_interaction:THR:134>  (275) 
0

>  <hbond:GLY:82>  (275) 
0

>  <hydroph_interaction:GLU:104>  (275) 
0

>  <hydroph_interaction:VAL:36>  (275) 
0

>  <hydroph_interaction:MET:49>  (275) 
0

>  <halogenbond:GLU:104>  (275) 
0

>  <hydroph_interaction:LYS:107>  (275) 
0

$$$$
MCULE-9116469262
     RDKit          3D

 56 59  0  0  0  0  0  0  0  0999 V2000
   -5.3268    5.5768  -18.3093 C   0  0  0  0  0  0  0  0  0  0  0  0
   -4.3861    4.9344  -17.4797 C   0  0  0  0  0  0  0  0  0  0  0  0
   -3.0151    5.1145  -17.6909 C   0  0  0  0  0  0  0  0  0  0  0  0
   -2.5665    5.9323  -18.7303 C   0  0  0  0  0  0  0  0  0  0  0  0
   -3.4883    6.5716  -19.5627 C   0  0  0  0  0  0  0  0  0  0  0  0
   -4.8604    6.3963  -19.3566 C   0  0  0  0  0  0  0  0  0  0  0  0
   -6.7858    5.3894  -18.0861 C   0  0  0  0  0  0  0  0  0  0  0  0
   -7.3092    5.3320  -16.7832 C   0  0  0  0  0  0  0  0  0  0  0  0
   -8.6865    5.1442  -16.5590 C   0  0  0  0  0  0  0  0  0  0  0  0
   -9.1907    5.0399  -15.2129 N   0  0  0  0  0  0  0  0  0  0  0  0
   -8.6612    5.8002  -14.1131 C   0  0  0  0  0  0  0  0  0  0  0  0
   -8.8340    5.3396  -12.7135 C   0  0  0  0  0  0  0  0  0  0  0  0
   -8.6697    6.2412  -11.6468 C   0  0  0  0  0  0  0  0  0  0  0  0
   -8.8056    5.8097  -10.3243 C   0  0  0  0  0  0  0  0  0  0  0  0
   -9.0975    4.4669  -10.0396 C   0  0  0  0  0  0  0  0  0  0  0  0
   -9.2219    4.0209   -8.6751 N   0  0  0  0  0  0  0  0  0  0  0  0
  -10.3509    3.1739   -8.2740 C   0  0  0  0  0  0  0  0  0  0  0  0
  -10.4603    3.0952   -6.7408 C   0  0  0  0  0  0  0  0  0  0  0  0
  -10.2069    4.4049   -6.1015 N   0  0  0  0  0  0  0  0  0  0  0  0
  -11.3032    5.3576   -6.3565 C   0  0  0  0  0  0  0  0  0  0  0  0
   -8.8791    4.9889   -6.4340 C   0  0  0  0  0  0  0  0  0  0  0  0
   -8.2101    4.3643   -7.6723 C   0  0  0  0  0  0  0  0  0  0  0  0
   -9.2698    3.5667  -11.1028 C   0  0  0  0  0  0  0  0  0  0  0  0
   -9.1340    3.9961  -12.4258 C   0  0  0  0  0  0  0  0  0  0  0  0
   -8.0679    6.8908  -14.3394 O   0  0  0  0  0  0  0  0  0  0  0  0
   -9.5543    5.0074  -17.6672 C   0  0  0  0  0  0  0  0  0  0  0  0
  -11.0306    4.7779  -17.4820 C   0  0  0  0  0  0  0  0  0  0  0  0
   -9.0266    5.0567  -18.9677 C   0  0  0  0  0  0  0  0  0  0  0  0
   -7.6607    5.2503  -19.1753 C   0  0  0  0  0  0  0  0  0  0  0  0
   -4.7089    4.2804  -16.6781 H   0  0  0  0  0  0  0  0  0  0  0  0
   -2.2996    4.6170  -17.0484 H   0  0  0  0  0  0  0  0  0  0  0  0
   -1.5047    6.0713  -18.8908 H   0  0  0  0  0  0  0  0  0  0  0  0
   -3.1397    7.2094  -20.3641 H   0  0  0  0  0  0  0  0  0  0  0  0
   -5.5560    6.9185  -20.0027 H   0  0  0  0  0  0  0  0  0  0  0  0
   -6.6416    5.4251  -15.9357 H   0  0  0  0  0  0  0  0  0  0  0  0
  -10.0262    4.4387  -15.0338 H   0  0  0  0  0  0  0  0  0  0  0  0
   -8.4428    7.2832  -11.8344 H   0  0  0  0  0  0  0  0  0  0  0  0
   -8.6942    6.5270   -9.5212 H   0  0  0  0  0  0  0  0  0  0  0  0
  -11.2940    3.5973   -8.6834 H   0  0  0  0  0  0  0  0  0  0  0  0
  -10.2221    2.1499   -8.6846 H   0  0  0  0  0  0  0  0  0  0  0  0
   -9.7218    2.3576   -6.3568 H   0  0  0  0  0  0  0  0  0  0  0  0
  -11.4631    2.7092   -6.4536 H   0  0  0  0  0  0  0  0  0  0  0  0
  -11.1839    6.2491   -5.7045 H   0  0  0  0  0  0  0  0  0  0  0  0
  -12.2851    4.9009   -6.1076 H   0  0  0  0  0  0  0  0  0  0  0  0
  -11.3097    5.6880   -7.4184 H   0  0  0  0  0  0  0  0  0  0  0  0
   -8.9458    6.0912   -6.5903 H   0  0  0  0  0  0  0  0  0  0  0  0
   -8.2054    4.8445   -5.5621 H   0  0  0  0  0  0  0  0  0  0  0  0
   -7.4438    5.0574   -8.0820 H   0  0  0  0  0  0  0  0  0  0  0  0
   -7.6779    3.4353   -7.3717 H   0  0  0  0  0  0  0  0  0  0  0  0
   -9.4810    2.5235  -10.9099 H   0  0  0  0  0  0  0  0  0  0  0  0
   -9.2378    3.2655  -13.2175 H   0  0  0  0  0  0  0  0  0  0  0  0
  -11.2010    3.7321  -17.1517 H   0  0  0  0  0  0  0  0  0  0  0  0
  -11.5904    4.9431  -18.4294 H   0  0  0  0  0  0  0  0  0  0  0  0
  -11.4388    5.4796  -16.7236 H   0  0  0  0  0  0  0  0  0  0  0  0
   -9.6747    4.9406  -19.8283 H   0  0  0  0  0  0  0  0  0  0  0  0
   -7.2845    5.2618  -20.1910 H   0  0  0  0  0  0  0  0  0  0  0  0
  1  2  2  0
  2  3  1  0
  3  4  2  0
  4  5  1  0
  5  6  2  0
  1  7  1  0
  7  8  2  0
  8  9  1  0
  9 10  1  0
 10 11  1  0
 11 12  1  0
 12 13  2  0
 13 14  1  0
 14 15  2  0
 15 16  1  0
 16 17  1  0
 17 18  1  0
 18 19  1  0
 19 20  1  0
 19 21  1  0
 21 22  1  0
 15 23  1  0
 23 24  2  0
 11 25  2  0
  9 26  2  0
 26 27  1  0
 26 28  1  0
 28 29  2  0
  6  1  1  0
  7 29  1  0
 12 24  1  0
 22 16  1  0
  2 30  1  0
  3 31  1  0
  4 32  1  0
  5 33  1  0
  6 34  1  0
  8 35  1  0
 10 36  1  0
 13 37  1  0
 14 38  1  0
 17 39  1  0
 17 40  1  0
 18 41  1  0
 18 42  1  0
 20 43  1  0
 20 44  1  0
 20 45  1  0
 21 46  1  0
 21 47  1  0
 22 48  1  0
 22 49  1  0
 23 50  1  0
 24 51  1  0
 27 52  1  0
 27 53  1  0
 27 54  1  0
 28 55  1  0
 29 56  1  0
A    1
 C1 
A    2
 C2 
A    3
 C3 
A    4
 C4 
A    5
 C5 
A    6
 C6 
A    7
 C7 
A    8
 C8 
A    9
 C9 
A   10
 N1 
A   11
 C10
A   12
 C11
A   13
 C12
A   14
 C13
A   15
 C14
A   16
 N2 
A   17
 C15
A   18
 C16
A   19
 N3 
A   20
 C17
A   21
 C18
A   22
 C19
A   23
 C20
A   24
 C21
A   25
 O1 
A   26
 C22
A   27
 C23
A   28
 C24
A   29
 C25
A   30
 H1 
A   31
 H2 
A   32
 H3 
A   33
 H4 
A   34
 H5 
A   35
 H6 
A   36
 H7 
A   37
 H8 
A   38
 H9 
A   39
 H10
A   40
 H11
A   41
 H12
A   42
 H13
A   43
 H14
A   44
 H15
A   45
 H16
A   46
 H17
A   47
 H18
A   48
 H19
A   49
 H20
A   50
 H21
A   51
 H22
A   52
 H23
A   53
 H24
A   54
 H25
A   55
 H26
A   56
 H27
M  END
>  <ref_pdb>  (276) 
x0051_0B

>  <ref_mols>  (276) 
x0465_0B,x0404_0B

>  <original SMILES>  (276) 
[H]c1c([H])c([H])c(-c2c([H])c([H])c(C([H])([H])[H])c(N([H])C(=O)c3c([H])c([H])c(N4C([H])([H])C([H])([H])N(C([H])([H])[H])C([H])([H])C4([H])[H])c([H])c3[H])c2[H])c([H])c1[H]

>  <index>  (276) 
312

>  <∆∆G>  (276) 
-7.11898

>  <∆G_bound>  (276) 
-7.142008

>  <∆G_unbound>  (276) 
-0.023028

>  <comRMSD>  (276) 
0.999879

>  <N_constrained_atoms>  (276) 
28.0

>  <N_unconstrained_atoms>  (276) 
3.0

>  <runtime>  (276) 
373.349276

>  <LE>  (276) 
0.229645

>  <percent_hybrid>  (276) 
43.0

>  <dist>  (276) 
12.0

>  <ecfp4>  (276) 
0.204545

>  <daylight>  (276) 
0.208163

>  <topodist>  (276) 
3.0

>  <mces>  (276) 
31.0

>  <tdn>  (276) 
1.0

>  <tup>  (276) 
1.0

>  <rdn>  (276) 
0.0

>  <rup>  (276) 
0.0

>  <ldn>  (276) 
1.0

>  <lup>  (276) 
0.0

>  <mut>  (276) 
4.0

>  <maj>  (276) 
4.0

>  <min>  (276) 
0.0

>  <hyb>  (276) 
5.0

>  <sub>  (276) 
1.0

>  <query_index>  (276) 
89.0

>  <max_hit_Tanimoto>  (276) 
0.280438

>  <largest_ring>  (276) 
6

>  <N_interactions_kept>  (276) 
1.5

>  <N_interactions_lost>  (276) 
4.0

>  <interaction_uniqueness_metric>  (276) 
0.445448

>  <ad_hoc_penalty>  (276) 
-22.277284

>  <N_rotatable_bonds>  (276) 
6

>  <N_HA>  (276) 
29

>  <cluster>  (276) 
497

>  <N_interactions>  (276) 
11

>  <Enamine>  (276) 
0

>  <Mcule>  (276) 
1

>  <N_PAINS>  (276) 
0

>  <UFF_Gibbs>  (276) 
290.440672

>  <strain_per_HA>  (276) 
9.369054

>  <saltbridge:HIS:51>  (276) 
0

>  <pistack:HIS:51>  (276) 
1

>  <hydroph_interaction:HIS:51>  (276) 
1

>  <hbond:ALA:132>  (276) 
0

>  <hbond:SER:135>  (276) 
2

>  <hydroph_interaction:TYR:150>  (276) 
1

>  <pistack:TYR:161>  (276) 
1

>  <hydroph_interaction:TYR:161>  (276) 
2

>  <hydroph_interaction:ASP:83>  (276) 
0

>  <hbond:TYR:130>  (276) 
0

>  <hydroph_interaction:ALA:132>  (276) 
0

>  <hbond:HIS:51>  (276) 
0

>  <hbond:ASP:129>  (276) 
0

>  <hbond:TYR:150>  (276) 
0

>  <hbond:GLY:151>  (276) 
0

>  <hbond:TYR:161>  (276) 
0

>  <hydroph_interaction:TYR:130>  (276) 
0

>  <hydroph_interaction:PRO:131>  (276) 
0

>  <hydroph_interaction:ASP:129>  (276) 
0

>  <saltbridge:ASP:75>  (276) 
1

>  <saltbridge:ASP:83>  (276) 
1

>  <hydroph_interaction:ASN:152>  (276) 
0

>  <halogenbond:TYR:150>  (276) 
0

>  <hbond:ASP:83>  (276) 
0

>  <hydroph_interaction:VAL:155>  (276) 
1

>  <pication:TYR:161>  (276) 
0

>  <hbond:PRO:131>  (276) 
0

>  <hbond:LEU:128>  (276) 
0

>  <saltbridge:ASP:129>  (276) 
0

>  <hbond:THR:134>  (276) 
0

>  <pication:HIS:51>  (276) 
0

>  <hbond:SER:81>  (276) 
0

>  <hbond:GLY:159>  (276) 
0

>  <hydroph_interaction:PRO:101>  (276) 
0

>  <hydroph_interaction:THR:134>  (276) 
0

>  <hbond:GLY:82>  (276) 
0

>  <hydroph_interaction:GLU:104>  (276) 
0

>  <hydroph_interaction:VAL:36>  (276) 
0

>  <hydroph_interaction:MET:49>  (276) 
0

>  <halogenbond:GLU:104>  (276) 
0

>  <hydroph_interaction:LYS:107>  (276) 
0

$$$$
VELKSSCVUCTETM-UHFFFAOYSA-N
     RDKit          3D

 26 27  0  0  0  0  0  0  0  0999 V2000
   -5.9878    5.9406  -17.7618 N   0  0  0  0  0  0  0  0  0  0  0  0
   -5.2195    5.8006  -16.5163 C   0  0  0  0  0  0  0  0  0  0  0  0
   -4.5992    4.5319  -16.4926 O   0  0  0  0  0  0  0  0  0  0  0  0
   -3.9519    4.3484  -15.2539 C   0  0  0  0  0  0  0  0  0  0  0  0
   -5.6894    7.0890  -18.6351 C   0  0  0  0  0  0  0  0  0  0  0  0
   -6.0657    6.8264  -20.0623 C   0  0  0  0  0  0  0  0  0  0  0  0
   -5.5239    7.4926  -20.9840 O   0  0  0  0  0  0  0  0  0  0  0  0
   -7.0867    5.8806  -20.3777 N   0  0  0  0  0  0  0  0  0  0  0  0
   -7.6459    5.0442  -19.3613 C   0  0  0  0  0  0  0  0  0  0  0  0
   -7.1043    5.0612  -18.0593 C   0  0  0  0  0  0  0  0  0  0  0  0
   -7.6556    4.2007  -17.0847 C   0  0  0  0  0  0  0  0  0  0  0  0
   -8.7221    3.3561  -17.4042 C   0  0  0  0  0  0  0  0  0  0  0  0
   -9.2505    3.3507  -18.6947 C   0  0  0  0  0  0  0  0  0  0  0  0
   -8.7133    4.1892  -19.6718 C   0  0  0  0  0  0  0  0  0  0  0  0
   -5.9076    5.9394  -15.6515 H   0  0  0  0  0  0  0  0  0  0  0  0
   -4.4457    6.5995  -16.4470 H   0  0  0  0  0  0  0  0  0  0  0  0
   -3.1709    5.1234  -15.0862 H   0  0  0  0  0  0  0  0  0  0  0  0
   -3.4475    3.3605  -15.2619 H   0  0  0  0  0  0  0  0  0  0  0  0
   -4.6837    4.3450  -14.4157 H   0  0  0  0  0  0  0  0  0  0  0  0
   -4.6039    7.3278  -18.5995 H   0  0  0  0  0  0  0  0  0  0  0  0
   -6.2548    7.9740  -18.2743 H   0  0  0  0  0  0  0  0  0  0  0  0
   -7.4164    5.7970  -21.3662 H   0  0  0  0  0  0  0  0  0  0  0  0
   -7.2746    4.1731  -16.0742 H   0  0  0  0  0  0  0  0  0  0  0  0
   -9.1388    2.7027  -16.6484 H   0  0  0  0  0  0  0  0  0  0  0  0
  -10.0753    2.6937  -18.9390 H   0  0  0  0  0  0  0  0  0  0  0  0
   -9.1270    4.1726  -20.6723 H   0  0  0  0  0  0  0  0  0  0  0  0
  1  2  1  0
  2  3  1  0
  3  4  1  0
  1  5  1  0
  5  6  1  0
  6  7  2  0
  6  8  1  0
  8  9  1  0
  9 10  2  0
 10 11  1  0
 11 12  2  0
 12 13  1  0
 13 14  2  0
 10  1  1  0
 14  9  1  0
  2 15  1  0
  2 16  1  0
  4 17  1  0
  4 18  1  0
  4 19  1  0
  5 20  1  0
  5 21  1  0
  8 22  1  0
 11 23  1  0
 12 24  1  0
 13 25  1  0
 14 26  1  0
A    1
 N1 
A    2
 C1 
A    3
 O1 
A    4
 C2 
A    5
 C3 
A    6
 C4 
A    7
 O2 
A    8
 N2 
A    9
 C5 
A   10
 C6 
A   11
 C7 
A   12
 C8 
A   13
 C9 
A   14
 C10
A   15
 H1 
A   16
 H2 
A   17
 H3 
A   18
 H4 
A   19
 H5 
A   20
 H6 
A   21
 H7 
A   22
 H8 
A   23
 H9 
A   24
 H10
A   25
 H11
A   26
 H12
M  END
>  <ref_pdb>  (277) 
x0051_0B

>  <ref_mols>  (277) 
x0443_0B,x0490_0B

>  <original SMILES>  (277) 
[H]c1c([H])c([H])c2c(c1[H])N([H])C(=O)C([H])([H])N2C([H])([H])OC([H])([H])[H]

>  <index>  (277) 
513

>  <∆∆G>  (277) 
-6.740448

>  <∆G_bound>  (277) 
-6.63515

>  <∆G_unbound>  (277) 
0.105298

>  <comRMSD>  (277) 
0.508709

>  <N_constrained_atoms>  (277) 
12.0

>  <N_unconstrained_atoms>  (277) 
2.0

>  <runtime>  (277) 
28.728522

>  <LE>  (277) 
0.481461

>  <percent_hybrid>  (277) 
50.0

>  <dist>  (277) 
4.0

>  <ecfp4>  (277) 
0.211538

>  <daylight>  (277) 
0.088889

>  <topodist>  (277) 
2.0

>  <mces>  (277) 
13.0

>  <tdn>  (277) 
0.0

>  <tup>  (277) 
0.0

>  <rdn>  (277) 
0.0

>  <rup>  (277) 
0.0

>  <ldn>  (277) 
0.0

>  <lup>  (277) 
2.0

>  <mut>  (277) 
1.0

>  <maj>  (277) 
1.0

>  <min>  (277) 
0.0

>  <hyb>  (277) 
1.0

>  <sub>  (277) 
0.0

>  <query_index>  (277) 
234.0

>  <max_hit_Tanimoto>  (277) 
0.122253

>  <largest_ring>  (277) 
6

>  <N_interactions_kept>  (277) 
2.0

>  <N_interactions_lost>  (277) 
2.0

>  <interaction_uniqueness_metric>  (277) 
0.102329

>  <ad_hoc_penalty>  (277) 
-22.16609

>  <N_rotatable_bonds>  (277) 
3

>  <N_HA>  (277) 
14

>  <cluster>  (277) 
5751

>  <N_interactions>  (277) 
6

>  <Enamine>  (277) 
0

>  <Mcule>  (277) 
1

>  <N_PAINS>  (277) 
0

>  <UFF_Gibbs>  (277) 
36.737276

>  <strain_per_HA>  (277) 
2.624091

>  <saltbridge:HIS:51>  (277) 
0

>  <pistack:HIS:51>  (277) 
0

>  <hydroph_interaction:HIS:51>  (277) 
0

>  <hbond:ALA:132>  (277) 
0

>  <hbond:SER:135>  (277) 
0

>  <hydroph_interaction:TYR:150>  (277) 
1

>  <pistack:TYR:161>  (277) 
0

>  <hydroph_interaction:TYR:161>  (277) 
2

>  <hydroph_interaction:ASP:83>  (277) 
0

>  <hbond:TYR:130>  (277) 
2

>  <hydroph_interaction:ALA:132>  (277) 
0

>  <hbond:HIS:51>  (277) 
0

>  <hbond:ASP:129>  (277) 
1

>  <hbond:TYR:150>  (277) 
0

>  <hbond:GLY:151>  (277) 
0

>  <hbond:TYR:161>  (277) 
0

>  <hydroph_interaction:TYR:130>  (277) 
0

>  <hydroph_interaction:PRO:131>  (277) 
0

>  <hydroph_interaction:ASP:129>  (277) 
0

>  <saltbridge:ASP:75>  (277) 
0

>  <saltbridge:ASP:83>  (277) 
0

>  <hydroph_interaction:ASN:152>  (277) 
0

>  <halogenbond:TYR:150>  (277) 
0

>  <hbond:ASP:83>  (277) 
0

>  <hydroph_interaction:VAL:155>  (277) 
0

>  <pication:TYR:161>  (277) 
0

>  <hbond:PRO:131>  (277) 
0

>  <hbond:LEU:128>  (277) 
0

>  <saltbridge:ASP:129>  (277) 
0

>  <hbond:THR:134>  (277) 
0

>  <pication:HIS:51>  (277) 
0

>  <hbond:SER:81>  (277) 
0

>  <hbond:GLY:159>  (277) 
0

>  <hydroph_interaction:PRO:101>  (277) 
0

>  <hydroph_interaction:THR:134>  (277) 
0

>  <hbond:GLY:82>  (277) 
0

>  <hydroph_interaction:GLU:104>  (277) 
0

>  <hydroph_interaction:VAL:36>  (277) 
0

>  <hydroph_interaction:MET:49>  (277) 
0

>  <halogenbond:GLU:104>  (277) 
0

>  <hydroph_interaction:LYS:107>  (277) 
0

$$$$
Z928927188
     RDKit          3D

 48 51  0  0  0  0  0  0  0  0999 V2000
  -10.7544    9.0298  -13.0736 O   0  0  0  0  0  0  0  0  0  0  0  0
  -10.0587    8.0601  -13.4794 C   0  0  0  0  0  0  0  0  0  0  0  0
   -9.6935    8.0044  -14.8677 N   0  0  0  0  0  0  0  0  0  0  0  0
   -8.4363    7.4260  -15.3499 C   0  0  0  0  0  0  0  0  0  0  0  0
   -8.6414    6.2895  -16.3421 C   0  0  0  0  0  0  0  0  0  0  0  0
   -9.9407    5.8739  -16.7068 C   0  0  0  0  0  0  0  0  0  0  0  0
  -10.1348    4.8278  -17.6070 C   0  0  0  0  0  0  0  0  0  0  0  0
   -9.0452    4.1686  -18.1665 C   0  0  0  0  0  0  0  0  0  0  0  0
   -7.7412    4.5514  -17.8314 C   0  0  0  0  0  0  0  0  0  0  0  0
   -6.6487    3.8796  -18.4030 C   0  0  0  0  0  0  0  0  0  0  0  0
   -5.3447    4.2520  -18.0779 C   0  0  0  0  0  0  0  0  0  0  0  0
   -5.1180    5.2956  -17.1824 C   0  0  0  0  0  0  0  0  0  0  0  0
   -6.1928    5.9749  -16.6035 C   0  0  0  0  0  0  0  0  0  0  0  0
   -7.5244    5.6175  -16.9152 C   0  0  0  0  0  0  0  0  0  0  0  0
   -9.6565    7.0108  -12.5148 C   0  0  0  0  0  0  0  0  0  0  0  0
   -9.3643    7.3542  -11.1852 C   0  0  0  0  0  0  0  0  0  0  0  0
   -8.9913    6.3706  -10.2648 C   0  0  0  0  0  0  0  0  0  0  0  0
   -8.9132    5.0242  -10.6542 C   0  0  0  0  0  0  0  0  0  0  0  0
   -8.5315    4.0149   -9.6997 N   0  0  0  0  0  0  0  0  0  0  0  0
   -9.1988    2.7095   -9.6942 C   0  0  0  0  0  0  0  0  0  0  0  0
   -9.1542    2.1137   -8.2836 C   0  0  0  0  0  0  0  0  0  0  0  0
   -7.8295    2.0985   -7.7851 O   0  0  0  0  0  0  0  0  0  0  0  0
   -7.3612    3.4250   -7.6289 C   0  0  0  0  0  0  0  0  0  0  0  0
   -7.2555    4.1274   -8.9858 C   0  0  0  0  0  0  0  0  0  0  0  0
   -9.2310    4.6770  -11.9778 C   0  0  0  0  0  0  0  0  0  0  0  0
   -9.6032    5.6607  -12.8978 C   0  0  0  0  0  0  0  0  0  0  0  0
  -10.2360    8.5960  -15.5374 H   0  0  0  0  0  0  0  0  0  0  0  0
   -7.8285    7.0593  -14.4959 H   0  0  0  0  0  0  0  0  0  0  0  0
   -7.8558    8.2335  -15.8453 H   0  0  0  0  0  0  0  0  0  0  0  0
  -10.8212    6.3473  -16.2948 H   0  0  0  0  0  0  0  0  0  0  0  0
  -11.1399    4.5240  -17.8706 H   0  0  0  0  0  0  0  0  0  0  0  0
   -9.2222    3.3572  -18.8629 H   0  0  0  0  0  0  0  0  0  0  0  0
   -6.8039    3.0665  -19.1027 H   0  0  0  0  0  0  0  0  0  0  0  0
   -4.5068    3.7306  -18.5228 H   0  0  0  0  0  0  0  0  0  0  0  0
   -4.1036    5.5807  -16.9345 H   0  0  0  0  0  0  0  0  0  0  0  0
   -5.9647    6.7780  -15.9169 H   0  0  0  0  0  0  0  0  0  0  0  0
   -9.4158    8.3861  -10.8603 H   0  0  0  0  0  0  0  0  0  0  0  0
   -8.7805    6.6579   -9.2427 H   0  0  0  0  0  0  0  0  0  0  0  0
   -8.6793    2.0270  -10.4015 H   0  0  0  0  0  0  0  0  0  0  0  0
  -10.2603    2.8146  -10.0088 H   0  0  0  0  0  0  0  0  0  0  0  0
   -9.5277    1.0689   -8.3266 H   0  0  0  0  0  0  0  0  0  0  0  0
   -9.8332    2.6757   -7.6022 H   0  0  0  0  0  0  0  0  0  0  0  0
   -8.0181    4.0050   -6.9407 H   0  0  0  0  0  0  0  0  0  0  0  0
   -6.3526    3.3913   -7.1656 H   0  0  0  0  0  0  0  0  0  0  0  0
   -6.4571    3.6458   -9.5910 H   0  0  0  0  0  0  0  0  0  0  0  0
   -6.9754    5.1897   -8.8233 H   0  0  0  0  0  0  0  0  0  0  0  0
   -9.1846    3.6454  -12.3018 H   0  0  0  0  0  0  0  0  0  0  0  0
   -9.8647    5.3619  -13.9032 H   0  0  0  0  0  0  0  0  0  0  0  0
  1  2  2  0
  2  3  1  0
  3  4  1  0
  4  5  1  0
  5  6  2  0
  6  7  1  0
  7  8  2  0
  8  9  1  0
  9 10  2  0
 10 11  1  0
 11 12  2  0
 12 13  1  0
 13 14  2  0
  2 15  1  0
 15 16  2  0
 16 17  1  0
 17 18  2  0
 18 19  1  0
 19 20  1  0
 20 21  1  0
 21 22  1  0
 22 23  1  0
 23 24  1  0
 18 25  1  0
 25 26  2  0
 14  5  1  0
 14  9  1  0
 26 15  1  0
 24 19  1  0
  3 27  1  0
  4 28  1  0
  4 29  1  0
  6 30  1  0
  7 31  1  0
  8 32  1  0
 10 33  1  0
 11 34  1  0
 12 35  1  0
 13 36  1  0
 16 37  1  0
 17 38  1  0
 20 39  1  0
 20 40  1  0
 21 41  1  0
 21 42  1  0
 23 43  1  0
 23 44  1  0
 24 45  1  0
 24 46  1  0
 25 47  1  0
 26 48  1  0
A    1
 O1 
A    2
 C1 
A    3
 N1 
A    4
 C2 
A    5
 C3 
A    6
 C4 
A    7
 C5 
A    8
 C6 
A    9
 C7 
A   10
 C8 
A   11
 C9 
A   12
 C10
A   13
 C11
A   14
 C12
A   15
 C13
A   16
 C14
A   17
 C15
A   18
 C16
A   19
 N2 
A   20
 C17
A   21
 C18
A   22
 O2 
A   23
 C19
A   24
 C20
A   25
 C21
A   26
 C22
A   27
 H1 
A   28
 H2 
A   29
 H3 
A   30
 H4 
A   31
 H5 
A   32
 H6 
A   33
 H7 
A   34
 H8 
A   35
 H9 
A   36
 H10
A   37
 H11
A   38
 H12
A   39
 H13
A   40
 H14
A   41
 H15
A   42
 H16
A   43
 H17
A   44
 H18
A   45
 H19
A   46
 H20
A   47
 H21
A   48
 H22
M  END
>  <ref_pdb>  (278) 
x0051_0B

>  <ref_mols>  (278) 
x0727_0B,x0404_0B

>  <original SMILES>  (278) 
[H]c1c([H])c(N2C([H])([H])C([H])([H])OC([H])([H])C2([H])[H])c([H])c([H])c1C(=O)N([H])C([H])([H])c1c([H])c([H])c([H])c2c([H])c([H])c([H])c([H])c12

>  <index>  (278) 
142

>  <∆∆G>  (278) 
-8.776467

>  <∆G_bound>  (278) 
-8.455695

>  <∆G_unbound>  (278) 
0.320772

>  <comRMSD>  (278) 
0.576933

>  <N_constrained_atoms>  (278) 
27.0

>  <N_unconstrained_atoms>  (278) 
0.0

>  <runtime>  (278) 
62.2425

>  <LE>  (278) 
0.325054

>  <percent_hybrid>  (278) 
41.0

>  <dist>  (278) 
8.0

>  <ecfp4>  (278) 
0.225

>  <daylight>  (278) 
0.177885

>  <topodist>  (278) 
3.0

>  <mces>  (278) 
29.0

>  <tdn>  (278) 
3.0

>  <tup>  (278) 
0.0

>  <rdn>  (278) 
0.0

>  <rup>  (278) 
0.0

>  <ldn>  (278) 
0.0

>  <lup>  (278) 
0.0

>  <mut>  (278) 
4.0

>  <maj>  (278) 
4.0

>  <min>  (278) 
0.0

>  <hyb>  (278) 
1.0

>  <sub>  (278) 
1.0

>  <query_index>  (278) 
0.0

>  <max_hit_Tanimoto>  (278) 
0.2384

>  <largest_ring>  (278) 
6

>  <N_interactions_kept>  (278) 
1.0

>  <N_interactions_lost>  (278) 
3.5

>  <interaction_uniqueness_metric>  (278) 
0.191843

>  <ad_hoc_penalty>  (278) 
-22.12694

>  <N_rotatable_bonds>  (278) 
4

>  <N_HA>  (278) 
26

>  <cluster>  (278) 
534

>  <N_interactions>  (278) 
9

>  <Enamine>  (278) 
1

>  <Mcule>  (278) 
0

>  <N_PAINS>  (278) 
0

>  <UFF_Gibbs>  (278) 
315.298642

>  <strain_per_HA>  (278) 
11.677727

>  <saltbridge:HIS:51>  (278) 
0

>  <pistack:HIS:51>  (278) 
1

>  <hydroph_interaction:HIS:51>  (278) 
1

>  <hbond:ALA:132>  (278) 
1

>  <hbond:SER:135>  (278) 
0

>  <hydroph_interaction:TYR:150>  (278) 
1

>  <pistack:TYR:161>  (278) 
1

>  <hydroph_interaction:TYR:161>  (278) 
3

>  <hydroph_interaction:ASP:83>  (278) 
0

>  <hbond:TYR:130>  (278) 
0

>  <hydroph_interaction:ALA:132>  (278) 
1

>  <hbond:HIS:51>  (278) 
0

>  <hbond:ASP:129>  (278) 
0

>  <hbond:TYR:150>  (278) 
0

>  <hbond:GLY:151>  (278) 
0

>  <hbond:TYR:161>  (278) 
0

>  <hydroph_interaction:TYR:130>  (278) 
0

>  <hydroph_interaction:PRO:131>  (278) 
0

>  <hydroph_interaction:ASP:129>  (278) 
0

>  <saltbridge:ASP:75>  (278) 
0

>  <saltbridge:ASP:83>  (278) 
0

>  <hydroph_interaction:ASN:152>  (278) 
0

>  <halogenbond:TYR:150>  (278) 
0

>  <hbond:ASP:83>  (278) 
0

>  <hydroph_interaction:VAL:155>  (278) 
0

>  <pication:TYR:161>  (278) 
0

>  <hbond:PRO:131>  (278) 
0

>  <hbond:LEU:128>  (278) 
0

>  <saltbridge:ASP:129>  (278) 
0

>  <hbond:THR:134>  (278) 
0

>  <pication:HIS:51>  (278) 
0

>  <hbond:SER:81>  (278) 
0

>  <hbond:GLY:159>  (278) 
0

>  <hydroph_interaction:PRO:101>  (278) 
0

>  <hydroph_interaction:THR:134>  (278) 
0

>  <hbond:GLY:82>  (278) 
0

>  <hydroph_interaction:GLU:104>  (278) 
0

>  <hydroph_interaction:VAL:36>  (278) 
0

>  <hydroph_interaction:MET:49>  (278) 
0

>  <halogenbond:GLU:104>  (278) 
0

>  <hydroph_interaction:LYS:107>  (278) 
0

$$$$
Z2761221075
     RDKit          3D

 41 43  0  0  0  0  0  0  0  0999 V2000
   -9.3699    3.3355  -18.4587 C   0  0  0  0  0  0  0  0  0  0  0  0
   -8.5605    4.1728  -17.5125 C   0  0  0  0  0  0  0  0  0  0  0  0
   -7.2401    4.5182  -17.8318 C   0  0  0  0  0  0  0  0  0  0  0  0
   -6.4920    5.3334  -16.9716 C   0  0  0  0  0  0  0  0  0  0  0  0
   -5.0908    5.7279  -17.3352 C   0  0  0  0  0  0  0  0  0  0  0  0
   -7.0856    5.8365  -15.8047 C   0  0  0  0  0  0  0  0  0  0  0  0
   -8.4107    5.5041  -15.4723 C   0  0  0  0  0  0  0  0  0  0  0  0
   -9.0202    6.0476  -14.2347 C   0  0  0  0  0  0  0  0  0  0  0  0
   -8.5785    7.1264  -13.7520 O   0  0  0  0  0  0  0  0  0  0  0  0
  -10.0895    5.3568  -13.5669 N   0  0  0  0  0  0  0  0  0  0  0  0
  -10.7527    5.9019  -12.3848 C   0  0  0  0  0  0  0  0  0  0  0  0
   -9.8494    5.8114  -11.1932 C   0  0  0  0  0  0  0  0  0  0  0  0
   -9.4582    4.6808  -10.5083 C   0  0  0  0  0  0  0  0  0  0  0  0
   -9.9032    3.2608  -10.6972 C   0  0  0  0  0  0  0  0  0  0  0  0
   -8.9844    2.3317  -10.0146 N   0  0  0  0  0  0  0  0  0  0  0  0
   -8.7073    2.7572   -8.6297 C   0  0  0  0  0  0  0  0  0  0  0  0
   -7.9905    4.1211   -8.5942 C   0  0  0  0  0  0  0  0  0  0  0  0
   -8.6428    5.0494   -9.5107 N   0  0  0  0  0  0  0  0  0  0  0  0
   -8.4471    6.3580   -9.5406 N   0  0  0  0  0  0  0  0  0  0  0  0
   -9.1810    6.8497  -10.5629 C   0  0  0  0  0  0  0  0  0  0  0  0
   -9.1462    4.6799  -16.3429 C   0  0  0  0  0  0  0  0  0  0  0  0
   -8.7167    2.6327  -19.0185 H   0  0  0  0  0  0  0  0  0  0  0  0
   -9.8936    3.9963  -19.1806 H   0  0  0  0  0  0  0  0  0  0  0  0
  -10.1226    2.7352  -17.9045 H   0  0  0  0  0  0  0  0  0  0  0  0
   -6.7958    4.1552  -18.7514 H   0  0  0  0  0  0  0  0  0  0  0  0
   -5.1137    6.6655  -17.9289 H   0  0  0  0  0  0  0  0  0  0  0  0
   -4.6015    4.9310  -17.9349 H   0  0  0  0  0  0  0  0  0  0  0  0
   -4.4804    5.8920  -16.4216 H   0  0  0  0  0  0  0  0  0  0  0  0
   -6.5093    6.4815  -15.1517 H   0  0  0  0  0  0  0  0  0  0  0  0
  -10.3824    4.4092  -13.8926 H   0  0  0  0  0  0  0  0  0  0  0  0
  -11.6761    5.3195  -12.1775 H   0  0  0  0  0  0  0  0  0  0  0  0
  -11.0519    6.9561  -12.5701 H   0  0  0  0  0  0  0  0  0  0  0  0
   -9.9363    3.0178  -11.7805 H   0  0  0  0  0  0  0  0  0  0  0  0
  -10.9272    3.1414  -10.2835 H   0  0  0  0  0  0  0  0  0  0  0  0
   -8.0806    2.3040  -10.5439 H   0  0  0  0  0  0  0  0  0  0  0  0
   -9.6610    2.8207   -8.0603 H   0  0  0  0  0  0  0  0  0  0  0  0
   -8.0705    1.9950   -8.1317 H   0  0  0  0  0  0  0  0  0  0  0  0
   -6.9310    3.9920   -8.9032 H   0  0  0  0  0  0  0  0  0  0  0  0
   -8.0143    4.5308   -7.5617 H   0  0  0  0  0  0  0  0  0  0  0  0
   -9.2229    7.8962  -10.8339 H   0  0  0  0  0  0  0  0  0  0  0  0
  -10.1836    4.4517  -16.1356 H   0  0  0  0  0  0  0  0  0  0  0  0
  1  2  1  0
  2  3  2  0
  3  4  1  0
  4  5  1  0
  4  6  2  0
  6  7  1  0
  7  8  1  0
  8  9  2  0
  8 10  1  0
 10 11  1  0
 11 12  1  0
 12 13  2  0
 13 14  1  0
 14 15  1  0
 15 16  1  0
 16 17  1  0
 17 18  1  0
 18 19  1  0
 19 20  2  0
  7 21  2  0
 21  2  1  0
 20 12  1  0
 18 13  1  0
  1 22  1  0
  1 23  1  0
  1 24  1  0
  3 25  1  0
  5 26  1  0
  5 27  1  0
  5 28  1  0
  6 29  1  0
 10 30  1  0
 11 31  1  0
 11 32  1  0
 14 33  1  0
 14 34  1  0
 15 35  1  0
 16 36  1  0
 16 37  1  0
 17 38  1  0
 17 39  1  0
 20 40  1  0
 21 41  1  0
A    1
 C1 
A    2
 C2 
A    3
 C3 
A    4
 C4 
A    5
 C5 
A    6
 C6 
A    7
 C7 
A    8
 C8 
A    9
 O1 
A   10
 N1 
A   11
 C9 
A   12
 C10
A   13
 C11
A   14
 C12
A   15
 N2 
A   16
 C13
A   17
 C14
A   18
 N3 
A   19
 N4 
A   20
 C15
A   21
 C16
A   22
 H1 
A   23
 H2 
A   24
 H3 
A   25
 H4 
A   26
 H5 
A   27
 H6 
A   28
 H7 
A   29
 H8 
A   30
 H9 
A   31
 H10
A   32
 H11
A   33
 H12
A   34
 H13
A   35
 H14
A   36
 H15
A   37
 H16
A   38
 H17
A   39
 H18
A   40
 H19
A   41
 H20
M  END
>  <ref_pdb>  (279) 
x0051_0B

>  <ref_mols>  (279) 
x0589_0B,x0969_1B

>  <original SMILES>  (279) 
[H]c1nn2c(c1C([H])([H])N([H])C(=O)c1c([H])c(C([H])([H])[H])c([H])c(C([H])([H])[H])c1[H])C([H])([H])N([H])C([H])([H])C2([H])[H]

>  <index>  (279) 
324

>  <∆∆G>  (279) 
-7.237126

>  <∆G_bound>  (279) 
-6.821553

>  <∆G_unbound>  (279) 
0.415573

>  <comRMSD>  (279) 
0.549176

>  <N_constrained_atoms>  (279) 
18.0

>  <N_unconstrained_atoms>  (279) 
3.0

>  <runtime>  (279) 
62.457753

>  <LE>  (279) 
0.344625

>  <percent_hybrid>  (279) 
45.0

>  <dist>  (279) 
4.0

>  <ecfp4>  (279) 
0.5

>  <daylight>  (279) 
0.538117

>  <topodist>  (279) 
1.0

>  <mces>  (279) 
22.0

>  <tdn>  (279) 
0.0

>  <tup>  (279) 
1.0

>  <rdn>  (279) 
0.0

>  <rup>  (279) 
0.0

>  <ldn>  (279) 
0.0

>  <lup>  (279) 
0.0

>  <mut>  (279) 
3.0

>  <maj>  (279) 
3.0

>  <min>  (279) 
0.0

>  <hyb>  (279) 
0.0

>  <sub>  (279) 
0.0

>  <query_index>  (279) 
379.0

>  <max_hit_Tanimoto>  (279) 
0.639077

>  <largest_ring>  (279) 
6

>  <N_interactions_kept>  (279) 
0.5

>  <N_interactions_lost>  (279) 
2.0

>  <interaction_uniqueness_metric>  (279) 
0.256596

>  <ad_hoc_penalty>  (279) 
-22.117771

>  <N_rotatable_bonds>  (279) 
5

>  <N_HA>  (279) 
21

>  <cluster>  (279) 
5924

>  <N_interactions>  (279) 
7

>  <Enamine>  (279) 
1

>  <Mcule>  (279) 
0

>  <N_PAINS>  (279) 
0

>  <UFF_Gibbs>  (279) 
156.756726

>  <strain_per_HA>  (279) 
7.464606

>  <saltbridge:HIS:51>  (279) 
0

>  <pistack:HIS:51>  (279) 
1

>  <hydroph_interaction:HIS:51>  (279) 
0

>  <hbond:ALA:132>  (279) 
0

>  <hbond:SER:135>  (279) 
0

>  <hydroph_interaction:TYR:150>  (279) 
1

>  <pistack:TYR:161>  (279) 
1

>  <hydroph_interaction:TYR:161>  (279) 
1

>  <hydroph_interaction:ASP:83>  (279) 
0

>  <hbond:TYR:130>  (279) 
0

>  <hydroph_interaction:ALA:132>  (279) 
1

>  <hbond:HIS:51>  (279) 
0

>  <hbond:ASP:129>  (279) 
0

>  <hbond:TYR:150>  (279) 
0

>  <hbond:GLY:151>  (279) 
0

>  <hbond:TYR:161>  (279) 
1

>  <hydroph_interaction:TYR:130>  (279) 
0

>  <hydroph_interaction:PRO:131>  (279) 
0

>  <hydroph_interaction:ASP:129>  (279) 
0

>  <saltbridge:ASP:75>  (279) 
0

>  <saltbridge:ASP:83>  (279) 
0

>  <hydroph_interaction:ASN:152>  (279) 
0

>  <halogenbond:TYR:150>  (279) 
0

>  <hbond:ASP:83>  (279) 
1

>  <hydroph_interaction:VAL:155>  (279) 
0

>  <pication:TYR:161>  (279) 
0

>  <hbond:PRO:131>  (279) 
0

>  <hbond:LEU:128>  (279) 
0

>  <saltbridge:ASP:129>  (279) 
0

>  <hbond:THR:134>  (279) 
0

>  <pication:HIS:51>  (279) 
0

>  <hbond:SER:81>  (279) 
0

>  <hbond:GLY:159>  (279) 
0

>  <hydroph_interaction:PRO:101>  (279) 
0

>  <hydroph_interaction:THR:134>  (279) 
0

>  <hbond:GLY:82>  (279) 
0

>  <hydroph_interaction:GLU:104>  (279) 
0

>  <hydroph_interaction:VAL:36>  (279) 
0

>  <hydroph_interaction:MET:49>  (279) 
0

>  <halogenbond:GLU:104>  (279) 
0

>  <hydroph_interaction:LYS:107>  (279) 
0

$$$$
Z2879272396
     RDKit          3D

 43 45  0  0  0  0  0  0  0  0999 V2000
  -10.1602    7.7989  -10.0336 C   0  0  0  0  0  0  0  0  0  0  0  0
   -9.4648    7.6395  -11.3457 C   0  0  0  0  0  0  0  0  0  0  0  0
   -8.8499    8.6889  -11.9565 N   0  0  0  0  0  0  0  0  0  0  0  0
   -8.2447    8.0719  -13.3764 S   0  0  0  0  0  0  0  0  0  0  0  0
   -8.7406    6.4849  -13.2348 C   0  0  0  0  0  0  0  0  0  0  0  0
   -8.5747    5.4193  -14.1811 N   0  0  0  0  0  0  0  0  0  0  0  0
   -7.7334    5.5056  -15.3437 C   0  0  0  0  0  0  0  0  0  0  0  0
   -6.8365    6.3906  -15.4054 O   0  0  0  0  0  0  0  0  0  0  0  0
   -7.8751    4.5386  -16.4593 C   0  0  0  0  0  0  0  0  0  0  0  0
   -9.0958    3.8376  -16.6662 C   0  0  0  0  0  0  0  0  0  0  0  0
   -9.2351    2.9292  -17.7318 C   0  0  0  0  0  0  0  0  0  0  0  0
   -8.1419    2.7411  -18.5701 C   0  0  0  0  0  0  0  0  0  0  0  0
   -8.0547    1.9526  -19.6558 N   0  0  0  0  0  0  0  0  0  0  0  0
   -6.7981    2.1693  -20.1107 C   0  0  0  0  0  0  0  0  0  0  0  0
   -6.3368    1.6173  -21.1458 O   0  0  0  0  0  0  0  0  0  0  0  0
   -6.0942    3.0458  -19.3502 N   0  0  0  0  0  0  0  0  0  0  0  0
   -4.7447    3.5582  -19.5951 C   0  0  0  0  0  0  0  0  0  0  0  0
   -4.8100    4.8404  -20.4320 C   0  0  0  0  0  0  0  0  0  0  0  0
   -3.4845    5.4924  -20.5102 N   0  0  0  0  0  0  0  0  0  0  0  0
   -3.6420    6.9103  -20.8740 C   0  0  0  0  0  0  0  0  0  0  0  0
   -2.6223    4.8263  -21.5029 C   0  0  0  0  0  0  0  0  0  0  0  0
   -6.9638    3.4096  -18.3860 C   0  0  0  0  0  0  0  0  0  0  0  0
   -6.7927    4.3262  -17.3478 C   0  0  0  0  0  0  0  0  0  0  0  0
   -9.4299    6.4057  -12.0344 C   0  0  0  0  0  0  0  0  0  0  0  0
   -9.7722    7.0511   -9.3101 H   0  0  0  0  0  0  0  0  0  0  0  0
   -9.9862    8.8165   -9.6238 H   0  0  0  0  0  0  0  0  0  0  0  0
  -11.2512    7.6469  -10.1693 H   0  0  0  0  0  0  0  0  0  0  0  0
   -9.0643    4.5193  -13.9791 H   0  0  0  0  0  0  0  0  0  0  0  0
   -9.9495    4.0086  -16.0243 H   0  0  0  0  0  0  0  0  0  0  0  0
  -10.1655    2.4020  -17.8985 H   0  0  0  0  0  0  0  0  0  0  0  0
   -8.7901    1.3332  -20.0640 H   0  0  0  0  0  0  0  0  0  0  0  0
   -4.2398    3.7625  -18.6270 H   0  0  0  0  0  0  0  0  0  0  0  0
   -4.1505    2.7834  -20.1228 H   0  0  0  0  0  0  0  0  0  0  0  0
   -5.2110    4.6123  -21.4460 H   0  0  0  0  0  0  0  0  0  0  0  0
   -5.5406    5.5193  -19.9352 H   0  0  0  0  0  0  0  0  0  0  0  0
   -4.1567    7.0204  -21.8555 H   0  0  0  0  0  0  0  0  0  0  0  0
   -2.6494    7.4083  -20.9240 H   0  0  0  0  0  0  0  0  0  0  0  0
   -4.2281    7.4430  -20.0938 H   0  0  0  0  0  0  0  0  0  0  0  0
   -2.3971    3.7871  -21.1860 H   0  0  0  0  0  0  0  0  0  0  0  0
   -3.0975    4.8079  -22.5095 H   0  0  0  0  0  0  0  0  0  0  0  0
   -1.6451    5.3512  -21.5791 H   0  0  0  0  0  0  0  0  0  0  0  0
   -5.8540    4.8511  -17.2257 H   0  0  0  0  0  0  0  0  0  0  0  0
   -9.8950    5.4989  -11.6697 H   0  0  0  0  0  0  0  0  0  0  0  0
  1  2  1  0
  2  3  2  0
  3  4  1  0
  4  5  1  0
  5  6  1  0
  6  7  1  0
  7  8  2  0
  7  9  1  0
  9 10  2  0
 10 11  1  0
 11 12  2  0
 12 13  1  0
 13 14  1  0
 14 15  2  0
 14 16  1  0
 16 17  1  0
 17 18  1  0
 18 19  1  0
 19 20  1  0
 19 21  1  0
 16 22  1  0
 22 23  2  0
  5 24  2  0
 24  2  1  0
 23  9  1  0
 22 12  1  0
  1 25  1  0
  1 26  1  0
  1 27  1  0
  6 28  1  0
 10 29  1  0
 11 30  1  0
 13 31  1  0
 17 32  1  0
 17 33  1  0
 18 34  1  0
 18 35  1  0
 20 36  1  0
 20 37  1  0
 20 38  1  0
 21 39  1  0
 21 40  1  0
 21 41  1  0
 23 42  1  0
 24 43  1  0
A    1
 C1 
A    2
 C2 
A    3
 N1 
A    4
 S1 
A    5
 C3 
A    6
 N2 
A    7
 C4 
A    8
 O1 
A    9
 C5 
A   10
 C6 
A   11
 C7 
A   12
 C8 
A   13
 N3 
A   14
 C9 
A   15
 O2 
A   16
 N4 
A   17
 C10
A   18
 C11
A   19
 N5 
A   20
 C12
A   21
 C13
A   22
 C14
A   23
 C15
A   24
 C16
A   25
 H1 
A   26
 H2 
A   27
 H3 
A   28
 H4 
A   29
 H5 
A   30
 H6 
A   31
 H7 
A   32
 H8 
A   33
 H9 
A   34
 H10
A   35
 H11
A   36
 H12
A   37
 H13
A   38
 H14
A   39
 H15
A   40
 H16
A   41
 H17
A   42
 H18
A   43
 H19
M  END
>  <ref_pdb>  (280) 
x0051_0B

>  <ref_mols>  (280) 
x0904_0B,x1098_0B

>  <original SMILES>  (280) 
[H]c1c(C([H])([H])[H])nsc1N([H])C(=O)c1c([H])c([H])c2c(c1[H])n(C([H])([H])C([H])([H])N(C([H])([H])[H])C([H])([H])[H])c(=O)n2[H]

>  <index>  (280) 
466

>  <∆∆G>  (280) 
-8.493186

>  <∆G_bound>  (280) 
-7.815104

>  <∆G_unbound>  (280) 
0.678082

>  <comRMSD>  (280) 
0.940284

>  <N_constrained_atoms>  (280) 
24.0

>  <N_unconstrained_atoms>  (280) 
2.0

>  <runtime>  (280) 
66.244028

>  <LE>  (280) 
0.326661

>  <percent_hybrid>  (280) 
42.0

>  <dist>  (280) 
8.0

>  <ecfp4>  (280) 
0.227273

>  <daylight>  (280) 
0.358079

>  <topodist>  (280) 
2.0

>  <mces>  (280) 
25.0

>  <tdn>  (280) 
1.0

>  <tup>  (280) 
0.0

>  <rdn>  (280) 
0.0

>  <rup>  (280) 
1.0

>  <ldn>  (280) 
0.0

>  <lup>  (280) 
0.0

>  <mut>  (280) 
4.0

>  <maj>  (280) 
4.0

>  <min>  (280) 
0.0

>  <hyb>  (280) 
2.0

>  <sub>  (280) 
1.0

>  <query_index>  (280) 
34.0

>  <max_hit_Tanimoto>  (280) 
0.28446

>  <largest_ring>  (280) 
6

>  <N_interactions_kept>  (280) 
3.0

>  <N_interactions_lost>  (280) 
3.0

>  <interaction_uniqueness_metric>  (280) 
0.395893

>  <ad_hoc_penalty>  (280) 
-22.099029

>  <N_rotatable_bonds>  (280) 
8

>  <N_HA>  (280) 
24

>  <cluster>  (280) 
511

>  <N_interactions>  (280) 
9

>  <Enamine>  (280) 
1

>  <Mcule>  (280) 
0

>  <N_PAINS>  (280) 
0

>  <UFF_Gibbs>  (280) 
165.953999

>  <strain_per_HA>  (280) 
6.382846

>  <saltbridge:HIS:51>  (280) 
0

>  <pistack:HIS:51>  (280) 
1

>  <hydroph_interaction:HIS:51>  (280) 
1

>  <hbond:ALA:132>  (280) 
0

>  <hbond:SER:135>  (280) 
0

>  <hydroph_interaction:TYR:150>  (280) 
0

>  <pistack:TYR:161>  (280) 
2

>  <hydroph_interaction:TYR:161>  (280) 
0

>  <hydroph_interaction:ASP:83>  (280) 
0

>  <hbond:TYR:130>  (280) 
1

>  <hydroph_interaction:ALA:132>  (280) 
0

>  <hbond:HIS:51>  (280) 
0

>  <hbond:ASP:129>  (280) 
1

>  <hbond:TYR:150>  (280) 
1

>  <hbond:GLY:151>  (280) 
1

>  <hbond:TYR:161>  (280) 
0

>  <hydroph_interaction:TYR:130>  (280) 
0

>  <hydroph_interaction:PRO:131>  (280) 
0

>  <hydroph_interaction:ASP:129>  (280) 
0

>  <saltbridge:ASP:75>  (280) 
0

>  <saltbridge:ASP:83>  (280) 
0

>  <hydroph_interaction:ASN:152>  (280) 
0

>  <halogenbond:TYR:150>  (280) 
0

>  <hbond:ASP:83>  (280) 
0

>  <hydroph_interaction:VAL:155>  (280) 
0

>  <pication:TYR:161>  (280) 
0

>  <hbond:PRO:131>  (280) 
0

>  <hbond:LEU:128>  (280) 
0

>  <saltbridge:ASP:129>  (280) 
1

>  <hbond:THR:134>  (280) 
0

>  <pication:HIS:51>  (280) 
0

>  <hbond:SER:81>  (280) 
0

>  <hbond:GLY:159>  (280) 
0

>  <hydroph_interaction:PRO:101>  (280) 
0

>  <hydroph_interaction:THR:134>  (280) 
0

>  <hbond:GLY:82>  (280) 
0

>  <hydroph_interaction:GLU:104>  (280) 
0

>  <hydroph_interaction:VAL:36>  (280) 
0

>  <hydroph_interaction:MET:49>  (280) 
0

>  <halogenbond:GLU:104>  (280) 
0

>  <hydroph_interaction:LYS:107>  (280) 
0

$$$$
OZRKQBALZJUOGT-UHFFFAOYSA-N
     RDKit          3D

 51 55  0  0  0  0  0  0  0  0999 V2000
   -5.4804    5.6570  -21.2266 C   0  0  0  0  0  0  0  0  0  0  0  0
   -6.0264    5.6235  -19.8972 N   0  0  0  0  0  0  0  0  0  0  0  0
   -5.2943    4.9351  -18.8329 C   0  0  0  0  0  0  0  0  0  0  0  0
   -5.3933    5.7450  -17.5424 C   0  0  0  0  0  0  0  0  0  0  0  0
   -6.8140    6.1521  -17.2484 C   0  0  0  0  0  0  0  0  0  0  0  0
   -7.7714    6.2766  -18.2783 C   0  0  0  0  0  0  0  0  0  0  0  0
   -9.0652    6.7122  -17.9611 C   0  0  0  0  0  0  0  0  0  0  0  0
   -9.3800    7.0410  -16.6420 C   0  0  0  0  0  0  0  0  0  0  0  0
   -8.4366    6.9377  -15.6702 N   0  0  0  0  0  0  0  0  0  0  0  0
   -7.1749    6.5115  -15.9415 C   0  0  0  0  0  0  0  0  0  0  0  0
   -7.4580    5.8843  -19.7022 C   0  0  0  0  0  0  0  0  0  0  0  0
   -4.9028    4.6332  -21.6845 O   0  0  0  0  0  0  0  0  0  0  0  0
   -5.5722    6.8789  -22.0586 C   0  0  0  0  0  0  0  0  0  0  0  0
   -5.4912    6.7934  -23.4583 C   0  0  0  0  0  0  0  0  0  0  0  0
   -5.5744    7.9455  -24.2456 C   0  0  0  0  0  0  0  0  0  0  0  0
   -5.7342    9.2078  -23.6435 C   0  0  0  0  0  0  0  0  0  0  0  0
   -5.8342   10.3956  -24.3864 O   0  0  0  0  0  0  0  0  0  0  0  0
   -5.9300   10.4732  -25.8090 C   0  0  0  0  0  0  0  0  0  0  0  0
   -7.2512    9.9401  -26.2807 C   0  0  0  0  0  0  0  0  0  0  0  0
   -7.2850    8.8979  -27.1561 N   0  0  0  0  0  0  0  0  0  0  0  0
   -8.4568    8.3704  -27.6011 C   0  0  0  0  0  0  0  0  0  0  0  0
   -9.6857    8.9063  -27.1551 C   0  0  0  0  0  0  0  0  0  0  0  0
  -10.8920    8.3553  -27.6124 C   0  0  0  0  0  0  0  0  0  0  0  0
  -10.8736    7.2797  -28.5063 C   0  0  0  0  0  0  0  0  0  0  0  0
   -9.6558    6.7506  -28.9462 C   0  0  0  0  0  0  0  0  0  0  0  0
   -8.4486    7.2940  -28.4953 C   0  0  0  0  0  0  0  0  0  0  0  0
   -9.6697    9.9823  -26.2593 C   0  0  0  0  0  0  0  0  0  0  0  0
   -8.4505   10.5031  -25.8214 C   0  0  0  0  0  0  0  0  0  0  0  0
   -5.7933    9.2935  -22.2485 C   0  0  0  0  0  0  0  0  0  0  0  0
   -5.7124    8.1424  -21.4604 C   0  0  0  0  0  0  0  0  0  0  0  0
   -5.7253    3.9210  -18.6814 H   0  0  0  0  0  0  0  0  0  0  0  0
   -4.2199    4.8235  -19.1004 H   0  0  0  0  0  0  0  0  0  0  0  0
   -4.9852    5.1385  -16.7047 H   0  0  0  0  0  0  0  0  0  0  0  0
   -4.7760    6.6643  -17.6406 H   0  0  0  0  0  0  0  0  0  0  0  0
   -9.8240    6.7948  -18.7298 H   0  0  0  0  0  0  0  0  0  0  0  0
  -10.3756    7.3807  -16.3905 H   0  0  0  0  0  0  0  0  0  0  0  0
   -6.4520    6.4544  -15.1378 H   0  0  0  0  0  0  0  0  0  0  0  0
   -8.0278    4.9643  -19.9535 H   0  0  0  0  0  0  0  0  0  0  0  0
   -7.8008    6.6931  -20.3816 H   0  0  0  0  0  0  0  0  0  0  0  0
   -5.3734    5.8335  -23.9453 H   0  0  0  0  0  0  0  0  0  0  0  0
   -5.5088    7.8404  -25.3186 H   0  0  0  0  0  0  0  0  0  0  0  0
   -5.0829    9.9312  -26.2821 H   0  0  0  0  0  0  0  0  0  0  0  0
   -5.8497   11.5383  -26.1113 H   0  0  0  0  0  0  0  0  0  0  0  0
  -11.8429    8.7530  -27.2793 H   0  0  0  0  0  0  0  0  0  0  0  0
  -11.8045    6.8545  -28.8580 H   0  0  0  0  0  0  0  0  0  0  0  0
   -9.6475    5.9173  -29.6372 H   0  0  0  0  0  0  0  0  0  0  0  0
   -7.5104    6.8754  -28.8383 H   0  0  0  0  0  0  0  0  0  0  0  0
  -10.5946   10.4164  -25.8985 H   0  0  0  0  0  0  0  0  0  0  0  0
   -8.4390   11.3332  -25.1262 H   0  0  0  0  0  0  0  0  0  0  0  0
   -5.9059   10.2592  -21.7720 H   0  0  0  0  0  0  0  0  0  0  0  0
   -5.7496    8.2423  -20.3825 H   0  0  0  0  0  0  0  0  0  0  0  0
  1  2  1  0
  2  3  1  0
  3  4  1  0
  4  5  1  0
  5  6  2  0
  6  7  1  0
  7  8  2  0
  8  9  1  0
  9 10  2  0
  6 11  1  0
  1 12  2  0
  1 13  1  0
 13 14  2  0
 14 15  1  0
 15 16  2  0
 16 17  1  0
 17 18  1  0
 18 19  1  0
 19 20  2  0
 20 21  1  0
 21 22  2  0
 22 23  1  0
 23 24  2  0
 24 25  1  0
 25 26  2  0
 22 27  1  0
 27 28  2  0
 16 29  1  0
 29 30  2  0
 11  2  1  0
 10  5  1  0
 30 13  1  0
 28 19  1  0
 26 21  1  0
  3 31  1  0
  3 32  1  0
  4 33  1  0
  4 34  1  0
  7 35  1  0
  8 36  1  0
 10 37  1  0
 11 38  1  0
 11 39  1  0
 14 40  1  0
 15 41  1  0
 18 42  1  0
 18 43  1  0
 23 44  1  0
 24 45  1  0
 25 46  1  0
 26 47  1  0
 27 48  1  0
 28 49  1  0
 29 50  1  0
 30 51  1  0
A    1
 C1 
A    2
 N1 
A    3
 C2 
A    4
 C3 
A    5
 C4 
A    6
 C5 
A    7
 C6 
A    8
 C7 
A    9
 N2 
A   10
 C8 
A   11
 C9 
A   12
 O1 
A   13
 C10
A   14
 C11
A   15
 C12
A   16
 C13
A   17
 O2 
A   18
 C14
A   19
 C15
A   20
 N3 
A   21
 C16
A   22
 C17
A   23
 C18
A   24
 C19
A   25
 C20
A   26
 C21
A   27
 C22
A   28
 C23
A   29
 C24
A   30
 C25
A   31
 H1 
A   32
 H2 
A   33
 H3 
A   34
 H4 
A   35
 H5 
A   36
 H6 
A   37
 H7 
A   38
 H8 
A   39
 H9 
A   40
 H10
A   41
 H11
A   42
 H12
A   43
 H13
A   44
 H14
A   45
 H15
A   46
 H16
A   47
 H17
A   48
 H18
A   49
 H19
A   50
 H20
A   51
 H21
M  END
>  <ref_pdb>  (281) 
x0051_0B

>  <ref_mols>  (281) 
x0846_1B,x0969_0B

>  <original SMILES>  (281) 
[H]c1nc([H])c2c(c1[H])C([H])([H])N(C(=O)c1c([H])c([H])c(OC([H])([H])c3nc4c([H])c([H])c([H])c([H])c4c([H])c3[H])c([H])c1[H])C([H])([H])C2([H])[H]

>  <index>  (281) 
528

>  <∆∆G>  (281) 
-8.309393

>  <∆G_bound>  (281) 
-8.104047

>  <∆G_unbound>  (281) 
0.205345

>  <comRMSD>  (281) 
0.812258

>  <N_constrained_atoms>  (281) 
28.0

>  <N_unconstrained_atoms>  (281) 
4.0

>  <runtime>  (281) 
58.062785

>  <LE>  (281) 
0.259669

>  <percent_hybrid>  (281) 
36.0

>  <dist>  (281) 
10.0

>  <ecfp4>  (281) 
0.127451

>  <daylight>  (281) 
0.259939

>  <topodist>  (281) 
5.0

>  <mces>  (281) 
31.0

>  <tdn>  (281) 
2.0

>  <tup>  (281) 
1.0

>  <rdn>  (281) 
0.0

>  <rup>  (281) 
0.0

>  <ldn>  (281) 
0.0

>  <lup>  (281) 
2.0

>  <mut>  (281) 
5.0

>  <maj>  (281) 
5.0

>  <min>  (281) 
0.0

>  <hyb>  (281) 
0.0

>  <sub>  (281) 
2.0

>  <query_index>  (281) 
45.0

>  <max_hit_Tanimoto>  (281) 
0.232161

>  <largest_ring>  (281) 
6

>  <N_interactions_kept>  (281) 
0.5

>  <N_interactions_lost>  (281) 
2.0

>  <interaction_uniqueness_metric>  (281) 
0.179263

>  <ad_hoc_penalty>  (281) 
-22.058843

>  <N_rotatable_bonds>  (281) 
4

>  <N_HA>  (281) 
30

>  <cluster>  (281) 
5736

>  <N_interactions>  (281) 
5

>  <Enamine>  (281) 
0

>  <Mcule>  (281) 
1

>  <N_PAINS>  (281) 
0

>  <UFF_Gibbs>  (281) 
105.176365

>  <strain_per_HA>  (281) 
3.286761

>  <saltbridge:HIS:51>  (281) 
0

>  <pistack:HIS:51>  (281) 
0

>  <hydroph_interaction:HIS:51>  (281) 
0

>  <hbond:ALA:132>  (281) 
0

>  <hbond:SER:135>  (281) 
0

>  <hydroph_interaction:TYR:150>  (281) 
0

>  <pistack:TYR:161>  (281) 
1

>  <hydroph_interaction:TYR:161>  (281) 
0

>  <hydroph_interaction:ASP:83>  (281) 
0

>  <hbond:TYR:130>  (281) 
0

>  <hydroph_interaction:ALA:132>  (281) 
1

>  <hbond:HIS:51>  (281) 
0

>  <hbond:ASP:129>  (281) 
1

>  <hbond:TYR:150>  (281) 
0

>  <hbond:GLY:151>  (281) 
0

>  <hbond:TYR:161>  (281) 
0

>  <hydroph_interaction:TYR:130>  (281) 
1

>  <hydroph_interaction:PRO:131>  (281) 
1

>  <hydroph_interaction:ASP:129>  (281) 
0

>  <saltbridge:ASP:75>  (281) 
0

>  <saltbridge:ASP:83>  (281) 
0

>  <hydroph_interaction:ASN:152>  (281) 
0

>  <halogenbond:TYR:150>  (281) 
0

>  <hbond:ASP:83>  (281) 
0

>  <hydroph_interaction:VAL:155>  (281) 
0

>  <pication:TYR:161>  (281) 
0

>  <hbond:PRO:131>  (281) 
0

>  <hbond:LEU:128>  (281) 
0

>  <saltbridge:ASP:129>  (281) 
0

>  <hbond:THR:134>  (281) 
0

>  <pication:HIS:51>  (281) 
0

>  <hbond:SER:81>  (281) 
0

>  <hbond:GLY:159>  (281) 
0

>  <hydroph_interaction:PRO:101>  (281) 
0

>  <hydroph_interaction:THR:134>  (281) 
0

>  <hbond:GLY:82>  (281) 
0

>  <hydroph_interaction:GLU:104>  (281) 
0

>  <hydroph_interaction:VAL:36>  (281) 
0

>  <hydroph_interaction:MET:49>  (281) 
0

>  <halogenbond:GLU:104>  (281) 
0

>  <hydroph_interaction:LYS:107>  (281) 
0

$$$$
TZRPUSKZJLJLIS-UHFFFAOYSA-N
     RDKit          3D

 47 51  0  0  0  0  0  0  0  0999 V2000
   -6.4731    5.4965  -21.2442 C   0  0  0  0  0  0  0  0  0  0  0  0
   -6.1996    5.3987  -19.8372 N   0  0  0  0  0  0  0  0  0  0  0  0
   -4.8776    4.9318  -19.3830 C   0  0  0  0  0  0  0  0  0  0  0  0
   -4.4032    5.7348  -18.1602 C   0  0  0  0  0  0  0  0  0  0  0  0
   -5.5263    5.8998  -17.1864 C   0  0  0  0  0  0  0  0  0  0  0  0
   -5.4154    6.2818  -15.8997 N   0  0  0  0  0  0  0  0  0  0  0  0
   -6.6449    6.4005  -15.4208 N   0  0  0  0  0  0  0  0  0  0  0  0
   -7.5339    6.1160  -16.3894 C   0  0  0  0  0  0  0  0  0  0  0  0
   -8.9605    6.1609  -16.2316 C   0  0  0  0  0  0  0  0  0  0  0  0
  -10.1110    6.1966  -16.1103 N   0  0  0  0  0  0  0  0  0  0  0  0
   -6.8458    5.8103  -17.5371 C   0  0  0  0  0  0  0  0  0  0  0  0
   -7.3286    5.4076  -18.8898 C   0  0  0  0  0  0  0  0  0  0  0  0
   -6.1144    4.5609  -22.0071 O   0  0  0  0  0  0  0  0  0  0  0  0
   -7.1335    6.6974  -21.8079 C   0  0  0  0  0  0  0  0  0  0  0  0
   -7.7728    6.6402  -23.0616 C   0  0  0  0  0  0  0  0  0  0  0  0
   -8.3752    7.7818  -23.6033 C   0  0  0  0  0  0  0  0  0  0  0  0
   -8.3302    9.0032  -22.9095 C   0  0  0  0  0  0  0  0  0  0  0  0
   -8.9185   10.2488  -23.5128 C   0  0  0  0  0  0  0  0  0  0  0  0
   -7.6455   11.1434  -24.4684 S   0  0  0  0  0  0  0  0  0  0  0  0
   -7.9893   10.3140  -26.0195 C   0  0  0  0  0  0  0  0  0  0  0  0
   -9.0901   10.8861  -27.1690 S   0  0  0  0  0  0  0  0  0  0  0  0
   -8.7601    9.6096  -28.2104 C   0  0  0  0  0  0  0  0  0  0  0  0
   -7.8099    8.7819  -27.6310 C   0  0  0  0  0  0  0  0  0  0  0  0
   -7.3660    7.6417  -28.3012 C   0  0  0  0  0  0  0  0  0  0  0  0
   -7.9037    7.3517  -29.5659 C   0  0  0  0  0  0  0  0  0  0  0  0
   -8.8672    8.2019  -30.1447 C   0  0  0  0  0  0  0  0  0  0  0  0
   -9.3015    9.3492  -29.4648 C   0  0  0  0  0  0  0  0  0  0  0  0
   -7.3690    9.1739  -26.4088 N   0  0  0  0  0  0  0  0  0  0  0  0
   -7.6770    9.0663  -21.6662 C   0  0  0  0  0  0  0  0  0  0  0  0
   -7.0922    7.9222  -21.1158 C   0  0  0  0  0  0  0  0  0  0  0  0
   -4.1235    5.0426  -20.1938 H   0  0  0  0  0  0  0  0  0  0  0  0
   -4.9460    3.8552  -19.1165 H   0  0  0  0  0  0  0  0  0  0  0  0
   -4.0684    6.7420  -18.4911 H   0  0  0  0  0  0  0  0  0  0  0  0
   -3.5522    5.2181  -17.6727 H   0  0  0  0  0  0  0  0  0  0  0  0
   -6.8676    6.6805  -14.4441 H   0  0  0  0  0  0  0  0  0  0  0  0
   -7.7683    4.3912  -18.8342 H   0  0  0  0  0  0  0  0  0  0  0  0
   -8.1152    6.1152  -19.2184 H   0  0  0  0  0  0  0  0  0  0  0  0
   -7.8134    5.7106  -23.6190 H   0  0  0  0  0  0  0  0  0  0  0  0
   -8.8722    7.7132  -24.5656 H   0  0  0  0  0  0  0  0  0  0  0  0
   -9.2699   10.9256  -22.7034 H   0  0  0  0  0  0  0  0  0  0  0  0
   -9.8100   10.0095  -24.1395 H   0  0  0  0  0  0  0  0  0  0  0  0
   -6.6238    6.9919  -27.8571 H   0  0  0  0  0  0  0  0  0  0  0  0
   -7.5697    6.4749  -30.1012 H   0  0  0  0  0  0  0  0  0  0  0  0
   -9.2692    7.9722  -31.1226 H   0  0  0  0  0  0  0  0  0  0  0  0
  -10.0394   10.0099  -29.9034 H   0  0  0  0  0  0  0  0  0  0  0  0
   -7.6178   10.0034  -21.1219 H   0  0  0  0  0  0  0  0  0  0  0  0
   -6.5872    8.0023  -20.1588 H   0  0  0  0  0  0  0  0  0  0  0  0
  1  2  1  0
  2  3  1  0
  3  4  1  0
  4  5  1  0
  5  6  2  0
  6  7  1  0
  7  8  1  0
  8  9  1  0
  9 10  3  0
  8 11  2  0
 11 12  1  0
  1 13  2  0
  1 14  1  0
 14 15  2  0
 15 16  1  0
 16 17  2  0
 17 18  1  0
 18 19  1  0
 19 20  1  0
 20 21  1  0
 21 22  1  0
 22 23  2  0
 23 24  1  0
 24 25  2  0
 25 26  1  0
 26 27  2  0
 23 28  1  0
 17 29  1  0
 29 30  2  0
 12  2  1  0
 11  5  1  0
 30 14  1  0
 20 28  2  0
 27 22  1  0
  3 31  1  0
  3 32  1  0
  4 33  1  0
  4 34  1  0
  7 35  1  0
 12 36  1  0
 12 37  1  0
 15 38  1  0
 16 39  1  0
 18 40  1  0
 18 41  1  0
 24 42  1  0
 25 43  1  0
 26 44  1  0
 27 45  1  0
 29 46  1  0
 30 47  1  0
A    1
 C1 
A    2
 N1 
A    3
 C2 
A    4
 C3 
A    5
 C4 
A    6
 N2 
A    7
 N3 
A    8
 C5 
A    9
 C6 
A   10
 N4 
A   11
 C7 
A   12
 C8 
A   13
 O1 
A   14
 C9 
A   15
 C10
A   16
 C11
A   17
 C12
A   18
 C13
A   19
 S1 
A   20
 C14
A   21
 S2 
A   22
 C15
A   23
 C16
A   24
 C17
A   25
 C18
A   26
 C19
A   27
 C20
A   28
 N5 
A   29
 C21
A   30
 C22
A   31
 H1 
A   32
 H2 
A   33
 H3 
A   34
 H4 
A   35
 H5 
A   36
 H6 
A   37
 H7 
A   38
 H8 
A   39
 H9 
A   40
 H10
A   41
 H11
A   42
 H12
A   43
 H13
A   44
 H14
A   45
 H15
A   46
 H16
A   47
 H17
M  END
>  <ref_pdb>  (282) 
x0051_0B

>  <ref_mols>  (282) 
x0846_1B,x0969_0B

>  <original SMILES>  (282) 
[H]c1c([H])c(C([H])([H])Sc2nc3c([H])c([H])c([H])c([H])c3s2)c([H])c([H])c1C(=O)N1C([H])([H])c2c(nn([H])c2C#N)C([H])([H])C1([H])[H]

>  <index>  (282) 
639

>  <∆∆G>  (282) 
-7.641435

>  <∆G_bound>  (282) 
-7.292873

>  <∆G_unbound>  (282) 
0.348562

>  <comRMSD>  (282) 
0.776941

>  <N_constrained_atoms>  (282) 
28.0

>  <N_unconstrained_atoms>  (282) 
3.0

>  <runtime>  (282) 
43.133081

>  <LE>  (282) 
0.246498

>  <percent_hybrid>  (282) 
36.0

>  <dist>  (282) 
10.0

>  <ecfp4>  (282) 
0.158879

>  <daylight>  (282) 
0.257373

>  <topodist>  (282) 
5.0

>  <mces>  (282) 
31.0

>  <tdn>  (282) 
2.0

>  <tup>  (282) 
3.0

>  <rdn>  (282) 
0.0

>  <rup>  (282) 
0.0

>  <ldn>  (282) 
0.0

>  <lup>  (282) 
0.0

>  <mut>  (282) 
5.0

>  <maj>  (282) 
5.0

>  <min>  (282) 
0.0

>  <hyb>  (282) 
0.0

>  <sub>  (282) 
1.0

>  <query_index>  (282) 
45.0

>  <max_hit_Tanimoto>  (282) 
0.223821

>  <largest_ring>  (282) 
6

>  <N_interactions_kept>  (282) 
0.5

>  <N_interactions_lost>  (282) 
2.0

>  <interaction_uniqueness_metric>  (282) 
0.179263

>  <ad_hoc_penalty>  (282) 
-22.023093

>  <N_rotatable_bonds>  (282) 
4

>  <N_HA>  (282) 
30

>  <cluster>  (282) 
5634

>  <N_interactions>  (282) 
5

>  <Enamine>  (282) 
0

>  <Mcule>  (282) 
1

>  <N_PAINS>  (282) 
0

>  <UFF_Gibbs>  (282) 
56.119286

>  <strain_per_HA>  (282) 
1.8103

>  <saltbridge:HIS:51>  (282) 
0

>  <pistack:HIS:51>  (282) 
0

>  <hydroph_interaction:HIS:51>  (282) 
0

>  <hbond:ALA:132>  (282) 
0

>  <hbond:SER:135>  (282) 
0

>  <hydroph_interaction:TYR:150>  (282) 
0

>  <pistack:TYR:161>  (282) 
1

>  <hydroph_interaction:TYR:161>  (282) 
0

>  <hydroph_interaction:ASP:83>  (282) 
0

>  <hbond:TYR:130>  (282) 
0

>  <hydroph_interaction:ALA:132>  (282) 
1

>  <hbond:HIS:51>  (282) 
0

>  <hbond:ASP:129>  (282) 
1

>  <hbond:TYR:150>  (282) 
0

>  <hbond:GLY:151>  (282) 
0

>  <hbond:TYR:161>  (282) 
0

>  <hydroph_interaction:TYR:130>  (282) 
1

>  <hydroph_interaction:PRO:131>  (282) 
1

>  <hydroph_interaction:ASP:129>  (282) 
0

>  <saltbridge:ASP:75>  (282) 
0

>  <saltbridge:ASP:83>  (282) 
0

>  <hydroph_interaction:ASN:152>  (282) 
0

>  <halogenbond:TYR:150>  (282) 
0

>  <hbond:ASP:83>  (282) 
0

>  <hydroph_interaction:VAL:155>  (282) 
0

>  <pication:TYR:161>  (282) 
0

>  <hbond:PRO:131>  (282) 
0

>  <hbond:LEU:128>  (282) 
0

>  <saltbridge:ASP:129>  (282) 
0

>  <hbond:THR:134>  (282) 
0

>  <pication:HIS:51>  (282) 
0

>  <hbond:SER:81>  (282) 
0

>  <hbond:GLY:159>  (282) 
0

>  <hydroph_interaction:PRO:101>  (282) 
0

>  <hydroph_interaction:THR:134>  (282) 
0

>  <hbond:GLY:82>  (282) 
0

>  <hydroph_interaction:GLU:104>  (282) 
0

>  <hydroph_interaction:VAL:36>  (282) 
0

>  <hydroph_interaction:MET:49>  (282) 
0

>  <halogenbond:GLU:104>  (282) 
0

>  <hydroph_interaction:LYS:107>  (282) 
0

$$$$
MCULE-2533887065
     RDKit          3D

 38 40  0  0  0  0  0  0  0  0999 V2000
   -9.9971    7.0369  -13.9052 C   0  0  0  0  0  0  0  0  0  0  0  0
   -9.9169    6.4242  -15.2042 N   0  0  0  0  0  0  0  0  0  0  0  0
   -9.1426    5.2154  -15.4897 C   0  0  0  0  0  0  0  0  0  0  0  0
   -8.9178    5.0707  -16.9622 C   0  0  0  0  0  0  0  0  0  0  0  0
   -7.9143    5.6791  -17.6886 C   0  0  0  0  0  0  0  0  0  0  0  0
   -8.1146    5.2873  -18.9948 C   0  0  0  0  0  0  0  0  0  0  0  0
   -9.2280    4.4708  -18.9838 C   0  0  0  0  0  0  0  0  0  0  0  0
   -9.6862    4.3633  -17.7577 O   0  0  0  0  0  0  0  0  0  0  0  0
  -10.4114    8.2254  -13.8292 O   0  0  0  0  0  0  0  0  0  0  0  0
   -9.6218    6.3274  -12.6567 C   0  0  0  0  0  0  0  0  0  0  0  0
   -9.3449    7.0472  -11.4835 C   0  0  0  0  0  0  0  0  0  0  0  0
   -9.0142    6.3611  -10.3139 C   0  0  0  0  0  0  0  0  0  0  0  0
   -8.9632    4.9606  -10.3079 C   0  0  0  0  0  0  0  0  0  0  0  0
   -8.6281    4.2452   -9.1029 N   0  0  0  0  0  0  0  0  0  0  0  0
   -9.3156    2.9941   -8.7688 C   0  0  0  0  0  0  0  0  0  0  0  0
   -9.3221    2.7990   -7.2494 C   0  0  0  0  0  0  0  0  0  0  0  0
   -8.0132    2.9084   -6.7222 O   0  0  0  0  0  0  0  0  0  0  0  0
   -7.5290    4.2247   -6.9121 C   0  0  0  0  0  0  0  0  0  0  0  0
   -7.3725    4.5367   -8.4034 C   0  0  0  0  0  0  0  0  0  0  0  0
   -9.2621    4.2765  -11.4961 C   0  0  0  0  0  0  0  0  0  0  0  0
   -9.5798    4.9674  -12.6225 N   0  0  0  0  0  0  0  0  0  0  0  0
  -10.3495    6.9448  -16.0021 H   0  0  0  0  0  0  0  0  0  0  0  0
   -9.6938    4.3244  -15.1228 H   0  0  0  0  0  0  0  0  0  0  0  0
   -8.1563    5.2698  -14.9799 H   0  0  0  0  0  0  0  0  0  0  0  0
   -7.1361    6.3313  -17.3146 H   0  0  0  0  0  0  0  0  0  0  0  0
   -7.5220    5.5669  -19.8554 H   0  0  0  0  0  0  0  0  0  0  0  0
   -9.6689    3.9877  -19.8454 H   0  0  0  0  0  0  0  0  0  0  0  0
   -9.3811    8.1295  -11.4705 H   0  0  0  0  0  0  0  0  0  0  0  0
   -8.8172    6.9221   -9.4095 H   0  0  0  0  0  0  0  0  0  0  0  0
   -8.7868    2.1430   -9.2500 H   0  0  0  0  0  0  0  0  0  0  0  0
  -10.3658    3.0188   -9.1340 H   0  0  0  0  0  0  0  0  0  0  0  0
  -10.0120    3.5285   -6.7664 H   0  0  0  0  0  0  0  0  0  0  0  0
   -9.7109    1.7840   -7.0226 H   0  0  0  0  0  0  0  0  0  0  0  0
   -8.1963    4.9729   -6.4262 H   0  0  0  0  0  0  0  0  0  0  0  0
   -6.5350    4.3093   -6.4244 H   0  0  0  0  0  0  0  0  0  0  0  0
   -6.5637    3.9053   -8.8308 H   0  0  0  0  0  0  0  0  0  0  0  0
   -7.0809    5.6015   -8.5218 H   0  0  0  0  0  0  0  0  0  0  0  0
   -9.2321    3.1959  -11.5328 H   0  0  0  0  0  0  0  0  0  0  0  0
  1  2  1  0
  2  3  1  0
  3  4  1  0
  4  5  2  0
  5  6  1  0
  6  7  2  0
  7  8  1  0
  1  9  2  0
  1 10  1  0
 10 11  2  0
 11 12  1  0
 12 13  2  0
 13 14  1  0
 14 15  1  0
 15 16  1  0
 16 17  1  0
 17 18  1  0
 18 19  1  0
 13 20  1  0
 20 21  2  0
  8  4  1  0
 10 21  1  0
 19 14  1  0
  2 22  1  0
  3 23  1  0
  3 24  1  0
  5 25  1  0
  6 26  1  0
  7 27  1  0
 11 28  1  0
 12 29  1  0
 15 30  1  0
 15 31  1  0
 16 32  1  0
 16 33  1  0
 18 34  1  0
 18 35  1  0
 19 36  1  0
 19 37  1  0
 20 38  1  0
A    1
 C1 
A    2
 N1 
A    3
 C2 
A    4
 C3 
A    5
 C4 
A    6
 C5 
A    7
 C6 
A    8
 O1 
A    9
 O2 
A   10
 C7 
A   11
 C8 
A   12
 C9 
A   13
 C10
A   14
 N2 
A   15
 C11
A   16
 C12
A   17
 O3 
A   18
 C13
A   19
 C14
A   20
 C15
A   21
 N3 
A   22
 H1 
A   23
 H2 
A   24
 H3 
A   25
 H4 
A   26
 H5 
A   27
 H6 
A   28
 H7 
A   29
 H8 
A   30
 H9 
A   31
 H10
A   32
 H11
A   33
 H12
A   34
 H13
A   35
 H14
A   36
 H15
A   37
 H16
A   38
 H17
M  END
>  <ref_pdb>  (283) 
x0051_0B

>  <ref_mols>  (283) 
x0386_0B,x0404_0B

>  <original SMILES>  (283) 
[H]c1nc(C(=O)N([H])C([H])([H])c2oc([H])c([H])c2[H])c([H])c([H])c1N1C([H])([H])C([H])([H])OC([H])([H])C1([H])[H]

>  <index>  (283) 
539

>  <∆∆G>  (283) 
-5.014742

>  <∆G_bound>  (283) 
-4.471328

>  <∆G_unbound>  (283) 
0.543414

>  <comRMSD>  (283) 
0.786032

>  <N_constrained_atoms>  (283) 
21.0

>  <N_unconstrained_atoms>  (283) 
1.0

>  <runtime>  (283) 
53.756634

>  <LE>  (283) 
0.227943

>  <percent_hybrid>  (283) 
29.0

>  <dist>  (283) 
9.0

>  <ecfp4>  (283) 
0.195122

>  <daylight>  (283) 
0.182143

>  <topodist>  (283) 
3.0

>  <mces>  (283) 
23.0

>  <tdn>  (283) 
3.0

>  <tup>  (283) 
0.0

>  <rdn>  (283) 
0.0

>  <rup>  (283) 
0.0

>  <ldn>  (283) 
0.0

>  <lup>  (283) 
0.0

>  <mut>  (283) 
5.0

>  <maj>  (283) 
5.0

>  <min>  (283) 
0.0

>  <hyb>  (283) 
1.0

>  <sub>  (283) 
1.0

>  <query_index>  (283) 
109.0

>  <max_hit_Tanimoto>  (283) 
0.179707

>  <largest_ring>  (283) 
6

>  <N_interactions_kept>  (283) 
2.0

>  <N_interactions_lost>  (283) 
1.5

>  <interaction_uniqueness_metric>  (283) 
0.153806

>  <ad_hoc_penalty>  (283) 
-22.015607

>  <N_rotatable_bonds>  (283) 
4

>  <N_HA>  (283) 
21

>  <cluster>  (283) 
5725

>  <N_interactions>  (283) 
6

>  <Enamine>  (283) 
0

>  <Mcule>  (283) 
1

>  <N_PAINS>  (283) 
0

>  <UFF_Gibbs>  (283) 
65.657562

>  <strain_per_HA>  (283) 
2.984435

>  <saltbridge:HIS:51>  (283) 
0

>  <pistack:HIS:51>  (283) 
1

>  <hydroph_interaction:HIS:51>  (283) 
1

>  <hbond:ALA:132>  (283) 
1

>  <hbond:SER:135>  (283) 
0

>  <hydroph_interaction:TYR:150>  (283) 
1

>  <pistack:TYR:161>  (283) 
0

>  <hydroph_interaction:TYR:161>  (283) 
2

>  <hydroph_interaction:ASP:83>  (283) 
0

>  <hbond:TYR:130>  (283) 
0

>  <hydroph_interaction:ALA:132>  (283) 
0

>  <hbond:HIS:51>  (283) 
0

>  <hbond:ASP:129>  (283) 
0

>  <hbond:TYR:150>  (283) 
0

>  <hbond:GLY:151>  (283) 
0

>  <hbond:TYR:161>  (283) 
0

>  <hydroph_interaction:TYR:130>  (283) 
0

>  <hydroph_interaction:PRO:131>  (283) 
0

>  <hydroph_interaction:ASP:129>  (283) 
0

>  <saltbridge:ASP:75>  (283) 
0

>  <saltbridge:ASP:83>  (283) 
0

>  <hydroph_interaction:ASN:152>  (283) 
0

>  <halogenbond:TYR:150>  (283) 
0

>  <hbond:ASP:83>  (283) 
0

>  <hydroph_interaction:VAL:155>  (283) 
0

>  <pication:TYR:161>  (283) 
0

>  <hbond:PRO:131>  (283) 
0

>  <hbond:LEU:128>  (283) 
0

>  <saltbridge:ASP:129>  (283) 
0

>  <hbond:THR:134>  (283) 
0

>  <pication:HIS:51>  (283) 
0

>  <hbond:SER:81>  (283) 
0

>  <hbond:GLY:159>  (283) 
0

>  <hydroph_interaction:PRO:101>  (283) 
0

>  <hydroph_interaction:THR:134>  (283) 
0

>  <hbond:GLY:82>  (283) 
0

>  <hydroph_interaction:GLU:104>  (283) 
0

>  <hydroph_interaction:VAL:36>  (283) 
0

>  <hydroph_interaction:MET:49>  (283) 
0

>  <halogenbond:GLU:104>  (283) 
0

>  <hydroph_interaction:LYS:107>  (283) 
0

$$$$
Z5578388557
     RDKit          3D

 40 43  0  0  0  0  0  0  0  0999 V2000
   -9.1747    4.3602  -18.0563 C   0  0  0  0  0  0  0  0  0  0  0  0
   -8.3018    4.8715  -17.0022 N   0  0  0  0  0  0  0  0  0  0  0  0
   -8.5464    4.7901  -15.6833 C   0  0  0  0  0  0  0  0  0  0  0  0
   -7.4655    5.3304  -15.0166 C   0  0  0  0  0  0  0  0  0  0  0  0
   -7.2941    5.4502  -13.5581 C   0  0  0  0  0  0  0  0  0  0  0  0
   -6.2768    6.0468  -13.1143 O   0  0  0  0  0  0  0  0  0  0  0  0
   -8.2464    4.8692  -12.6520 N   0  0  0  0  0  0  0  0  0  0  0  0
   -8.3147    5.1794  -11.2525 C   0  0  0  0  0  0  0  0  0  0  0  0
   -9.0356    4.5030  -10.3025 C   0  0  0  0  0  0  0  0  0  0  0  0
   -9.8210    3.3636  -10.4567 O   0  0  0  0  0  0  0  0  0  0  0  0
  -10.3514    2.7147   -9.2967 C   0  0  0  0  0  0  0  0  0  0  0  0
  -10.7128    3.7403   -8.2008 C   0  0  0  0  0  0  0  0  0  0  0  0
   -9.5161    4.6623   -7.8867 C   0  0  0  0  0  0  0  0  0  0  0  0
   -8.9069    5.1291   -9.1287 N   0  0  0  0  0  0  0  0  0  0  0  0
   -8.1206    6.1861   -9.2642 N   0  0  0  0  0  0  0  0  0  0  0  0
   -7.7483    6.2478  -10.5652 C   0  0  0  0  0  0  0  0  0  0  0  0
   -6.5501    5.7608  -15.9090 N   0  0  0  0  0  0  0  0  0  0  0  0
   -7.0959    5.4808  -17.1123 C   0  0  0  0  0  0  0  0  0  0  0  0
   -6.3940    5.7859  -18.3747 C   0  0  0  0  0  0  0  0  0  0  0  0
   -7.0757    6.2692  -19.5035 C   0  0  0  0  0  0  0  0  0  0  0  0
   -6.3574    6.5674  -20.6635 C   0  0  0  0  0  0  0  0  0  0  0  0
   -4.9726    6.3985  -20.6871 C   0  0  0  0  0  0  0  0  0  0  0  0
   -4.3225    5.9407  -19.5400 C   0  0  0  0  0  0  0  0  0  0  0  0
   -5.0389    5.6536  -18.4204 N   0  0  0  0  0  0  0  0  0  0  0  0
   -9.8405    5.1710  -18.4177 H   0  0  0  0  0  0  0  0  0  0  0  0
   -9.8047    3.5334  -17.6642 H   0  0  0  0  0  0  0  0  0  0  0  0
   -8.5716    3.9594  -18.8977 H   0  0  0  0  0  0  0  0  0  0  0  0
   -9.4398    4.3606  -15.2492 H   0  0  0  0  0  0  0  0  0  0  0  0
   -8.9068    4.1454  -13.0121 H   0  0  0  0  0  0  0  0  0  0  0  0
  -11.2524    2.1323   -9.5820 H   0  0  0  0  0  0  0  0  0  0  0  0
   -9.5908    2.0087   -8.8989 H   0  0  0  0  0  0  0  0  0  0  0  0
  -11.0295    3.2091   -7.2777 H   0  0  0  0  0  0  0  0  0  0  0  0
  -11.5652    4.3595   -8.5558 H   0  0  0  0  0  0  0  0  0  0  0  0
   -9.8607    5.5309   -7.2856 H   0  0  0  0  0  0  0  0  0  0  0  0
   -8.7577    4.1009   -7.2998 H   0  0  0  0  0  0  0  0  0  0  0  0
   -7.1289    7.0330  -10.9746 H   0  0  0  0  0  0  0  0  0  0  0  0
   -8.1416    6.4460  -19.4838 H   0  0  0  0  0  0  0  0  0  0  0  0
   -6.8726    6.9399  -21.5394 H   0  0  0  0  0  0  0  0  0  0  0  0
   -4.4079    6.6304  -21.5808 H   0  0  0  0  0  0  0  0  0  0  0  0
   -3.2479    5.8159  -19.5382 H   0  0  0  0  0  0  0  0  0  0  0  0
  1  2  1  0
  2  3  1  0
  3  4  2  0
  4  5  1  0
  5  6  2  0
  5  7  1  0
  7  8  1  0
  8  9  2  0
  9 10  1  0
 10 11  1  0
 11 12  1  0
 12 13  1  0
 13 14  1  0
 14 15  1  0
 15 16  2  0
  4 17  1  0
 17 18  2  0
 18 19  1  0
 19 20  2  0
 20 21  1  0
 21 22  2  0
 22 23  1  0
 23 24  2  0
 18  2  1  0
 16  8  1  0
 14  9  1  0
 24 19  1  0
  1 25  1  0
  1 26  1  0
  1 27  1  0
  3 28  1  0
  7 29  1  0
 11 30  1  0
 11 31  1  0
 12 32  1  0
 12 33  1  0
 13 34  1  0
 13 35  1  0
 16 36  1  0
 20 37  1  0
 21 38  1  0
 22 39  1  0
 23 40  1  0
A    1
 C1 
A    2
 N1 
A    3
 C2 
A    4
 C3 
A    5
 C4 
A    6
 O1 
A    7
 N2 
A    8
 C5 
A    9
 C6 
A   10
 O2 
A   11
 C7 
A   12
 C8 
A   13
 C9 
A   14
 N3 
A   15
 N4 
A   16
 C10
A   17
 N5 
A   18
 C11
A   19
 C12
A   20
 C13
A   21
 C14
A   22
 C15
A   23
 C16
A   24
 N6 
A   25
 H1 
A   26
 H2 
A   27
 H3 
A   28
 H4 
A   29
 H5 
A   30
 H6 
A   31
 H7 
A   32
 H8 
A   33
 H9 
A   34
 H10
A   35
 H11
A   36
 H12
A   37
 H13
A   38
 H14
A   39
 H15
A   40
 H16
M  END
>  <ref_pdb>  (284) 
x0051_0B

>  <ref_mols>  (284) 
x0969_1B,x0917_0B

>  <original SMILES>  (284) 
[H]c1nc(-c2nc(C(=O)N([H])c3c([H])nn4c3OC([H])([H])C([H])([H])C4([H])[H])c([H])n2C([H])([H])[H])c([H])c([H])c1[H]

>  <index>  (284) 
478

>  <∆∆G>  (284) 
-6.625252

>  <∆G_bound>  (284) 
-6.126651

>  <∆G_unbound>  (284) 
0.498601

>  <comRMSD>  (284) 
0.627309

>  <N_constrained_atoms>  (284) 
24.0

>  <N_unconstrained_atoms>  (284) 
0.0

>  <runtime>  (284) 
62.285563

>  <LE>  (284) 
0.276052

>  <percent_hybrid>  (284) 
40.0

>  <dist>  (284) 
12.0

>  <ecfp4>  (284) 
0.197917

>  <daylight>  (284) 
0.239808

>  <topodist>  (284) 
1.0

>  <mces>  (284) 
27.0

>  <tdn>  (284) 
1.0

>  <tup>  (284) 
0.0

>  <rdn>  (284) 
0.0

>  <rup>  (284) 
0.0

>  <ldn>  (284) 
0.0

>  <lup>  (284) 
0.0

>  <mut>  (284) 
6.0

>  <maj>  (284) 
6.0

>  <min>  (284) 
0.0

>  <hyb>  (284) 
5.0

>  <sub>  (284) 
0.0

>  <query_index>  (284) 
70.0

>  <max_hit_Tanimoto>  (284) 
0.263869

>  <largest_ring>  (284) 
6

>  <N_interactions_kept>  (284) 
2.5

>  <N_interactions_lost>  (284) 
1.5

>  <interaction_uniqueness_metric>  (284) 
0.138244

>  <ad_hoc_penalty>  (284) 
-22.009763

>  <N_rotatable_bonds>  (284) 
4

>  <N_HA>  (284) 
24

>  <cluster>  (284) 
5783

>  <N_interactions>  (284) 
5

>  <Enamine>  (284) 
1

>  <Mcule>  (284) 
0

>  <N_PAINS>  (284) 
0

>  <UFF_Gibbs>  (284) 
88.673646

>  <strain_per_HA>  (284) 
3.694735

>  <saltbridge:HIS:51>  (284) 
0

>  <pistack:HIS:51>  (284) 
1

>  <hydroph_interaction:HIS:51>  (284) 
1

>  <hbond:ALA:132>  (284) 
0

>  <hbond:SER:135>  (284) 
0

>  <hydroph_interaction:TYR:150>  (284) 
0

>  <pistack:TYR:161>  (284) 
1

>  <hydroph_interaction:TYR:161>  (284) 
0

>  <hydroph_interaction:ASP:83>  (284) 
0

>  <hbond:TYR:130>  (284) 
0

>  <hydroph_interaction:ALA:132>  (284) 
1

>  <hbond:HIS:51>  (284) 
0

>  <hbond:ASP:129>  (284) 
0

>  <hbond:TYR:150>  (284) 
0

>  <hbond:GLY:151>  (284) 
1

>  <hbond:TYR:161>  (284) 
0

>  <hydroph_interaction:TYR:130>  (284) 
0

>  <hydroph_interaction:PRO:131>  (284) 
0

>  <hydroph_interaction:ASP:129>  (284) 
0

>  <saltbridge:ASP:75>  (284) 
0

>  <saltbridge:ASP:83>  (284) 
0

>  <hydroph_interaction:ASN:152>  (284) 
0

>  <halogenbond:TYR:150>  (284) 
0

>  <hbond:ASP:83>  (284) 
0

>  <hydroph_interaction:VAL:155>  (284) 
0

>  <pication:TYR:161>  (284) 
0

>  <hbond:PRO:131>  (284) 
0

>  <hbond:LEU:128>  (284) 
0

>  <saltbridge:ASP:129>  (284) 
0

>  <hbond:THR:134>  (284) 
0

>  <pication:HIS:51>  (284) 
0

>  <hbond:SER:81>  (284) 
0

>  <hbond:GLY:159>  (284) 
0

>  <hydroph_interaction:PRO:101>  (284) 
0

>  <hydroph_interaction:THR:134>  (284) 
0

>  <hbond:GLY:82>  (284) 
0

>  <hydroph_interaction:GLU:104>  (284) 
0

>  <hydroph_interaction:VAL:36>  (284) 
0

>  <hydroph_interaction:MET:49>  (284) 
0

>  <halogenbond:GLU:104>  (284) 
0

>  <hydroph_interaction:LYS:107>  (284) 
0

$$$$
CSSS00000018849
     RDKit          3D

 21 22  0  0  0  0  0  0  0  0999 V2000
   -6.0741    4.9747  -20.0378 C   0  0  0  0  0  0  0  0  0  0  0  0
   -6.4080    5.8348  -18.8142 C   0  0  0  0  0  0  0  0  0  0  0  0
   -5.3731    5.6173  -17.7795 N   0  0  0  0  0  0  0  0  0  0  0  0
   -5.7251    6.2655  -16.5049 C   0  0  0  0  0  0  0  0  0  0  0  0
   -6.9492    5.5843  -15.8790 C   0  0  0  0  0  0  0  0  0  0  0  0
   -8.0195    5.4453  -16.9102 C   0  0  0  0  0  0  0  0  0  0  0  0
   -7.7842    5.5027  -18.2742 C   0  0  0  0  0  0  0  0  0  0  0  0
   -8.9559    5.3579  -19.0356 C   0  0  0  0  0  0  0  0  0  0  0  0
  -10.0901    5.1313  -18.2628 C   0  0  0  0  0  0  0  0  0  0  0  0
   -9.6481    5.1446  -16.6369 S   0  0  0  0  0  0  0  0  0  0  0  0
   -6.1491    3.8952  -19.7849 H   0  0  0  0  0  0  0  0  0  0  0  0
   -6.7617    5.2030  -20.8786 H   0  0  0  0  0  0  0  0  0  0  0  0
   -5.0398    5.1887  -20.3817 H   0  0  0  0  0  0  0  0  0  0  0  0
   -6.4044    6.9045  -19.1239 H   0  0  0  0  0  0  0  0  0  0  0  0
   -4.4815    6.0526  -18.1151 H   0  0  0  0  0  0  0  0  0  0  0  0
   -5.9312    7.3485  -16.6647 H   0  0  0  0  0  0  0  0  0  0  0  0
   -4.8698    6.1823  -15.7998 H   0  0  0  0  0  0  0  0  0  0  0  0
   -7.3216    6.1892  -15.0251 H   0  0  0  0  0  0  0  0  0  0  0  0
   -6.6691    4.5739  -15.5122 H   0  0  0  0  0  0  0  0  0  0  0  0
   -8.9880    5.4216  -20.1146 H   0  0  0  0  0  0  0  0  0  0  0  0
  -11.0914    4.9848  -18.6444 H   0  0  0  0  0  0  0  0  0  0  0  0
  1  2  1  0
  2  3  1  0
  3  4  1  0
  4  5  1  0
  5  6  1  0
  6  7  2  0
  7  8  1  0
  8  9  2  0
  9 10  1  0
  7  2  1  0
 10  6  1  0
  1 11  1  0
  1 12  1  0
  1 13  1  0
  2 14  1  0
  3 15  1  0
  4 16  1  0
  4 17  1  0
  5 18  1  0
  5 19  1  0
  8 20  1  0
  9 21  1  0
A    1
 C1 
A    2
 C2 
A    3
 N1 
A    4
 C3 
A    5
 C4 
A    6
 C5 
A    7
 C6 
A    8
 C7 
A    9
 C8 
A   10
 S1 
A   11
 H1 
A   12
 H2 
A   13
 H3 
A   14
 H4 
A   15
 H5 
A   16
 H6 
A   17
 H7 
A   18
 H8 
A   19
 H9 
A   20
 H10
A   21
 H11
M  END
>  <ref_pdb>  (285) 
x0051_0B

>  <ref_mols>  (285) 
x0472_0B,x0386_0B

>  <original SMILES>  (285) 
[H]c1sc2c(c1[H])C([H])(C([H])([H])[H])N([H])C([H])([H])C2([H])[H]

>  <index>  (285) 
564

>  <∆∆G>  (285) 
-5.955018

>  <∆G_bound>  (285) 
-5.950368

>  <∆G_unbound>  (285) 
0.00465

>  <comRMSD>  (285) 
0.485991

>  <N_constrained_atoms>  (285) 
11.0

>  <N_unconstrained_atoms>  (285) 
0.0

>  <runtime>  (285) 
20.639339

>  <LE>  (285) 
0.541365

>  <percent_hybrid>  (285) 
20.0

>  <dist>  (285) 
5.0

>  <ecfp4>  (285) 
0.369565

>  <daylight>  (285) 
0.735537

>  <topodist>  (285) 
4.0

>  <mces>  (285) 
11.0

>  <tdn>  (285) 
4.0

>  <tup>  (285) 
0.0

>  <rdn>  (285) 
0.0

>  <rup>  (285) 
0.0

>  <ldn>  (285) 
0.0

>  <lup>  (285) 
0.0

>  <mut>  (285) 
1.0

>  <maj>  (285) 
1.0

>  <min>  (285) 
0.0

>  <hyb>  (285) 
0.0

>  <sub>  (285) 
1.0

>  <query_index>  (285) 
75.0

>  <max_hit_Tanimoto>  (285) 
0.59799

>  <largest_ring>  (285) 
6

>  <N_interactions_kept>  (285) 
2.0

>  <N_interactions_lost>  (285) 
1.0

>  <interaction_uniqueness_metric>  (285) 
0.044444

>  <ad_hoc_penalty>  (285) 
-21.994421

>  <N_rotatable_bonds>  (285) 
1

>  <N_HA>  (285) 
10

>  <cluster>  (285) 
5702

>  <N_interactions>  (285) 
3

>  <Enamine>  (285) 
1

>  <Mcule>  (285) 
0

>  <N_PAINS>  (285) 
0

>  <UFF_Gibbs>  (285) 
17.13251

>  <strain_per_HA>  (285) 
1.557501

>  <saltbridge:HIS:51>  (285) 
0

>  <pistack:HIS:51>  (285) 
0

>  <hydroph_interaction:HIS:51>  (285) 
0

>  <hbond:ALA:132>  (285) 
0

>  <hbond:SER:135>  (285) 
0

>  <hydroph_interaction:TYR:150>  (285) 
0

>  <pistack:TYR:161>  (285) 
1

>  <hydroph_interaction:TYR:161>  (285) 
1

>  <hydroph_interaction:ASP:83>  (285) 
0

>  <hbond:TYR:130>  (285) 
0

>  <hydroph_interaction:ALA:132>  (285) 
1

>  <hbond:HIS:51>  (285) 
0

>  <hbond:ASP:129>  (285) 
0

>  <hbond:TYR:150>  (285) 
0

>  <hbond:GLY:151>  (285) 
0

>  <hbond:TYR:161>  (285) 
0

>  <hydroph_interaction:TYR:130>  (285) 
0

>  <hydroph_interaction:PRO:131>  (285) 
0

>  <hydroph_interaction:ASP:129>  (285) 
0

>  <saltbridge:ASP:75>  (285) 
0

>  <saltbridge:ASP:83>  (285) 
0

>  <hydroph_interaction:ASN:152>  (285) 
0

>  <halogenbond:TYR:150>  (285) 
0

>  <hbond:ASP:83>  (285) 
0

>  <hydroph_interaction:VAL:155>  (285) 
0

>  <pication:TYR:161>  (285) 
0

>  <hbond:PRO:131>  (285) 
0

>  <hbond:LEU:128>  (285) 
0

>  <saltbridge:ASP:129>  (285) 
0

>  <hbond:THR:134>  (285) 
0

>  <pication:HIS:51>  (285) 
0

>  <hbond:SER:81>  (285) 
0

>  <hbond:GLY:159>  (285) 
0

>  <hydroph_interaction:PRO:101>  (285) 
0

>  <hydroph_interaction:THR:134>  (285) 
0

>  <hbond:GLY:82>  (285) 
0

>  <hydroph_interaction:GLU:104>  (285) 
0

>  <hydroph_interaction:VAL:36>  (285) 
0

>  <hydroph_interaction:MET:49>  (285) 
0

>  <halogenbond:GLU:104>  (285) 
0

>  <hydroph_interaction:LYS:107>  (285) 
0

$$$$
VRUSPTOTRNTVBE-UHFFFAOYSA-N
     RDKit          3D

 44 47  0  0  0  0  0  0  0  0999 V2000
   -8.1899    5.9733  -14.1125 C   0  0  0  0  0  0  0  0  0  0  0  0
   -8.6324    5.7941  -12.7573 N   0  0  0  0  0  0  0  0  0  0  0  0
   -9.3758    4.6191  -12.3032 C   0  0  0  0  0  0  0  0  0  0  0  0
   -9.6040    4.6769  -10.8254 C   0  0  0  0  0  0  0  0  0  0  0  0
   -8.7737    4.2329   -9.8260 C   0  0  0  0  0  0  0  0  0  0  0  0
   -9.2996    4.5507   -8.6393 N   0  0  0  0  0  0  0  0  0  0  0  0
   -8.6510    4.2734   -7.3614 C   0  0  0  0  0  0  0  0  0  0  0  0
   -7.6229    3.1352   -7.5279 C   0  0  0  0  0  0  0  0  0  0  0  0
   -6.7534    3.3520   -8.7846 C   0  0  0  0  0  0  0  0  0  0  0  0
   -7.5642    3.5536   -9.9459 O   0  0  0  0  0  0  0  0  0  0  0  0
  -10.4217    5.2324   -8.8134 N   0  0  0  0  0  0  0  0  0  0  0  0
  -10.6305    5.3227  -10.1481 C   0  0  0  0  0  0  0  0  0  0  0  0
   -7.6176    7.0535  -14.4236 O   0  0  0  0  0  0  0  0  0  0  0  0
   -8.3310    4.8788  -15.1541 C   0  0  0  0  0  0  0  0  0  0  0  0
   -8.5861    5.4720  -16.5279 C   0  0  0  0  0  0  0  0  0  0  0  0
   -7.5719    5.5276  -17.5167 C   0  0  0  0  0  0  0  0  0  0  0  0
   -7.8523    6.1211  -18.7588 C   0  0  0  0  0  0  0  0  0  0  0  0
   -9.1088    6.6757  -19.0133 C   0  0  0  0  0  0  0  0  0  0  0  0
  -10.1025    6.6357  -18.0352 C   0  0  0  0  0  0  0  0  0  0  0  0
   -9.8439    6.0399  -16.7992 C   0  0  0  0  0  0  0  0  0  0  0  0
   -6.2339    4.8546  -17.3212 C   0  0  0  0  0  0  0  0  0  0  0  0
   -5.9069    4.5944  -15.8494 C   0  0  0  0  0  0  0  0  0  0  0  0
   -7.0998    3.9533  -15.1375 C   0  0  0  0  0  0  0  0  0  0  0  0
   -8.4284    6.5629  -12.0784 H   0  0  0  0  0  0  0  0  0  0  0  0
  -10.3564    4.5771  -12.8222 H   0  0  0  0  0  0  0  0  0  0  0  0
   -8.8047    3.6974  -12.5414 H   0  0  0  0  0  0  0  0  0  0  0  0
   -8.1338    5.1922   -7.0104 H   0  0  0  0  0  0  0  0  0  0  0  0
   -9.4130    3.9834   -6.6073 H   0  0  0  0  0  0  0  0  0  0  0  0
   -6.9746    3.0819   -6.6274 H   0  0  0  0  0  0  0  0  0  0  0  0
   -8.1612    2.1674   -7.6259 H   0  0  0  0  0  0  0  0  0  0  0  0
   -6.1115    4.2464   -8.6336 H   0  0  0  0  0  0  0  0  0  0  0  0
   -6.0947    2.4730   -8.9457 H   0  0  0  0  0  0  0  0  0  0  0  0
  -11.4653    5.8420  -10.5990 H   0  0  0  0  0  0  0  0  0  0  0  0
   -9.2130    4.2513  -14.9064 H   0  0  0  0  0  0  0  0  0  0  0  0
   -7.0981    6.1460  -19.5357 H   0  0  0  0  0  0  0  0  0  0  0  0
   -9.3140    7.1325  -19.9730 H   0  0  0  0  0  0  0  0  0  0  0  0
  -11.0751    7.0680  -18.2347 H   0  0  0  0  0  0  0  0  0  0  0  0
  -10.6244    6.0244  -16.0477 H   0  0  0  0  0  0  0  0  0  0  0  0
   -6.2463    3.8862  -17.8666 H   0  0  0  0  0  0  0  0  0  0  0  0
   -5.4271    5.4822  -17.7589 H   0  0  0  0  0  0  0  0  0  0  0  0
   -5.0340    3.9095  -15.7872 H   0  0  0  0  0  0  0  0  0  0  0  0
   -5.6254    5.5454  -15.3495 H   0  0  0  0  0  0  0  0  0  0  0  0
   -7.3535    2.9956  -15.6443 H   0  0  0  0  0  0  0  0  0  0  0  0
   -6.8160    3.7056  -14.0910 H   0  0  0  0  0  0  0  0  0  0  0  0
  1  2  1  0
  2  3  1  0
  3  4  1  0
  4  5  2  0
  5  6  1  0
  6  7  1  0
  7  8  1  0
  8  9  1  0
  9 10  1  0
  6 11  1  0
 11 12  2  0
  1 13  2  0
  1 14  1  0
 14 15  1  0
 15 16  1  0
 16 17  2  0
 17 18  1  0
 18 19  2  0
 19 20  1  0
 16 21  1  0
 21 22  1  0
 22 23  1  0
 12  4  1  0
 10  5  1  0
 23 14  1  0
 20 15  2  0
  2 24  1  0
  3 25  1  0
  3 26  1  0
  7 27  1  0
  7 28  1  0
  8 29  1  0
  8 30  1  0
  9 31  1  0
  9 32  1  0
 12 33  1  0
 14 34  1  0
 17 35  1  0
 18 36  1  0
 19 37  1  0
 20 38  1  0
 21 39  1  0
 21 40  1  0
 22 41  1  0
 22 42  1  0
 23 43  1  0
 23 44  1  0
A    1
 C1 
A    2
 N1 
A    3
 C2 
A    4
 C3 
A    5
 C4 
A    6
 N2 
A    7
 C5 
A    8
 C6 
A    9
 C7 
A   10
 O1 
A   11
 N3 
A   12
 C8 
A   13
 O2 
A   14
 C9 
A   15
 C10
A   16
 C11
A   17
 C12
A   18
 C13
A   19
 C14
A   20
 C15
A   21
 C16
A   22
 C17
A   23
 C18
A   24
 H1 
A   25
 H2 
A   26
 H3 
A   27
 H4 
A   28
 H5 
A   29
 H6 
A   30
 H7 
A   31
 H8 
A   32
 H9 
A   33
 H10
A   34
 H11
A   35
 H12
A   36
 H13
A   37
 H14
A   38
 H15
A   39
 H16
A   40
 H17
A   41
 H18
A   42
 H19
A   43
 H20
A   44
 H21
M  END
>  <ref_pdb>  (286) 
x0051_0B

>  <ref_mols>  (286) 
x0969_1B,x0455_0B

>  <original SMILES>  (286) 
[H]c1nn2c(c1C([H])([H])N([H])C(=O)C1([H])c3c([H])c([H])c([H])c([H])c3C([H])([H])C([H])([H])C1([H])[H])OC([H])([H])C([H])([H])C2([H])[H]

>  <index>  (286) 
279

>  <∆∆G>  (286) 
-7.690037

>  <∆G_bound>  (286) 
-6.775607

>  <∆G_unbound>  (286) 
0.91443

>  <comRMSD>  (286) 
0.335952

>  <N_constrained_atoms>  (286) 
20.0

>  <N_unconstrained_atoms>  (286) 
3.0

>  <runtime>  (286) 
67.033165

>  <LE>  (286) 
0.334349

>  <percent_hybrid>  (286) 
50.0

>  <dist>  (286) 
7.0

>  <ecfp4>  (286) 
0.27381

>  <daylight>  (286) 
0.243316

>  <topodist>  (286) 
1.0

>  <mces>  (286) 
25.0

>  <tdn>  (286) 
0.0

>  <tup>  (286) 
1.0

>  <rdn>  (286) 
0.0

>  <rup>  (286) 
0.0

>  <ldn>  (286) 
0.0

>  <lup>  (286) 
0.0

>  <mut>  (286) 
5.0

>  <maj>  (286) 
5.0

>  <min>  (286) 
0.0

>  <hyb>  (286) 
1.0

>  <sub>  (286) 
0.0

>  <query_index>  (286) 
204.0

>  <max_hit_Tanimoto>  (286) 
0.248912

>  <largest_ring>  (286) 
6

>  <N_interactions_kept>  (286) 
1.0

>  <N_interactions_lost>  (286) 
1.5

>  <interaction_uniqueness_metric>  (286) 
0.094571

>  <ad_hoc_penalty>  (286) 
-21.983883

>  <N_rotatable_bonds>  (286) 
3

>  <N_HA>  (286) 
23

>  <cluster>  (286) 
5961

>  <N_interactions>  (286) 
5

>  <Enamine>  (286) 
0

>  <Mcule>  (286) 
1

>  <N_PAINS>  (286) 
0

>  <UFF_Gibbs>  (286) 
154.710689

>  <strain_per_HA>  (286) 
6.726552

>  <saltbridge:HIS:51>  (286) 
0

>  <pistack:HIS:51>  (286) 
1

>  <hydroph_interaction:HIS:51>  (286) 
1

>  <hbond:ALA:132>  (286) 
0

>  <hbond:SER:135>  (286) 
0

>  <hydroph_interaction:TYR:150>  (286) 
1

>  <pistack:TYR:161>  (286) 
0

>  <hydroph_interaction:TYR:161>  (286) 
2

>  <hydroph_interaction:ASP:83>  (286) 
0

>  <hbond:TYR:130>  (286) 
0

>  <hydroph_interaction:ALA:132>  (286) 
0

>  <hbond:HIS:51>  (286) 
0

>  <hbond:ASP:129>  (286) 
0

>  <hbond:TYR:150>  (286) 
0

>  <hbond:GLY:151>  (286) 
0

>  <hbond:TYR:161>  (286) 
0

>  <hydroph_interaction:TYR:130>  (286) 
0

>  <hydroph_interaction:PRO:131>  (286) 
0

>  <hydroph_interaction:ASP:129>  (286) 
0

>  <saltbridge:ASP:75>  (286) 
0

>  <saltbridge:ASP:83>  (286) 
0

>  <hydroph_interaction:ASN:152>  (286) 
0

>  <halogenbond:TYR:150>  (286) 
0

>  <hbond:ASP:83>  (286) 
0

>  <hydroph_interaction:VAL:155>  (286) 
0

>  <pication:TYR:161>  (286) 
0

>  <hbond:PRO:131>  (286) 
0

>  <hbond:LEU:128>  (286) 
0

>  <saltbridge:ASP:129>  (286) 
0

>  <hbond:THR:134>  (286) 
0

>  <pication:HIS:51>  (286) 
0

>  <hbond:SER:81>  (286) 
0

>  <hbond:GLY:159>  (286) 
0

>  <hydroph_interaction:PRO:101>  (286) 
0

>  <hydroph_interaction:THR:134>  (286) 
0

>  <hbond:GLY:82>  (286) 
0

>  <hydroph_interaction:GLU:104>  (286) 
0

>  <hydroph_interaction:VAL:36>  (286) 
0

>  <hydroph_interaction:MET:49>  (286) 
0

>  <halogenbond:GLU:104>  (286) 
0

>  <hydroph_interaction:LYS:107>  (286) 
0

$$$$
WSWSOBZSGXHFFP-UHFFFAOYSA-N
     RDKit          3D

 36 39  0  0  0  0  0  0  0  0999 V2000
   -8.7433    6.5738  -12.1957 C   0  0  0  0  0  0  0  0  0  0  0  0
   -9.0410    5.6625  -13.2638 N   0  0  0  0  0  0  0  0  0  0  0  0
   -8.6472    5.8924  -14.6237 C   0  0  0  0  0  0  0  0  0  0  0  0
   -8.9494    5.0873  -15.7018 C   0  0  0  0  0  0  0  0  0  0  0  0
   -8.3430    5.6931  -16.7659 C   0  0  0  0  0  0  0  0  0  0  0  0
   -8.4183    5.1674  -18.0538 C   0  0  0  0  0  0  0  0  0  0  0  0
   -9.1485    3.9759  -18.2292 C   0  0  0  0  0  0  0  0  0  0  0  0
   -9.7749    3.3488  -17.1263 C   0  0  0  0  0  0  0  0  0  0  0  0
   -9.6780    3.9070  -15.8370 C   0  0  0  0  0  0  0  0  0  0  0  0
   -7.7057    6.8023  -16.3539 N   0  0  0  0  0  0  0  0  0  0  0  0
   -7.8836    6.9307  -15.0431 N   0  0  0  0  0  0  0  0  0  0  0  0
   -8.4416    7.7705  -12.4535 O   0  0  0  0  0  0  0  0  0  0  0  0
   -8.8277    6.1491  -10.7847 C   0  0  0  0  0  0  0  0  0  0  0  0
   -8.7038    4.8829  -10.2336 C   0  0  0  0  0  0  0  0  0  0  0  0
   -8.8299    4.9896   -8.8970 N   0  0  0  0  0  0  0  0  0  0  0  0
   -8.6551    3.8999   -7.9373 C   0  0  0  0  0  0  0  0  0  0  0  0
   -8.7689    2.5340   -8.6322 C   0  0  0  0  0  0  0  0  0  0  0  0
   -7.9577    2.5184   -9.9369 C   0  0  0  0  0  0  0  0  0  0  0  0
   -8.4814    3.5685  -10.9278 C   0  0  0  0  0  0  0  0  0  0  0  0
   -8.9838    6.2587   -8.5565 N   0  0  0  0  0  0  0  0  0  0  0  0
   -8.9896    6.9867   -9.6919 C   0  0  0  0  0  0  0  0  0  0  0  0
   -9.6061    4.8118  -13.0551 H   0  0  0  0  0  0  0  0  0  0  0  0
   -7.9330    5.6550  -18.8892 H   0  0  0  0  0  0  0  0  0  0  0  0
   -9.2300    3.5364  -19.2148 H   0  0  0  0  0  0  0  0  0  0  0  0
  -10.3322    2.4330  -17.2741 H   0  0  0  0  0  0  0  0  0  0  0  0
  -10.1528    3.4333  -14.9881 H   0  0  0  0  0  0  0  0  0  0  0  0
   -7.1542    7.4635  -16.9445 H   0  0  0  0  0  0  0  0  0  0  0  0
   -7.6519    3.9915   -7.4679 H   0  0  0  0  0  0  0  0  0  0  0  0
   -9.4246    3.9763   -7.1395 H   0  0  0  0  0  0  0  0  0  0  0  0
   -9.8366    2.3198   -8.8578 H   0  0  0  0  0  0  0  0  0  0  0  0
   -8.3942    1.7405   -7.9505 H   0  0  0  0  0  0  0  0  0  0  0  0
   -6.8878    2.7216   -9.7097 H   0  0  0  0  0  0  0  0  0  0  0  0
   -8.0229    1.5110  -10.4014 H   0  0  0  0  0  0  0  0  0  0  0  0
   -7.7481    3.6908  -11.7533 H   0  0  0  0  0  0  0  0  0  0  0  0
   -9.4475    3.2166  -11.3479 H   0  0  0  0  0  0  0  0  0  0  0  0
   -9.0996    8.0627   -9.7206 H   0  0  0  0  0  0  0  0  0  0  0  0
  1  2  1  0
  2  3  1  0
  3  4  1  0
  4  5  1  0
  5  6  2  0
  6  7  1  0
  7  8  2  0
  8  9  1  0
  5 10  1  0
 10 11  1  0
  1 12  2  0
  1 13  1  0
 13 14  2  0
 14 15  1  0
 15 16  1  0
 16 17  1  0
 17 18  1  0
 18 19  1  0
 15 20  1  0
 20 21  2  0
  3 11  2  0
  9  4  2  0
 21 13  1  0
 19 14  1  0
  2 22  1  0
  6 23  1  0
  7 24  1  0
  8 25  1  0
  9 26  1  0
 10 27  1  0
 16 28  1  0
 16 29  1  0
 17 30  1  0
 17 31  1  0
 18 32  1  0
 18 33  1  0
 19 34  1  0
 19 35  1  0
 21 36  1  0
A    1
 C1 
A    2
 N1 
A    3
 C2 
A    4
 C3 
A    5
 C4 
A    6
 C5 
A    7
 C6 
A    8
 C7 
A    9
 C8 
A   10
 N2 
A   11
 N3 
A   12
 O1 
A   13
 C9 
A   14
 C10
A   15
 N4 
A   16
 C11
A   17
 C12
A   18
 C13
A   19
 C14
A   20
 N5 
A   21
 C15
A   22
 H1 
A   23
 H2 
A   24
 H3 
A   25
 H4 
A   26
 H5 
A   27
 H6 
A   28
 H7 
A   29
 H8 
A   30
 H9 
A   31
 H10
A   32
 H11
A   33
 H12
A   34
 H13
A   35
 H14
A   36
 H15
M  END
>  <ref_pdb>  (287) 
x0051_0B

>  <ref_mols>  (287) 
x0951_0B,x0969_1B

>  <original SMILES>  (287) 
[H]c1nn2c(c1C(=O)N([H])c1nn([H])c3c([H])c([H])c([H])c([H])c13)C([H])([H])C([H])([H])C([H])([H])C2([H])[H]

>  <index>  (287) 
274

>  <∆∆G>  (287) 
-6.334461

>  <∆G_bound>  (287) 
-5.718673

>  <∆G_unbound>  (287) 
0.615788

>  <comRMSD>  (287) 
0.427645

>  <N_constrained_atoms>  (287) 
20.0

>  <N_unconstrained_atoms>  (287) 
1.0

>  <runtime>  (287) 
53.242

>  <LE>  (287) 
0.301641

>  <percent_hybrid>  (287) 
48.0

>  <dist>  (287) 
6.0

>  <ecfp4>  (287) 
0.175

>  <daylight>  (287) 
0.253687

>  <topodist>  (287) 
0.0

>  <mces>  (287) 
24.0

>  <tdn>  (287) 
0.0

>  <tup>  (287) 
0.0

>  <rdn>  (287) 
0.0

>  <rup>  (287) 
0.0

>  <ldn>  (287) 
0.0

>  <lup>  (287) 
0.0

>  <mut>  (287) 
5.0

>  <maj>  (287) 
5.0

>  <min>  (287) 
0.0

>  <hyb>  (287) 
1.0

>  <sub>  (287) 
0.0

>  <query_index>  (287) 
201.0

>  <max_hit_Tanimoto>  (287) 
0.308642

>  <largest_ring>  (287) 
6

>  <N_interactions_kept>  (287) 
1.5

>  <N_interactions_lost>  (287) 
1.5

>  <interaction_uniqueness_metric>  (287) 
0.099864

>  <ad_hoc_penalty>  (287) 
-21.983269

>  <N_rotatable_bonds>  (287) 
2

>  <N_HA>  (287) 
21

>  <cluster>  (287) 
5966

>  <N_interactions>  (287) 
5

>  <Enamine>  (287) 
0

>  <Mcule>  (287) 
1

>  <N_PAINS>  (287) 
0

>  <UFF_Gibbs>  (287) 
143.346922

>  <strain_per_HA>  (287) 
6.826044

>  <saltbridge:HIS:51>  (287) 
0

>  <pistack:HIS:51>  (287) 
1

>  <hydroph_interaction:HIS:51>  (287) 
0

>  <hbond:ALA:132>  (287) 
0

>  <hbond:SER:135>  (287) 
0

>  <hydroph_interaction:TYR:150>  (287) 
1

>  <pistack:TYR:161>  (287) 
2

>  <hydroph_interaction:TYR:161>  (287) 
0

>  <hydroph_interaction:ASP:83>  (287) 
0

>  <hbond:TYR:130>  (287) 
0

>  <hydroph_interaction:ALA:132>  (287) 
0

>  <hbond:HIS:51>  (287) 
0

>  <hbond:ASP:129>  (287) 
0

>  <hbond:TYR:150>  (287) 
0

>  <hbond:GLY:151>  (287) 
1

>  <hbond:TYR:161>  (287) 
0

>  <hydroph_interaction:TYR:130>  (287) 
0

>  <hydroph_interaction:PRO:131>  (287) 
0

>  <hydroph_interaction:ASP:129>  (287) 
0

>  <saltbridge:ASP:75>  (287) 
0

>  <saltbridge:ASP:83>  (287) 
0

>  <hydroph_interaction:ASN:152>  (287) 
0

>  <halogenbond:TYR:150>  (287) 
0

>  <hbond:ASP:83>  (287) 
0

>  <hydroph_interaction:VAL:155>  (287) 
0

>  <pication:TYR:161>  (287) 
0

>  <hbond:PRO:131>  (287) 
0

>  <hbond:LEU:128>  (287) 
0

>  <saltbridge:ASP:129>  (287) 
0

>  <hbond:THR:134>  (287) 
0

>  <pication:HIS:51>  (287) 
0

>  <hbond:SER:81>  (287) 
0

>  <hbond:GLY:159>  (287) 
0

>  <hydroph_interaction:PRO:101>  (287) 
0

>  <hydroph_interaction:THR:134>  (287) 
0

>  <hbond:GLY:82>  (287) 
0

>  <hydroph_interaction:GLU:104>  (287) 
0

>  <hydroph_interaction:VAL:36>  (287) 
0

>  <hydroph_interaction:MET:49>  (287) 
0

>  <halogenbond:GLU:104>  (287) 
0

>  <hydroph_interaction:LYS:107>  (287) 
0

$$$$
JDMLZCCEHNQKOQ-UHFFFAOYSA-N
     RDKit          3D

 53 56  0  0  0  0  0  0  0  0999 V2000
   -5.4498    6.2664  -20.8706 O   0  0  0  0  0  0  0  0  0  0  0  0
   -6.5390    6.4119  -21.7408 C   0  0  0  0  0  0  0  0  0  0  0  0
   -7.2749    5.4228  -22.0099 O   0  0  0  0  0  0  0  0  0  0  0  0
   -6.8298    7.7362  -22.3323 C   0  0  0  0  0  0  0  0  0  0  0  0
   -7.9451    7.9212  -23.1687 C   0  0  0  0  0  0  0  0  0  0  0  0
   -8.2224    9.1798  -23.7105 C   0  0  0  0  0  0  0  0  0  0  0  0
   -7.3916   10.2744  -23.4243 C   0  0  0  0  0  0  0  0  0  0  0  0
   -7.6728   11.6257  -24.0216 C   0  0  0  0  0  0  0  0  0  0  0  0
   -6.4990   11.9935  -25.3719 S   0  0  0  0  0  0  0  0  0  0  0  0
   -7.2415   10.8427  -26.5242 C   0  0  0  0  0  0  0  0  0  0  0  0
   -8.5204   11.2321  -27.5618 S   0  0  0  0  0  0  0  0  0  0  0  0
   -8.5695    9.6753  -28.1857 C   0  0  0  0  0  0  0  0  0  0  0  0
   -7.5948    8.9048  -27.5709 C   0  0  0  0  0  0  0  0  0  0  0  0
   -7.4389    7.5602  -27.9124 C   0  0  0  0  0  0  0  0  0  0  0  0
   -8.2881    7.0092  -28.8887 C   0  0  0  0  0  0  0  0  0  0  0  0
   -9.2747    7.8030  -29.5081 C   0  0  0  0  0  0  0  0  0  0  0  0
   -9.4207    9.1547  -29.1571 C   0  0  0  0  0  0  0  0  0  0  0  0
   -6.8454    9.5528  -26.6432 N   0  0  0  0  0  0  0  0  0  0  0  0
   -6.2745   10.0906  -22.5974 C   0  0  0  0  0  0  0  0  0  0  0  0
   -5.9967    8.8336  -22.0543 C   0  0  0  0  0  0  0  0  0  0  0  0
   -5.1529    5.0696  -20.1514 C   0  0  0  0  0  0  0  0  0  0  0  0
   -5.7017    5.1390  -18.7184 C   0  0  0  0  0  0  0  0  0  0  0  0
   -7.2453    5.1116  -18.6251 C   0  0  0  0  0  0  0  0  0  0  0  0
   -7.6877    5.5013  -17.1986 C   0  0  0  0  0  0  0  0  0  0  0  0
   -9.2144    5.4626  -17.0575 C   0  0  0  0  0  0  0  0  0  0  0  0
   -9.7632    4.0804  -17.4247 C   0  0  0  0  0  0  0  0  0  0  0  0
   -9.3384    3.6841  -18.8420 C   0  0  0  0  0  0  0  0  0  0  0  0
   -7.8126    3.7214  -18.9924 C   0  0  0  0  0  0  0  0  0  0  0  0
   -8.6048    7.0949  -23.4038 H   0  0  0  0  0  0  0  0  0  0  0  0
   -9.0825    9.2983  -24.3582 H   0  0  0  0  0  0  0  0  0  0  0  0
   -7.5592   12.4027  -23.2367 H   0  0  0  0  0  0  0  0  0  0  0  0
   -8.7161   11.6924  -24.3979 H   0  0  0  0  0  0  0  0  0  0  0  0
   -6.6824    6.9496  -27.4347 H   0  0  0  0  0  0  0  0  0  0  0  0
   -8.1854    5.9677  -29.1657 H   0  0  0  0  0  0  0  0  0  0  0  0
   -9.9234    7.3689  -30.2580 H   0  0  0  0  0  0  0  0  0  0  0  0
  -10.1772    9.7722  -29.6249 H   0  0  0  0  0  0  0  0  0  0  0  0
   -5.6176   10.9226  -22.3740 H   0  0  0  0  0  0  0  0  0  0  0  0
   -5.1291    8.7231  -21.4157 H   0  0  0  0  0  0  0  0  0  0  0  0
   -4.0479    4.9830  -20.0848 H   0  0  0  0  0  0  0  0  0  0  0  0
   -5.5052    4.1674  -20.6930 H   0  0  0  0  0  0  0  0  0  0  0  0
   -5.2801    4.2933  -18.1316 H   0  0  0  0  0  0  0  0  0  0  0  0
   -5.3193    6.0769  -18.2583 H   0  0  0  0  0  0  0  0  0  0  0  0
   -7.6640    5.8686  -19.3222 H   0  0  0  0  0  0  0  0  0  0  0  0
   -7.3380    6.5307  -16.9666 H   0  0  0  0  0  0  0  0  0  0  0  0
   -7.2324    4.8093  -16.4555 H   0  0  0  0  0  0  0  0  0  0  0  0
   -9.4918    5.6994  -16.0077 H   0  0  0  0  0  0  0  0  0  0  0  0
   -9.6716    6.2345  -17.7148 H   0  0  0  0  0  0  0  0  0  0  0  0
  -10.8729    4.0976  -17.3652 H   0  0  0  0  0  0  0  0  0  0  0  0
   -9.3918    3.3261  -16.6970 H   0  0  0  0  0  0  0  0  0  0  0  0
   -9.7023    2.6572  -19.0586 H   0  0  0  0  0  0  0  0  0  0  0  0
   -9.8032    4.3751  -19.5791 H   0  0  0  0  0  0  0  0  0  0  0  0
   -7.3605    2.9407  -18.3411 H   0  0  0  0  0  0  0  0  0  0  0  0
   -7.5671    3.4709  -20.0449 H   0  0  0  0  0  0  0  0  0  0  0  0
  1  2  1  0
  2  3  2  0
  2  4  1  0
  4  5  2  0
  5  6  1  0
  6  7  2  0
  7  8  1  0
  8  9  1  0
  9 10  1  0
 10 11  1  0
 11 12  1  0
 12 13  2  0
 13 14  1  0
 14 15  2  0
 15 16  1  0
 16 17  2  0
 13 18  1  0
  7 19  1  0
 19 20  2  0
  1 21  1  0
 21 22  1  0
 22 23  1  0
 23 24  1  0
 24 25  1  0
 25 26  1  0
 26 27  1  0
 27 28  1  0
 20  4  1  0
 10 18  2  0
 17 12  1  0
 28 23  1  0
  5 29  1  0
  6 30  1  0
  8 31  1  0
  8 32  1  0
 14 33  1  0
 15 34  1  0
 16 35  1  0
 17 36  1  0
 19 37  1  0
 20 38  1  0
 21 39  1  0
 21 40  1  0
 22 41  1  0
 22 42  1  0
 23 43  1  0
 24 44  1  0
 24 45  1  0
 25 46  1  0
 25 47  1  0
 26 48  1  0
 26 49  1  0
 27 50  1  0
 27 51  1  0
 28 52  1  0
 28 53  1  0
A    1
 O1 
A    2
 C1 
A    3
 O2 
A    4
 C2 
A    5
 C3 
A    6
 C4 
A    7
 C5 
A    8
 C6 
A    9
 S1 
A   10
 C7 
A   11
 S2 
A   12
 C8 
A   13
 C9 
A   14
 C10
A   15
 C11
A   16
 C12
A   17
 C13
A   18
 N1 
A   19
 C14
A   20
 C15
A   21
 C16
A   22
 C17
A   23
 C18
A   24
 C19
A   25
 C20
A   26
 C21
A   27
 C22
A   28
 C23
A   29
 H1 
A   30
 H2 
A   31
 H3 
A   32
 H4 
A   33
 H5 
A   34
 H6 
A   35
 H7 
A   36
 H8 
A   37
 H9 
A   38
 H10
A   39
 H11
A   40
 H12
A   41
 H13
A   42
 H14
A   43
 H15
A   44
 H16
A   45
 H17
A   46
 H18
A   47
 H19
A   48
 H20
A   49
 H21
A   50
 H22
A   51
 H23
A   52
 H24
A   53
 H25
M  END
>  <ref_pdb>  (288) 
x0051_0B

>  <ref_mols>  (288) 
x0846_1B,x0382_0B

>  <original SMILES>  (288) 
[H]c1c([H])c(C([H])([H])Sc2nc3c([H])c([H])c([H])c([H])c3s2)c([H])c([H])c1C(=O)OC([H])([H])C([H])([H])C1([H])C([H])([H])C([H])([H])C([H])([H])C([H])([H])C1([H])[H]

>  <index>  (288) 
308

>  <∆∆G>  (288) 
-5.830781

>  <∆G_bound>  (288) 
-5.112178

>  <∆G_unbound>  (288) 
0.718603

>  <comRMSD>  (288) 
0.802396

>  <N_constrained_atoms>  (288) 
25.0

>  <N_unconstrained_atoms>  (288) 
3.0

>  <runtime>  (288) 
66.956436

>  <LE>  (288) 
0.208242

>  <percent_hybrid>  (288) 
28.0

>  <dist>  (288) 
9.0

>  <ecfp4>  (288) 
0.204545

>  <daylight>  (288) 
0.186567

>  <topodist>  (288) 
3.0

>  <mces>  (288) 
29.0

>  <tdn>  (288) 
1.0

>  <tup>  (288) 
1.0

>  <rdn>  (288) 
0.0

>  <rup>  (288) 
0.0

>  <ldn>  (288) 
0.0

>  <lup>  (288) 
1.0

>  <mut>  (288) 
6.0

>  <maj>  (288) 
6.0

>  <min>  (288) 
0.0

>  <hyb>  (288) 
0.0

>  <sub>  (288) 
1.0

>  <query_index>  (288) 
353.0

>  <max_hit_Tanimoto>  (288) 
0.193689

>  <largest_ring>  (288) 
6

>  <N_interactions_kept>  (288) 
0.0

>  <N_interactions_lost>  (288) 
1.5

>  <interaction_uniqueness_metric>  (288) 
0.197973

>  <ad_hoc_penalty>  (288) 
-21.96808

>  <N_rotatable_bonds>  (288) 
7

>  <N_HA>  (288) 
28

>  <cluster>  (288) 
5937

>  <N_interactions>  (288) 
8

>  <Enamine>  (288) 
0

>  <Mcule>  (288) 
1

>  <N_PAINS>  (288) 
0

>  <UFF_Gibbs>  (288) 
200.967543

>  <strain_per_HA>  (288) 
7.177412

>  <saltbridge:HIS:51>  (288) 
0

>  <pistack:HIS:51>  (288) 
0

>  <hydroph_interaction:HIS:51>  (288) 
0

>  <hbond:ALA:132>  (288) 
0

>  <hbond:SER:135>  (288) 
0

>  <hydroph_interaction:TYR:150>  (288) 
1

>  <pistack:TYR:161>  (288) 
0

>  <hydroph_interaction:TYR:161>  (288) 
3

>  <hydroph_interaction:ASP:83>  (288) 
0

>  <hbond:TYR:130>  (288) 
0

>  <hydroph_interaction:ALA:132>  (288) 
1

>  <hbond:HIS:51>  (288) 
0

>  <hbond:ASP:129>  (288) 
1

>  <hbond:TYR:150>  (288) 
0

>  <hbond:GLY:151>  (288) 
0

>  <hbond:TYR:161>  (288) 
0

>  <hydroph_interaction:TYR:130>  (288) 
1

>  <hydroph_interaction:PRO:131>  (288) 
1

>  <hydroph_interaction:ASP:129>  (288) 
0

>  <saltbridge:ASP:75>  (288) 
0

>  <saltbridge:ASP:83>  (288) 
0

>  <hydroph_interaction:ASN:152>  (288) 
0

>  <halogenbond:TYR:150>  (288) 
0

>  <hbond:ASP:83>  (288) 
0

>  <hydroph_interaction:VAL:155>  (288) 
0

>  <pication:TYR:161>  (288) 
0

>  <hbond:PRO:131>  (288) 
0

>  <hbond:LEU:128>  (288) 
0

>  <saltbridge:ASP:129>  (288) 
0

>  <hbond:THR:134>  (288) 
0

>  <pication:HIS:51>  (288) 
0

>  <hbond:SER:81>  (288) 
0

>  <hbond:GLY:159>  (288) 
0

>  <hydroph_interaction:PRO:101>  (288) 
0

>  <hydroph_interaction:THR:134>  (288) 
0

>  <hbond:GLY:82>  (288) 
0

>  <hydroph_interaction:GLU:104>  (288) 
0

>  <hydroph_interaction:VAL:36>  (288) 
0

>  <hydroph_interaction:MET:49>  (288) 
0

>  <halogenbond:GLU:104>  (288) 
0

>  <hydroph_interaction:LYS:107>  (288) 
0

$$$$
MCULE-2587865064
     RDKit          3D

 29 31  0  0  0  0  0  0  0  0999 V2000
   -7.2329    5.5203  -17.6094 C   0  0  0  0  0  0  0  0  0  0  0  0
   -7.6870    5.2708  -16.3075 C   0  0  0  0  0  0  0  0  0  0  0  0
   -8.9647    4.7129  -16.1301 C   0  0  0  0  0  0  0  0  0  0  0  0
   -9.4290    4.4596  -14.8416 O   0  0  0  0  0  0  0  0  0  0  0  0
   -9.7658    4.4139  -17.2528 C   0  0  0  0  0  0  0  0  0  0  0  0
   -9.2916    4.6717  -18.5478 C   0  0  0  0  0  0  0  0  0  0  0  0
   -8.0199    5.2257  -18.6899 C   0  0  0  0  0  0  0  0  0  0  0  0
   -7.3878    5.5484  -19.9080 N   0  0  0  0  0  0  0  0  0  0  0  0
   -6.0688    6.1053  -19.6300 C   0  0  0  0  0  0  0  0  0  0  0  0
   -5.9185    6.1057  -18.0688 C   0  0  0  0  0  0  0  0  0  0  0  0
   -4.7239    5.2765  -17.5832 C   0  0  0  0  0  0  0  0  0  0  0  0
   -4.2713    5.9084  -16.2705 C   0  0  0  0  0  0  0  0  0  0  0  0
   -4.8760    7.3114  -16.2126 C   0  0  0  0  0  0  0  0  0  0  0  0
   -5.6849    7.5065  -17.4911 C   0  0  0  0  0  0  0  0  0  0  0  0
   -7.0728    5.5001  -15.4489 H   0  0  0  0  0  0  0  0  0  0  0  0
  -10.3450    4.0581  -14.6788 H   0  0  0  0  0  0  0  0  0  0  0  0
  -10.7504    3.9841  -17.1206 H   0  0  0  0  0  0  0  0  0  0  0  0
   -9.8989    4.4458  -19.4147 H   0  0  0  0  0  0  0  0  0  0  0  0
   -7.7974    5.4110  -20.8587 H   0  0  0  0  0  0  0  0  0  0  0  0
   -5.3005    5.4744  -20.1261 H   0  0  0  0  0  0  0  0  0  0  0  0
   -6.0137    7.1292  -20.0579 H   0  0  0  0  0  0  0  0  0  0  0  0
   -3.8844    5.3491  -18.3100 H   0  0  0  0  0  0  0  0  0  0  0  0
   -4.9793    4.2018  -17.4504 H   0  0  0  0  0  0  0  0  0  0  0  0
   -3.1613    5.9556  -16.2228 H   0  0  0  0  0  0  0  0  0  0  0  0
   -4.6327    5.3014  -15.4120 H   0  0  0  0  0  0  0  0  0  0  0  0
   -4.0775    8.0816  -16.1351 H   0  0  0  0  0  0  0  0  0  0  0  0
   -5.5392    7.4048  -15.3253 H   0  0  0  0  0  0  0  0  0  0  0  0
   -6.6366    8.0473  -17.2917 H   0  0  0  0  0  0  0  0  0  0  0  0
   -5.0772    8.1167  -18.1957 H   0  0  0  0  0  0  0  0  0  0  0  0
  1  2  2  0
  2  3  1  0
  3  4  1  0
  3  5  2  0
  5  6  1  0
  6  7  2  0
  7  8  1  0
  8  9  1  0
  9 10  1  0
 10 11  1  0
 11 12  1  0
 12 13  1  0
 13 14  1  0
  1  7  1  0
 10  1  1  0
 14 10  1  0
  2 15  1  0
  4 16  1  0
  5 17  1  0
  6 18  1  0
  8 19  1  0
  9 20  1  0
  9 21  1  0
 11 22  1  0
 11 23  1  0
 12 24  1  0
 12 25  1  0
 13 26  1  0
 13 27  1  0
 14 28  1  0
 14 29  1  0
A    1
 C1 
A    2
 C2 
A    3
 C3 
A    4
 O1 
A    5
 C4 
A    6
 C5 
A    7
 C6 
A    8
 N1 
A    9
 C7 
A   10
 C8 
A   11
 C9 
A   12
 C10
A   13
 C11
A   14
 C12
A   15
 H1 
A   16
 H2 
A   17
 H3 
A   18
 H4 
A   19
 H5 
A   20
 H6 
A   21
 H7 
A   22
 H8 
A   23
 H9 
A   24
 H10
A   25
 H11
A   26
 H12
A   27
 H13
A   28
 H14
A   29
 H15
M  END
>  <ref_pdb>  (289) 
x0051_0B

>  <ref_mols>  (289) 
x0490_0B,x0227_0B

>  <original SMILES>  (289) 
[H]Oc1c([H])c([H])c2c(c1[H])C1(C([H])([H])N2[H])C([H])([H])C([H])([H])C([H])([H])C1([H])[H]

>  <index>  (289) 
414

>  <∆∆G>  (289) 
-6.418719

>  <∆G_bound>  (289) 
-6.243496

>  <∆G_unbound>  (289) 
0.175223

>  <comRMSD>  (289) 
0.631804

>  <N_constrained_atoms>  (289) 
15.0

>  <N_unconstrained_atoms>  (289) 
1.0

>  <runtime>  (289) 
19.409048

>  <LE>  (289) 
0.40117

>  <percent_hybrid>  (289) 
34.0

>  <dist>  (289) 
2.0

>  <ecfp4>  (289) 
0.326087

>  <daylight>  (289) 
0.81

>  <topodist>  (289) 
2.0

>  <mces>  (289) 
15.0

>  <tdn>  (289) 
1.0

>  <tup>  (289) 
1.0

>  <rdn>  (289) 
0.0

>  <rup>  (289) 
0.0

>  <ldn>  (289) 
0.0

>  <lup>  (289) 
0.0

>  <mut>  (289) 
0.0

>  <maj>  (289) 
0.0

>  <min>  (289) 
0.0

>  <hyb>  (289) 
0.0

>  <sub>  (289) 
2.0

>  <query_index>  (289) 
171.0

>  <max_hit_Tanimoto>  (289) 
0.31901

>  <largest_ring>  (289) 
6

>  <N_interactions_kept>  (289) 
2.0

>  <N_interactions_lost>  (289) 
3.0

>  <interaction_uniqueness_metric>  (289) 
0.126015

>  <ad_hoc_penalty>  (289) 
-21.965021

>  <N_rotatable_bonds>  (289) 
1

>  <N_HA>  (289) 
14

>  <cluster>  (289) 
5841

>  <N_interactions>  (289) 
7

>  <Enamine>  (289) 
0

>  <Mcule>  (289) 
1

>  <N_PAINS>  (289) 
0

>  <UFF_Gibbs>  (289) 
74.087254

>  <strain_per_HA>  (289) 
4.630453

>  <saltbridge:HIS:51>  (289) 
0

>  <pistack:HIS:51>  (289) 
0

>  <hydroph_interaction:HIS:51>  (289) 
0

>  <hbond:ALA:132>  (289) 
0

>  <hbond:SER:135>  (289) 
1

>  <hydroph_interaction:TYR:150>  (289) 
1

>  <pistack:TYR:161>  (289) 
0

>  <hydroph_interaction:TYR:161>  (289) 
3

>  <hydroph_interaction:ASP:83>  (289) 
0

>  <hbond:TYR:130>  (289) 
1

>  <hydroph_interaction:ALA:132>  (289) 
1

>  <hbond:HIS:51>  (289) 
0

>  <hbond:ASP:129>  (289) 
0

>  <hbond:TYR:150>  (289) 
0

>  <hbond:GLY:151>  (289) 
0

>  <hbond:TYR:161>  (289) 
0

>  <hydroph_interaction:TYR:130>  (289) 
0

>  <hydroph_interaction:PRO:131>  (289) 
0

>  <hydroph_interaction:ASP:129>  (289) 
0

>  <saltbridge:ASP:75>  (289) 
0

>  <saltbridge:ASP:83>  (289) 
0

>  <hydroph_interaction:ASN:152>  (289) 
0

>  <halogenbond:TYR:150>  (289) 
0

>  <hbond:ASP:83>  (289) 
0

>  <hydroph_interaction:VAL:155>  (289) 
0

>  <pication:TYR:161>  (289) 
0

>  <hbond:PRO:131>  (289) 
0

>  <hbond:LEU:128>  (289) 
0

>  <saltbridge:ASP:129>  (289) 
0

>  <hbond:THR:134>  (289) 
0

>  <pication:HIS:51>  (289) 
0

>  <hbond:SER:81>  (289) 
0

>  <hbond:GLY:159>  (289) 
0

>  <hydroph_interaction:PRO:101>  (289) 
0

>  <hydroph_interaction:THR:134>  (289) 
0

>  <hbond:GLY:82>  (289) 
0

>  <hydroph_interaction:GLU:104>  (289) 
0

>  <hydroph_interaction:VAL:36>  (289) 
0

>  <hydroph_interaction:MET:49>  (289) 
0

>  <halogenbond:GLU:104>  (289) 
0

>  <hydroph_interaction:LYS:107>  (289) 
0

$$$$
Z2883671635
     RDKit          3D

 44 47  0  0  0  0  0  0  0  0999 V2000
   -6.0743    5.1392  -13.2693 O   0  0  0  0  0  0  0  0  0  0  0  0
   -7.2741    4.9895  -13.6257 C   0  0  0  0  0  0  0  0  0  0  0  0
   -8.2510    4.5160  -12.6841 N   0  0  0  0  0  0  0  0  0  0  0  0
   -8.0748    4.5709  -11.2602 C   0  0  0  0  0  0  0  0  0  0  0  0
   -8.8383    3.9225  -10.3146 C   0  0  0  0  0  0  0  0  0  0  0  0
  -10.0230    3.0286  -10.5301 C   0  0  0  0  0  0  0  0  0  0  0  0
  -10.3618    2.2699   -9.2368 C   0  0  0  0  0  0  0  0  0  0  0  0
  -10.3397    3.2039   -8.0150 C   0  0  0  0  0  0  0  0  0  0  0  0
   -8.9465    3.8275   -7.8261 C   0  0  0  0  0  0  0  0  0  0  0  0
   -8.4277    4.3251   -9.0987 N   0  0  0  0  0  0  0  0  0  0  0  0
   -7.4204    5.1772   -9.2179 N   0  0  0  0  0  0  0  0  0  0  0  0
   -7.1892    5.3560  -10.5367 C   0  0  0  0  0  0  0  0  0  0  0  0
   -7.6385    5.2675  -15.0281 C   0  0  0  0  0  0  0  0  0  0  0  0
   -8.9506    5.3001  -15.5051 C   0  0  0  0  0  0  0  0  0  0  0  0
   -8.8980    5.6754  -17.1434 S   0  0  0  0  0  0  0  0  0  0  0  0
   -7.2176    5.7837  -17.1796 C   0  0  0  0  0  0  0  0  0  0  0  0
   -6.4311    6.1000  -18.3447 N   0  0  0  0  0  0  0  0  0  0  0  0
   -7.0878    6.2058  -19.6572 C   0  0  0  0  0  0  0  0  0  0  0  0
   -6.0679    6.3726  -20.7894 C   0  0  0  0  0  0  0  0  0  0  0  0
   -5.0830    7.5079  -20.4815 C   0  0  0  0  0  0  0  0  0  0  0  0
   -4.4892    7.4423  -19.0557 C   0  0  0  0  0  0  0  0  0  0  0  0
   -4.9699    6.2312  -18.2457 C   0  0  0  0  0  0  0  0  0  0  0  0
   -6.6852    5.5406  -15.9615 N   0  0  0  0  0  0  0  0  0  0  0  0
   -9.1180    4.0616  -13.0460 H   0  0  0  0  0  0  0  0  0  0  0  0
  -10.8908    3.6530  -10.8329 H   0  0  0  0  0  0  0  0  0  0  0  0
   -9.8067    2.3009  -11.3413 H   0  0  0  0  0  0  0  0  0  0  0  0
  -11.3696    1.8118   -9.3342 H   0  0  0  0  0  0  0  0  0  0  0  0
   -9.6267    1.4488   -9.0853 H   0  0  0  0  0  0  0  0  0  0  0  0
  -10.6139    2.6309   -7.1032 H   0  0  0  0  0  0  0  0  0  0  0  0
  -11.0917    4.0115   -8.1546 H   0  0  0  0  0  0  0  0  0  0  0  0
   -9.0092    4.6613   -7.0943 H   0  0  0  0  0  0  0  0  0  0  0  0
   -8.2482    3.0604   -7.4273 H   0  0  0  0  0  0  0  0  0  0  0  0
   -6.4469    6.0356  -10.9305 H   0  0  0  0  0  0  0  0  0  0  0  0
   -9.8535    5.1363  -14.9338 H   0  0  0  0  0  0  0  0  0  0  0  0
   -7.6840    5.2879  -19.8523 H   0  0  0  0  0  0  0  0  0  0  0  0
   -7.7756    7.0793  -19.6526 H   0  0  0  0  0  0  0  0  0  0  0  0
   -5.5064    5.4219  -20.9233 H   0  0  0  0  0  0  0  0  0  0  0  0
   -6.5998    6.5884  -21.7410 H   0  0  0  0  0  0  0  0  0  0  0  0
   -4.2604    7.4780  -21.2292 H   0  0  0  0  0  0  0  0  0  0  0  0
   -5.6079    8.4802  -20.6124 H   0  0  0  0  0  0  0  0  0  0  0  0
   -4.7711    8.3667  -18.5049 H   0  0  0  0  0  0  0  0  0  0  0  0
   -3.3791    7.4196  -19.1126 H   0  0  0  0  0  0  0  0  0  0  0  0
   -4.6447    6.3650  -17.1918 H   0  0  0  0  0  0  0  0  0  0  0  0
   -4.4923    5.3053  -18.6331 H   0  0  0  0  0  0  0  0  0  0  0  0
  1  2  2  0
  2  3  1  0
  3  4  1  0
  4  5  2  0
  5  6  1  0
  6  7  1  0
  7  8  1  0
  8  9  1  0
  9 10  1  0
 10 11  1  0
 11 12  2  0
  2 13  1  0
 13 14  2  0
 14 15  1  0
 15 16  1  0
 16 17  1  0
 17 18  1  0
 18 19  1  0
 19 20  1  0
 20 21  1  0
 21 22  1  0
 16 23  2  0
 12  4  1  0
 10  5  1  0
 23 13  1  0
 22 17  1  0
  3 24  1  0
  6 25  1  0
  6 26  1  0
  7 27  1  0
  7 28  1  0
  8 29  1  0
  8 30  1  0
  9 31  1  0
  9 32  1  0
 12 33  1  0
 14 34  1  0
 18 35  1  0
 18 36  1  0
 19 37  1  0
 19 38  1  0
 20 39  1  0
 20 40  1  0
 21 41  1  0
 21 42  1  0
 22 43  1  0
 22 44  1  0
A    1
 O1 
A    2
 C1 
A    3
 N1 
A    4
 C2 
A    5
 C3 
A    6
 C4 
A    7
 C5 
A    8
 C6 
A    9
 C7 
A   10
 N2 
A   11
 N3 
A   12
 C8 
A   13
 C9 
A   14
 C10
A   15
 S1 
A   16
 C11
A   17
 N4 
A   18
 C12
A   19
 C13
A   20
 C14
A   21
 C15
A   22
 C16
A   23
 N5 
A   24
 H1 
A   25
 H2 
A   26
 H3 
A   27
 H4 
A   28
 H5 
A   29
 H6 
A   30
 H7 
A   31
 H8 
A   32
 H9 
A   33
 H10
A   34
 H11
A   35
 H12
A   36
 H13
A   37
 H14
A   38
 H15
A   39
 H16
A   40
 H17
A   41
 H18
A   42
 H19
A   43
 H20
A   44
 H21
M  END
>  <ref_pdb>  (290) 
x0051_0B

>  <ref_mols>  (290) 
x0917_1B,x0969_1B

>  <original SMILES>  (290) 
[H]c1nn2c(c1N([H])C(=O)c1nc(N3C([H])([H])C([H])([H])C([H])([H])C([H])([H])C3([H])[H])sc1[H])C([H])([H])C([H])([H])C([H])([H])C2([H])[H]

>  <index>  (290) 
508

>  <∆∆G>  (290) 
-5.612805

>  <∆G_bound>  (290) 
-4.977679

>  <∆G_unbound>  (290) 
0.635125

>  <comRMSD>  (290) 
0.628245

>  <N_constrained_atoms>  (290) 
24.0

>  <N_unconstrained_atoms>  (290) 
0.0

>  <runtime>  (290) 
64.778451

>  <LE>  (290) 
0.233867

>  <percent_hybrid>  (290) 
40.0

>  <dist>  (290) 
9.0

>  <ecfp4>  (290) 
0.186047

>  <daylight>  (290) 
0.283544

>  <topodist>  (290) 
2.0

>  <mces>  (290) 
26.0

>  <tdn>  (290) 
2.0

>  <tup>  (290) 
0.0

>  <rdn>  (290) 
0.0

>  <rup>  (290) 
0.0

>  <ldn>  (290) 
0.0

>  <lup>  (290) 
0.0

>  <mut>  (290) 
6.0

>  <maj>  (290) 
6.0

>  <min>  (290) 
0.0

>  <hyb>  (290) 
1.0

>  <sub>  (290) 
0.0

>  <query_index>  (290) 
298.0

>  <max_hit_Tanimoto>  (290) 
0.261014

>  <largest_ring>  (290) 
6

>  <N_interactions_kept>  (290) 
2.5

>  <N_interactions_lost>  (290) 
0.5

>  <interaction_uniqueness_metric>  (290) 
0.103191

>  <ad_hoc_penalty>  (290) 
-21.964418

>  <N_rotatable_bonds>  (290) 
3

>  <N_HA>  (290) 
23

>  <cluster>  (290) 
5755

>  <N_interactions>  (290) 
3

>  <Enamine>  (290) 
1

>  <Mcule>  (290) 
0

>  <N_PAINS>  (290) 
0

>  <UFF_Gibbs>  (290) 
71.971811

>  <strain_per_HA>  (290) 
2.998825

>  <saltbridge:HIS:51>  (290) 
0

>  <pistack:HIS:51>  (290) 
1

>  <hydroph_interaction:HIS:51>  (290) 
1

>  <hbond:ALA:132>  (290) 
0

>  <hbond:SER:135>  (290) 
0

>  <hydroph_interaction:TYR:150>  (290) 
0

>  <pistack:TYR:161>  (290) 
0

>  <hydroph_interaction:TYR:161>  (290) 
0

>  <hydroph_interaction:ASP:83>  (290) 
0

>  <hbond:TYR:130>  (290) 
0

>  <hydroph_interaction:ALA:132>  (290) 
0

>  <hbond:HIS:51>  (290) 
0

>  <hbond:ASP:129>  (290) 
0

>  <hbond:TYR:150>  (290) 
0

>  <hbond:GLY:151>  (290) 
1

>  <hbond:TYR:161>  (290) 
0

>  <hydroph_interaction:TYR:130>  (290) 
0

>  <hydroph_interaction:PRO:131>  (290) 
0

>  <hydroph_interaction:ASP:129>  (290) 
0

>  <saltbridge:ASP:75>  (290) 
0

>  <saltbridge:ASP:83>  (290) 
0

>  <hydroph_interaction:ASN:152>  (290) 
0

>  <halogenbond:TYR:150>  (290) 
0

>  <hbond:ASP:83>  (290) 
0

>  <hydroph_interaction:VAL:155>  (290) 
0

>  <pication:TYR:161>  (290) 
0

>  <hbond:PRO:131>  (290) 
0

>  <hbond:LEU:128>  (290) 
0

>  <saltbridge:ASP:129>  (290) 
0

>  <hbond:THR:134>  (290) 
0

>  <pication:HIS:51>  (290) 
0

>  <hbond:SER:81>  (290) 
0

>  <hbond:GLY:159>  (290) 
0

>  <hydroph_interaction:PRO:101>  (290) 
0

>  <hydroph_interaction:THR:134>  (290) 
0

>  <hbond:GLY:82>  (290) 
0

>  <hydroph_interaction:GLU:104>  (290) 
0

>  <hydroph_interaction:VAL:36>  (290) 
0

>  <hydroph_interaction:MET:49>  (290) 
0

>  <halogenbond:GLU:104>  (290) 
0

>  <hydroph_interaction:LYS:107>  (290) 
0

$$$$
CSSB00000709121
     RDKit          3D

 42 43  0  0  0  0  0  0  0  0999 V2000
   -4.6300    7.4561  -20.0449 C   0  0  0  0  0  0  0  0  0  0  0  0
   -4.8885    6.0096  -20.5083 C   0  0  0  0  0  0  0  0  0  0  0  0
   -3.6501    5.1283  -20.2564 C   0  0  0  0  0  0  0  0  0  0  0  0
   -5.1936    6.0175  -22.0138 C   0  0  0  0  0  0  0  0  0  0  0  0
   -6.0392    5.4650  -19.8456 O   0  0  0  0  0  0  0  0  0  0  0  0
   -6.1975    5.2938  -18.4614 C   0  0  0  0  0  0  0  0  0  0  0  0
   -5.2645    5.5786  -17.6631 O   0  0  0  0  0  0  0  0  0  0  0  0
   -7.4555    4.7080  -17.9514 C   0  0  0  0  0  0  0  0  0  0  0  0
   -8.0010    3.6292  -18.6692 C   0  0  0  0  0  0  0  0  0  0  0  0
   -9.1338    2.9632  -18.2054 C   0  0  0  0  0  0  0  0  0  0  0  0
   -9.7366    3.3601  -17.0160 C   0  0  0  0  0  0  0  0  0  0  0  0
   -9.2283    4.4442  -16.3008 C   0  0  0  0  0  0  0  0  0  0  0  0
   -8.1087    5.1663  -16.7689 C   0  0  0  0  0  0  0  0  0  0  0  0
   -7.6190    6.3922  -15.9916 C   0  0  0  0  0  0  0  0  0  0  0  0
   -6.7678    5.9733  -14.7742 C   0  0  0  0  0  0  0  0  0  0  0  0
   -7.6211    5.6358  -13.5364 C   0  0  0  0  0  0  0  0  0  0  0  0
   -8.7229    6.5857  -13.2683 N   0  0  0  0  0  0  0  0  0  0  0  0
   -8.7215    7.7744  -14.1309 C   0  0  0  0  0  0  0  0  0  0  0  0
   -8.7570    7.3831  -15.6138 C   0  0  0  0  0  0  0  0  0  0  0  0
   -3.8197    7.9205  -20.6476 H   0  0  0  0  0  0  0  0  0  0  0  0
   -5.5518    8.0657  -20.1601 H   0  0  0  0  0  0  0  0  0  0  0  0
   -4.3202    7.4913  -18.9806 H   0  0  0  0  0  0  0  0  0  0  0  0
   -3.3345    5.1662  -19.1940 H   0  0  0  0  0  0  0  0  0  0  0  0
   -3.8727    4.0715  -20.5174 H   0  0  0  0  0  0  0  0  0  0  0  0
   -2.7930    5.4734  -20.8743 H   0  0  0  0  0  0  0  0  0  0  0  0
   -5.3970    4.9850  -22.3710 H   0  0  0  0  0  0  0  0  0  0  0  0
   -4.3387    6.4302  -22.5924 H   0  0  0  0  0  0  0  0  0  0  0  0
   -6.0928    6.6369  -22.2213 H   0  0  0  0  0  0  0  0  0  0  0  0
   -7.5277    3.2782  -19.5786 H   0  0  0  0  0  0  0  0  0  0  0  0
   -9.5340    2.1248  -18.7607 H   0  0  0  0  0  0  0  0  0  0  0  0
  -10.6055    2.8296  -16.6481 H   0  0  0  0  0  0  0  0  0  0  0  0
   -9.7280    4.7257  -15.3852 H   0  0  0  0  0  0  0  0  0  0  0  0
   -6.9485    6.9835  -16.6485 H   0  0  0  0  0  0  0  0  0  0  0  0
   -6.1226    5.1039  -15.0284 H   0  0  0  0  0  0  0  0  0  0  0  0
   -6.0818    6.8089  -14.5112 H   0  0  0  0  0  0  0  0  0  0  0  0
   -6.9552    5.6131  -12.6479 H   0  0  0  0  0  0  0  0  0  0  0  0
   -8.0275    4.6063  -13.6482 H   0  0  0  0  0  0  0  0  0  0  0  0
   -9.6389    6.0926  -13.3874 H   0  0  0  0  0  0  0  0  0  0  0  0
   -7.8232    8.3939  -13.9166 H   0  0  0  0  0  0  0  0  0  0  0  0
   -9.6112    8.3981  -13.8961 H   0  0  0  0  0  0  0  0  0  0  0  0
   -9.7633    6.9796  -15.8512 H   0  0  0  0  0  0  0  0  0  0  0  0
   -8.6583    8.3116  -16.2188 H   0  0  0  0  0  0  0  0  0  0  0  0
  1  2  1  0
  2  3  1  0
  2  4  1  0
  2  5  1  0
  5  6  1  0
  6  7  2  0
  6  8  1  0
  8  9  2  0
  9 10  1  0
 10 11  2  0
 11 12  1  0
 12 13  2  0
 13 14  1  0
 14 15  1  0
 15 16  1  0
 16 17  1  0
 17 18  1  0
 18 19  1  0
 13  8  1  0
 19 14  1  0
  1 20  1  0
  1 21  1  0
  1 22  1  0
  3 23  1  0
  3 24  1  0
  3 25  1  0
  4 26  1  0
  4 27  1  0
  4 28  1  0
  9 29  1  0
 10 30  1  0
 11 31  1  0
 12 32  1  0
 14 33  1  0
 15 34  1  0
 15 35  1  0
 16 36  1  0
 16 37  1  0
 17 38  1  0
 18 39  1  0
 18 40  1  0
 19 41  1  0
 19 42  1  0
A    1
 C1 
A    2
 C2 
A    3
 C3 
A    4
 C4 
A    5
 O1 
A    6
 C5 
A    7
 O2 
A    8
 C6 
A    9
 C7 
A   10
 C8 
A   11
 C9 
A   12
 C10
A   13
 C11
A   14
 C12
A   15
 C13
A   16
 C14
A   17
 N1 
A   18
 C15
A   19
 C16
A   20
 H1 
A   21
 H2 
A   22
 H3 
A   23
 H4 
A   24
 H5 
A   25
 H6 
A   26
 H7 
A   27
 H8 
A   28
 H9 
A   29
 H10
A   30
 H11
A   31
 H12
A   32
 H13
A   33
 H14
A   34
 H15
A   35
 H16
A   36
 H17
A   37
 H18
A   38
 H19
A   39
 H20
A   40
 H21
A   41
 H22
A   42
 H23
M  END
>  <ref_pdb>  (291) 
x0051_0B

>  <ref_mols>  (291) 
x0101_0B,x0951_0B

>  <original SMILES>  (291) 
[H]c1c([H])c([H])c(C2([H])C([H])([H])C([H])([H])N([H])C([H])([H])C2([H])[H])c(C(=O)OC(C([H])([H])[H])(C([H])([H])[H])C([H])([H])[H])c1[H]

>  <index>  (291) 
102

>  <∆∆G>  (291) 
-6.574883

>  <∆G_bound>  (291) 
-6.146701

>  <∆G_unbound>  (291) 
0.428182

>  <comRMSD>  (291) 
0.98886

>  <N_constrained_atoms>  (291) 
21.0

>  <N_unconstrained_atoms>  (291) 
0.0

>  <runtime>  (291) 
31.279247

>  <LE>  (291) 
0.31309

>  <percent_hybrid>  (291) 
40.0

>  <dist>  (291) 
10.0

>  <ecfp4>  (291) 
0.164384

>  <daylight>  (291) 
0.169231

>  <topodist>  (291) 
4.0

>  <mces>  (291) 
19.0

>  <tdn>  (291) 
2.0

>  <tup>  (291) 
0.0

>  <rdn>  (291) 
1.0

>  <rup>  (291) 
1.0

>  <ldn>  (291) 
0.0

>  <lup>  (291) 
0.0

>  <mut>  (291) 
5.0

>  <maj>  (291) 
5.0

>  <min>  (291) 
0.0

>  <hyb>  (291) 
1.0

>  <sub>  (291) 
4.0

>  <query_index>  (291) 
30.0

>  <max_hit_Tanimoto>  (291) 
0.20178

>  <largest_ring>  (291) 
6

>  <N_interactions_kept>  (291) 
3.0

>  <N_interactions_lost>  (291) 
1.0

>  <interaction_uniqueness_metric>  (291) 
0.087514

>  <ad_hoc_penalty>  (291) 
-21.949522

>  <N_rotatable_bonds>  (291) 
2

>  <N_HA>  (291) 
19

>  <cluster>  (291) 
6123

>  <N_interactions>  (291) 
5

>  <Enamine>  (291) 
1

>  <Mcule>  (291) 
0

>  <N_PAINS>  (291) 
0

>  <UFF_Gibbs>  (291) 
271.47088

>  <strain_per_HA>  (291) 
12.927185

>  <saltbridge:HIS:51>  (291) 
0

>  <pistack:HIS:51>  (291) 
0

>  <hydroph_interaction:HIS:51>  (291) 
0

>  <hbond:ALA:132>  (291) 
0

>  <hbond:SER:135>  (291) 
0

>  <hydroph_interaction:TYR:150>  (291) 
1

>  <pistack:TYR:161>  (291) 
0

>  <hydroph_interaction:TYR:161>  (291) 
2

>  <hydroph_interaction:ASP:83>  (291) 
0

>  <hbond:TYR:130>  (291) 
0

>  <hydroph_interaction:ALA:132>  (291) 
1

>  <hbond:HIS:51>  (291) 
0

>  <hbond:ASP:129>  (291) 
0

>  <hbond:TYR:150>  (291) 
0

>  <hbond:GLY:151>  (291) 
0

>  <hbond:TYR:161>  (291) 
0

>  <hydroph_interaction:TYR:130>  (291) 
0

>  <hydroph_interaction:PRO:131>  (291) 
0

>  <hydroph_interaction:ASP:129>  (291) 
1

>  <saltbridge:ASP:75>  (291) 
0

>  <saltbridge:ASP:83>  (291) 
0

>  <hydroph_interaction:ASN:152>  (291) 
0

>  <halogenbond:TYR:150>  (291) 
0

>  <hbond:ASP:83>  (291) 
0

>  <hydroph_interaction:VAL:155>  (291) 
0

>  <pication:TYR:161>  (291) 
0

>  <hbond:PRO:131>  (291) 
0

>  <hbond:LEU:128>  (291) 
0

>  <saltbridge:ASP:129>  (291) 
0

>  <hbond:THR:134>  (291) 
0

>  <pication:HIS:51>  (291) 
0

>  <hbond:SER:81>  (291) 
0

>  <hbond:GLY:159>  (291) 
0

>  <hydroph_interaction:PRO:101>  (291) 
0

>  <hydroph_interaction:THR:134>  (291) 
0

>  <hbond:GLY:82>  (291) 
0

>  <hydroph_interaction:GLU:104>  (291) 
0

>  <hydroph_interaction:VAL:36>  (291) 
0

>  <hydroph_interaction:MET:49>  (291) 
0

>  <halogenbond:GLU:104>  (291) 
0

>  <hydroph_interaction:LYS:107>  (291) 
0

$$$$
nan
     RDKit          3D

 41 42  0  0  0  0  0  0  0  0999 V2000
   -2.7777    4.3446  -20.7183 C   0  0  0  0  0  0  0  0  0  0  0  0
   -3.1231    5.4683  -19.7966 C   0  0  0  0  0  0  0  0  0  0  0  0
   -2.5319    6.5759  -19.9137 O   0  0  0  0  0  0  0  0  0  0  0  0
   -4.1371    5.2892  -18.8006 N   0  0  0  0  0  0  0  0  0  0  0  0
   -4.5261    6.3807  -17.9016 C   0  0  0  0  0  0  0  0  0  0  0  0
   -5.6017    5.9511  -16.8393 C   0  0  0  0  0  0  0  0  0  0  0  0
   -6.9488    5.5595  -17.5160 C   0  0  0  0  0  0  0  0  0  0  0  0
   -7.1990    5.7207  -18.9045 C   0  0  0  0  0  0  0  0  0  0  0  0
   -8.4306    5.3662  -19.4630 C   0  0  0  0  0  0  0  0  0  0  0  0
   -9.4483    4.8593  -18.6594 C   0  0  0  0  0  0  0  0  0  0  0  0
   -9.2417    4.7123  -17.2908 C   0  0  0  0  0  0  0  0  0  0  0  0
   -8.0141    5.0624  -16.7231 C   0  0  0  0  0  0  0  0  0  0  0  0
   -5.1068    4.7188  -15.9927 C   0  0  0  0  0  0  0  0  0  0  0  0
   -3.7013    4.8218  -15.3619 C   0  0  0  0  0  0  0  0  0  0  0  0
   -3.6578    5.5030  -13.9812 C   0  0  0  0  0  0  0  0  0  0  0  0
   -4.6594    6.6455  -13.7571 C   0  0  0  0  0  0  0  0  0  0  0  0
   -4.7847    7.6057  -14.9484 C   0  0  0  0  0  0  0  0  0  0  0  0
   -5.8992    7.1856  -15.9278 C   0  0  0  0  0  0  0  0  0  0  0  0
   -2.5456    3.4348  -20.1263 H   0  0  0  0  0  0  0  0  0  0  0  0
   -1.8933    4.6045  -21.3381 H   0  0  0  0  0  0  0  0  0  0  0  0
   -3.6394    4.1363  -21.3860 H   0  0  0  0  0  0  0  0  0  0  0  0
   -4.6264    4.3678  -18.7618 H   0  0  0  0  0  0  0  0  0  0  0  0
   -4.9046    7.2347  -18.5035 H   0  0  0  0  0  0  0  0  0  0  0  0
   -3.6148    6.7822  -17.4227 H   0  0  0  0  0  0  0  0  0  0  0  0
   -6.4623    6.1156  -19.5849 H   0  0  0  0  0  0  0  0  0  0  0  0
   -8.5965    5.4898  -20.5257 H   0  0  0  0  0  0  0  0  0  0  0  0
  -10.4008    4.5885  -19.0965 H   0  0  0  0  0  0  0  0  0  0  0  0
  -10.0377    4.3318  -16.6637 H   0  0  0  0  0  0  0  0  0  0  0  0
   -7.9136    4.9550  -15.6527 H   0  0  0  0  0  0  0  0  0  0  0  0
   -5.8206    4.4848  -15.1771 H   0  0  0  0  0  0  0  0  0  0  0  0
   -5.1138    3.8166  -16.6406 H   0  0  0  0  0  0  0  0  0  0  0  0
   -2.9672    5.2947  -16.0384 H   0  0  0  0  0  0  0  0  0  0  0  0
   -3.3181    3.7868  -15.2233 H   0  0  0  0  0  0  0  0  0  0  0  0
   -2.6283    5.8903  -13.8166 H   0  0  0  0  0  0  0  0  0  0  0  0
   -3.8383    4.7354  -13.1967 H   0  0  0  0  0  0  0  0  0  0  0  0
   -5.6525    6.2275  -13.4822 H   0  0  0  0  0  0  0  0  0  0  0  0
   -4.3151    7.2239  -12.8717 H   0  0  0  0  0  0  0  0  0  0  0  0
   -5.0668    8.6031  -14.5450 H   0  0  0  0  0  0  0  0  0  0  0  0
   -3.8074    7.7478  -15.4514 H   0  0  0  0  0  0  0  0  0  0  0  0
   -6.1262    8.0592  -16.5789 H   0  0  0  0  0  0  0  0  0  0  0  0
   -6.8236    7.0226  -15.3331 H   0  0  0  0  0  0  0  0  0  0  0  0
  1  2  1  0
  2  3  2  0
  2  4  1  0
  4  5  1  0
  5  6  1  0
  6  7  1  0
  7  8  2  0
  8  9  1  0
  9 10  2  0
 10 11  1  0
 11 12  2  0
  6 13  1  0
 13 14  1  0
 14 15  1  0
 15 16  1  0
 16 17  1  0
 17 18  1  0
 18  6  1  0
 12  7  1  0
  1 19  1  0
  1 20  1  0
  1 21  1  0
  4 22  1  0
  5 23  1  0
  5 24  1  0
  8 25  1  0
  9 26  1  0
 10 27  1  0
 11 28  1  0
 12 29  1  0
 13 30  1  0
 13 31  1  0
 14 32  1  0
 14 33  1  0
 15 34  1  0
 15 35  1  0
 16 36  1  0
 16 37  1  0
 17 38  1  0
 17 39  1  0
 18 40  1  0
 18 41  1  0
A    1
 C1 
A    2
 C2 
A    3
 O1 
A    4
 N1 
A    5
 C3 
A    6
 C4 
A    7
 C5 
A    8
 C6 
A    9
 C7 
A   10
 C8 
A   11
 C9 
A   12
 C10
A   13
 C11
A   14
 C12
A   15
 C13
A   16
 C14
A   17
 C15
A   18
 C16
A   19
 H1 
A   20
 H2 
A   21
 H3 
A   22
 H4 
A   23
 H5 
A   24
 H6 
A   25
 H7 
A   26
 H8 
A   27
 H9 
A   28
 H10
A   29
 H11
A   30
 H12
A   31
 H13
A   32
 H14
A   33
 H15
A   34
 H16
A   35
 H17
A   36
 H18
A   37
 H19
A   38
 H20
A   39
 H21
A   40
 H22
A   41
 H23
M  END
>  <ref_pdb>  (292) 
x0051_0B

>  <ref_mols>  (292) 
x0089_0B,x0429_0B,x0443_0B

>  <original SMILES>  (292) 
[H]c1c([H])c([H])c(C2(C([H])([H])N([H])C(=O)C([H])([H])[H])C([H])([H])C([H])([H])C([H])([H])C([H])([H])C([H])([H])C2([H])[H])c([H])c1[H]

>  <index>  (292) 
19060

>  <∆∆G>  (292) 
-7.274588

>  <∆G_bound>  (292) 
-6.888845

>  <∆G_unbound>  (292) 
0.385743

>  <comRMSD>  (292) 
0.93867

>  <N_constrained_atoms>  (292) 
20.0

>  <N_unconstrained_atoms>  (292) 
0.0

>  <runtime>  (292) 
38.919774

>  <LE>  (292) 
0.363729

>  <percent_hybrid>  (292) 
50.0

>  <dist>  (292) 
nan

>  <ecfp4>  (292) 
nan

>  <daylight>  (292) 
nan

>  <topodist>  (292) 
nan

>  <mces>  (292) 
nan

>  <tdn>  (292) 
nan

>  <tup>  (292) 
nan

>  <rdn>  (292) 
nan

>  <rup>  (292) 
nan

>  <ldn>  (292) 
nan

>  <lup>  (292) 
nan

>  <mut>  (292) 
nan

>  <maj>  (292) 
nan

>  <min>  (292) 
nan

>  <hyb>  (292) 
nan

>  <sub>  (292) 
nan

>  <query_index>  (292) 
nan

>  <max_hit_Tanimoto>  (292) 
0.160109

>  <largest_ring>  (292) 
7

>  <N_interactions_kept>  (292) 
3.0

>  <N_interactions_lost>  (292) 
2.5

>  <interaction_uniqueness_metric>  (292) 
0.091664

>  <ad_hoc_penalty>  (292) 
-21.907373

>  <N_rotatable_bonds>  (292) 
4

>  <N_HA>  (292) 
18

>  <cluster>  (292) 
143

>  <N_interactions>  (292) 
8

>  <Enamine>  (292) 
0

>  <Mcule>  (292) 
0

>  <N_PAINS>  (292) 
0

>  <UFF_Gibbs>  (292) 
178.195548

>  <strain_per_HA>  (292) 
8.909777

>  <saltbridge:HIS:51>  (292) 
0

>  <pistack:HIS:51>  (292) 
0

>  <hydroph_interaction:HIS:51>  (292) 
0

>  <hbond:ALA:132>  (292) 
0

>  <hbond:SER:135>  (292) 
0

>  <hydroph_interaction:TYR:150>  (292) 
1

>  <pistack:TYR:161>  (292) 
0

>  <hydroph_interaction:TYR:161>  (292) 
5

>  <hydroph_interaction:ASP:83>  (292) 
0

>  <hbond:TYR:130>  (292) 
0

>  <hydroph_interaction:ALA:132>  (292) 
1

>  <hbond:HIS:51>  (292) 
0

>  <hbond:ASP:129>  (292) 
0

>  <hbond:TYR:150>  (292) 
0

>  <hbond:GLY:151>  (292) 
0

>  <hbond:TYR:161>  (292) 
0

>  <hydroph_interaction:TYR:130>  (292) 
0

>  <hydroph_interaction:PRO:131>  (292) 
0

>  <hydroph_interaction:ASP:129>  (292) 
0

>  <saltbridge:ASP:75>  (292) 
0

>  <saltbridge:ASP:83>  (292) 
0

>  <hydroph_interaction:ASN:152>  (292) 
0

>  <halogenbond:TYR:150>  (292) 
0

>  <hbond:ASP:83>  (292) 
0

>  <hydroph_interaction:VAL:155>  (292) 
1

>  <pication:TYR:161>  (292) 
0

>  <hbond:PRO:131>  (292) 
0

>  <hbond:LEU:128>  (292) 
0

>  <saltbridge:ASP:129>  (292) 
0

>  <hbond:THR:134>  (292) 
0

>  <pication:HIS:51>  (292) 
0

>  <hbond:SER:81>  (292) 
0

>  <hbond:GLY:159>  (292) 
0

>  <hydroph_interaction:PRO:101>  (292) 
0

>  <hydroph_interaction:THR:134>  (292) 
0

>  <hbond:GLY:82>  (292) 
0

>  <hydroph_interaction:GLU:104>  (292) 
0

>  <hydroph_interaction:VAL:36>  (292) 
0

>  <hydroph_interaction:MET:49>  (292) 
0

>  <halogenbond:GLU:104>  (292) 
0

>  <hydroph_interaction:LYS:107>  (292) 
0

$$$$
AVDAZNJYUDMOQD-UHFFFAOYSA-N
     RDKit          3D

 34 37  0  0  0  0  0  0  0  0999 V2000
   -8.9020    6.2057  -12.7012 C   0  0  0  0  0  0  0  0  0  0  0  0
   -8.0643    5.4325  -13.5704 N   0  0  0  0  0  0  0  0  0  0  0  0
   -8.3560    5.2014  -14.9591 C   0  0  0  0  0  0  0  0  0  0  0  0
   -7.3365    4.8889  -15.8613 C   0  0  0  0  0  0  0  0  0  0  0  0
   -7.5757    4.6398  -17.1721 C   0  0  0  0  0  0  0  0  0  0  0  0
   -6.4087    4.3812  -17.7775 N   0  0  0  0  0  0  0  0  0  0  0  0
   -5.5177    4.4834  -16.8218 O   0  0  0  0  0  0  0  0  0  0  0  0
   -6.0163    4.7872  -15.6483 N   0  0  0  0  0  0  0  0  0  0  0  0
   -8.8554    4.6663  -17.7149 C   0  0  0  0  0  0  0  0  0  0  0  0
   -9.9205    4.9603  -16.8423 C   0  0  0  0  0  0  0  0  0  0  0  0
   -9.6771    5.2210  -15.4723 C   0  0  0  0  0  0  0  0  0  0  0  0
   -9.5924    7.1508  -13.1700 O   0  0  0  0  0  0  0  0  0  0  0  0
   -8.9123    5.9613  -11.2482 C   0  0  0  0  0  0  0  0  0  0  0  0
   -8.6946    4.7796  -10.5564 C   0  0  0  0  0  0  0  0  0  0  0  0
   -8.9275    5.0134   -9.2506 N   0  0  0  0  0  0  0  0  0  0  0  0
   -8.8128    4.0252   -8.1802 C   0  0  0  0  0  0  0  0  0  0  0  0
   -8.9818    2.6051   -8.7394 C   0  0  0  0  0  0  0  0  0  0  0  0
   -8.1163    2.4101   -9.9933 C   0  0  0  0  0  0  0  0  0  0  0  0
   -8.5086    3.3923  -11.1090 C   0  0  0  0  0  0  0  0  0  0  0  0
   -9.2444    6.2839   -9.0619 N   0  0  0  0  0  0  0  0  0  0  0  0
   -9.2526    6.8825  -10.2701 C   0  0  0  0  0  0  0  0  0  0  0  0
   -7.1410    5.1175  -13.1976 H   0  0  0  0  0  0  0  0  0  0  0  0
   -9.0273    4.4625  -18.7638 H   0  0  0  0  0  0  0  0  0  0  0  0
  -10.9342    4.9789  -17.2209 H   0  0  0  0  0  0  0  0  0  0  0  0
  -10.5193    5.4137  -14.8215 H   0  0  0  0  0  0  0  0  0  0  0  0
   -7.8131    4.1218   -7.7046 H   0  0  0  0  0  0  0  0  0  0  0  0
   -9.5900    4.2136   -7.4086 H   0  0  0  0  0  0  0  0  0  0  0  0
   -8.6873    1.8654   -7.9642 H   0  0  0  0  0  0  0  0  0  0  0  0
  -10.0499    2.4314   -8.9962 H   0  0  0  0  0  0  0  0  0  0  0  0
   -8.2323    1.3690  -10.3642 H   0  0  0  0  0  0  0  0  0  0  0  0
   -7.0464    2.5595   -9.7277 H   0  0  0  0  0  0  0  0  0  0  0  0
   -9.4633    3.0633  -11.5726 H   0  0  0  0  0  0  0  0  0  0  0  0
   -7.7167    3.3780  -11.8825 H   0  0  0  0  0  0  0  0  0  0  0  0
   -9.5037    7.9228  -10.4294 H   0  0  0  0  0  0  0  0  0  0  0  0
  1  2  1  0
  2  3  1  0
  3  4  1  0
  4  5  1  0
  5  6  2  0
  6  7  1  0
  7  8  1  0
  5  9  1  0
  9 10  2  0
 10 11  1  0
  1 12  2  0
  1 13  1  0
 13 14  2  0
 14 15  1  0
 15 16  1  0
 16 17  1  0
 17 18  1  0
 18 19  1  0
 15 20  1  0
 20 21  2  0
  3 11  2  0
  4  8  2  0
 21 13  1  0
 19 14  1  0
  2 22  1  0
  9 23  1  0
 10 24  1  0
 11 25  1  0
 16 26  1  0
 16 27  1  0
 17 28  1  0
 17 29  1  0
 18 30  1  0
 18 31  1  0
 19 32  1  0
 19 33  1  0
 21 34  1  0
A    1
 C1 
A    2
 N1 
A    3
 C2 
A    4
 C3 
A    5
 C4 
A    6
 N2 
A    7
 O1 
A    8
 N3 
A    9
 C5 
A   10
 C6 
A   11
 C7 
A   12
 O2 
A   13
 C8 
A   14
 C9 
A   15
 N4 
A   16
 C10
A   17
 C11
A   18
 C12
A   19
 C13
A   20
 N5 
A   21
 C14
A   22
 H1 
A   23
 H2 
A   24
 H3 
A   25
 H4 
A   26
 H5 
A   27
 H6 
A   28
 H7 
A   29
 H8 
A   30
 H9 
A   31
 H10
A   32
 H11
A   33
 H12
A   34
 H13
M  END
>  <ref_pdb>  (293) 
x0051_0B

>  <ref_mols>  (293) 
x0435_0B,x0969_1B

>  <original SMILES>  (293) 
[H]c1nn2c(c1C(=O)N([H])c1c([H])c([H])c([H])c3nonc13)C([H])([H])C([H])([H])C([H])([H])C2([H])[H]

>  <index>  (293) 
317

>  <∆∆G>  (293) 
-6.137647

>  <∆G_bound>  (293) 
-5.319702

>  <∆G_unbound>  (293) 
0.817945

>  <comRMSD>  (293) 
0.688664

>  <N_constrained_atoms>  (293) 
19.0

>  <N_unconstrained_atoms>  (293) 
2.0

>  <runtime>  (293) 
34.738822

>  <LE>  (293) 
0.292269

>  <percent_hybrid>  (293) 
48.0

>  <dist>  (293) 
9.0

>  <ecfp4>  (293) 
0.190476

>  <daylight>  (293) 
0.254902

>  <topodist>  (293) 
3.0

>  <mces>  (293) 
23.0

>  <tdn>  (293) 
1.0

>  <tup>  (293) 
1.0

>  <rdn>  (293) 
0.0

>  <rup>  (293) 
0.0

>  <ldn>  (293) 
1.0

>  <lup>  (293) 
0.0

>  <mut>  (293) 
5.0

>  <maj>  (293) 
5.0

>  <min>  (293) 
0.0

>  <hyb>  (293) 
1.0

>  <sub>  (293) 
0.0

>  <query_index>  (293) 
311.0

>  <max_hit_Tanimoto>  (293) 
0.304498

>  <largest_ring>  (293) 
6

>  <N_interactions_kept>  (293) 
2.5

>  <N_interactions_lost>  (293) 
1.0

>  <interaction_uniqueness_metric>  (293) 
0.135106

>  <ad_hoc_penalty>  (293) 
-21.893006

>  <N_rotatable_bonds>  (293) 
2

>  <N_HA>  (293) 
21

>  <cluster>  (293) 
5930

>  <N_interactions>  (293) 
4

>  <Enamine>  (293) 
0

>  <Mcule>  (293) 
1

>  <N_PAINS>  (293) 
0

>  <UFF_Gibbs>  (293) 
132.857671

>  <strain_per_HA>  (293) 
6.326556

>  <saltbridge:HIS:51>  (293) 
0

>  <pistack:HIS:51>  (293) 
1

>  <hydroph_interaction:HIS:51>  (293) 
0

>  <hbond:ALA:132>  (293) 
0

>  <hbond:SER:135>  (293) 
0

>  <hydroph_interaction:TYR:150>  (293) 
0

>  <pistack:TYR:161>  (293) 
1

>  <hydroph_interaction:TYR:161>  (293) 
1

>  <hydroph_interaction:ASP:83>  (293) 
1

>  <hbond:TYR:130>  (293) 
0

>  <hydroph_interaction:ALA:132>  (293) 
0

>  <hbond:HIS:51>  (293) 
0

>  <hbond:ASP:129>  (293) 
0

>  <hbond:TYR:150>  (293) 
0

>  <hbond:GLY:151>  (293) 
0

>  <hbond:TYR:161>  (293) 
0

>  <hydroph_interaction:TYR:130>  (293) 
0

>  <hydroph_interaction:PRO:131>  (293) 
0

>  <hydroph_interaction:ASP:129>  (293) 
0

>  <saltbridge:ASP:75>  (293) 
0

>  <saltbridge:ASP:83>  (293) 
0

>  <hydroph_interaction:ASN:152>  (293) 
0

>  <halogenbond:TYR:150>  (293) 
0

>  <hbond:ASP:83>  (293) 
0

>  <hydroph_interaction:VAL:155>  (293) 
0

>  <pication:TYR:161>  (293) 
0

>  <hbond:PRO:131>  (293) 
0

>  <hbond:LEU:128>  (293) 
0

>  <saltbridge:ASP:129>  (293) 
0

>  <hbond:THR:134>  (293) 
0

>  <pication:HIS:51>  (293) 
0

>  <hbond:SER:81>  (293) 
0

>  <hbond:GLY:159>  (293) 
0

>  <hydroph_interaction:PRO:101>  (293) 
0

>  <hydroph_interaction:THR:134>  (293) 
0

>  <hbond:GLY:82>  (293) 
0

>  <hydroph_interaction:GLU:104>  (293) 
0

>  <hydroph_interaction:VAL:36>  (293) 
0

>  <hydroph_interaction:MET:49>  (293) 
0

>  <halogenbond:GLU:104>  (293) 
0

>  <hydroph_interaction:LYS:107>  (293) 
0

$$$$
Z373770284
     RDKit          3D

 46 49  0  0  0  0  0  0  0  0999 V2000
   -6.6111    3.8065  -15.9913 C   0  0  0  0  0  0  0  0  0  0  0  0
   -7.6931    4.8439  -16.2629 C   0  0  0  0  0  0  0  0  0  0  0  0
   -7.8740    5.0185  -17.7002 N   0  0  0  0  0  0  0  0  0  0  0  0
   -7.2130    5.8976  -18.4781 C   0  0  0  0  0  0  0  0  0  0  0  0
   -7.6396    5.6998  -19.7751 C   0  0  0  0  0  0  0  0  0  0  0  0
   -7.2727    6.4336  -20.9520 N   0  0  0  0  0  0  0  0  0  0  0  0
   -6.1463    7.3235  -21.0214 C   0  0  0  0  0  0  0  0  0  0  0  0
   -5.1907    7.1899  -20.2093 O   0  0  0  0  0  0  0  0  0  0  0  0
   -6.0701    8.3704  -22.0691 C   0  0  0  0  0  0  0  0  0  0  0  0
   -7.2323    8.8380  -22.7086 C   0  0  0  0  0  0  0  0  0  0  0  0
   -7.1509    9.8242  -23.6951 C   0  0  0  0  0  0  0  0  0  0  0  0
   -5.9078   10.3633  -24.0595 C   0  0  0  0  0  0  0  0  0  0  0  0
   -5.8128   11.3821  -25.1630 C   0  0  0  0  0  0  0  0  0  0  0  0
   -5.1382   10.6389  -26.6910 S   0  0  0  0  0  0  0  0  0  0  0  0
   -6.5332    9.5455  -26.9530 C   0  0  0  0  0  0  0  0  0  0  0  0
   -6.5587    8.2646  -26.4994 N   0  0  0  0  0  0  0  0  0  0  0  0
   -7.7838    7.8494  -26.8659 C   0  0  0  0  0  0  0  0  0  0  0  0
   -8.3652    6.6048  -26.6371 C   0  0  0  0  0  0  0  0  0  0  0  0
   -9.6795    6.4027  -27.1004 C   0  0  0  0  0  0  0  0  0  0  0  0
  -10.3703    7.4392  -27.7707 C   0  0  0  0  0  0  0  0  0  0  0  0
   -9.7528    8.6865  -27.9821 C   0  0  0  0  0  0  0  0  0  0  0  0
   -8.4520    8.8477  -27.5112 C   0  0  0  0  0  0  0  0  0  0  0  0
   -7.6708    9.9319  -27.5784 N   0  0  0  0  0  0  0  0  0  0  0  0
   -4.7476    9.9083  -23.4173 C   0  0  0  0  0  0  0  0  0  0  0  0
   -4.8280    8.9257  -22.4263 C   0  0  0  0  0  0  0  0  0  0  0  0
   -8.5711    4.6832  -19.7155 C   0  0  0  0  0  0  0  0  0  0  0  0
   -8.6882    4.2752  -18.4363 N   0  0  0  0  0  0  0  0  0  0  0  0
   -5.6466    4.1368  -16.4321 H   0  0  0  0  0  0  0  0  0  0  0  0
   -6.4807    3.6801  -14.8960 H   0  0  0  0  0  0  0  0  0  0  0  0
   -6.8999    2.8294  -16.4338 H   0  0  0  0  0  0  0  0  0  0  0  0
   -7.4052    5.8113  -15.7962 H   0  0  0  0  0  0  0  0  0  0  0  0
   -8.6491    4.5104  -15.8043 H   0  0  0  0  0  0  0  0  0  0  0  0
   -6.5004    6.6272  -18.1173 H   0  0  0  0  0  0  0  0  0  0  0  0
   -7.8365    6.2694  -21.8159 H   0  0  0  0  0  0  0  0  0  0  0  0
   -8.2084    8.4561  -22.4402 H   0  0  0  0  0  0  0  0  0  0  0  0
   -8.0581   10.1587  -24.1831 H   0  0  0  0  0  0  0  0  0  0  0  0
   -5.1381   12.2048  -24.8453 H   0  0  0  0  0  0  0  0  0  0  0  0
   -6.8046   11.8355  -25.3782 H   0  0  0  0  0  0  0  0  0  0  0  0
   -7.8281    5.8214  -26.1181 H   0  0  0  0  0  0  0  0  0  0  0  0
  -10.1644    5.4483  -26.9413 H   0  0  0  0  0  0  0  0  0  0  0  0
  -11.3804    7.2733  -28.1218 H   0  0  0  0  0  0  0  0  0  0  0  0
  -10.2706    9.4895  -28.4901 H   0  0  0  0  0  0  0  0  0  0  0  0
   -7.8930   10.8638  -27.9937 H   0  0  0  0  0  0  0  0  0  0  0  0
   -3.7793   10.3089  -23.6910 H   0  0  0  0  0  0  0  0  0  0  0  0
   -3.9152    8.5871  -21.9523 H   0  0  0  0  0  0  0  0  0  0  0  0
   -9.1275    4.2674  -20.5450 H   0  0  0  0  0  0  0  0  0  0  0  0
  1  2  1  0
  2  3  1  0
  3  4  1  0
  4  5  2  0
  5  6  1  0
  6  7  1  0
  7  8  2  0
  7  9  1  0
  9 10  2  0
 10 11  1  0
 11 12  2  0
 12 13  1  0
 13 14  1  0
 14 15  1  0
 15 16  2  0
 16 17  1  0
 17 18  2  0
 18 19  1  0
 19 20  2  0
 20 21  1  0
 21 22  2  0
 22 23  1  0
 12 24  1  0
 24 25  2  0
  5 26  1  0
 26 27  2  0
 27  3  1  0
 25  9  1  0
 23 15  1  0
 22 17  1  0
  1 28  1  0
  1 29  1  0
  1 30  1  0
  2 31  1  0
  2 32  1  0
  4 33  1  0
  6 34  1  0
 10 35  1  0
 11 36  1  0
 13 37  1  0
 13 38  1  0
 18 39  1  0
 19 40  1  0
 20 41  1  0
 21 42  1  0
 23 43  1  0
 24 44  1  0
 25 45  1  0
 26 46  1  0
A    1
 C1 
A    2
 C2 
A    3
 N1 
A    4
 C3 
A    5
 C4 
A    6
 N2 
A    7
 C5 
A    8
 O1 
A    9
 C6 
A   10
 C7 
A   11
 C8 
A   12
 C9 
A   13
 C10
A   14
 S1 
A   15
 C11
A   16
 N3 
A   17
 C12
A   18
 C13
A   19
 C14
A   20
 C15
A   21
 C16
A   22
 C17
A   23
 N4 
A   24
 C18
A   25
 C19
A   26
 C20
A   27
 N5 
A   28
 H1 
A   29
 H2 
A   30
 H3 
A   31
 H4 
A   32
 H5 
A   33
 H6 
A   34
 H7 
A   35
 H8 
A   36
 H9 
A   37
 H10
A   38
 H11
A   39
 H12
A   40
 H13
A   41
 H14
A   42
 H15
A   43
 H16
A   44
 H17
A   45
 H18
A   46
 H19
M  END
>  <ref_pdb>  (294) 
x0051_0B

>  <ref_mols>  (294) 
x0846_1B,x0559_0B

>  <original SMILES>  (294) 
[H]c1nn(C([H])([H])C([H])([H])[H])c([H])c1N([H])C(=O)c1c([H])c([H])c(C([H])([H])Sc2nc3c([H])c([H])c([H])c([H])c3n2[H])c([H])c1[H]

>  <index>  (294) 
430

>  <∆∆G>  (294) 
-7.019278

>  <∆G_bound>  (294) 
-6.666591

>  <∆G_unbound>  (294) 
0.352687

>  <comRMSD>  (294) 
0.694287

>  <N_constrained_atoms>  (294) 
24.0

>  <N_unconstrained_atoms>  (294) 
4.0

>  <runtime>  (294) 
64.875875

>  <LE>  (294) 
0.250688

>  <percent_hybrid>  (294) 
25.0

>  <dist>  (294) 
9.0

>  <ecfp4>  (294) 
0.210526

>  <daylight>  (294) 
0.256

>  <topodist>  (294) 
2.0

>  <mces>  (294) 
29.0

>  <tdn>  (294) 
1.0

>  <tup>  (294) 
1.0

>  <rdn>  (294) 
0.0

>  <rup>  (294) 
0.0

>  <ldn>  (294) 
0.0

>  <lup>  (294) 
0.0

>  <mut>  (294) 
5.0

>  <maj>  (294) 
5.0

>  <min>  (294) 
0.0

>  <hyb>  (294) 
2.0

>  <sub>  (294) 
1.0

>  <query_index>  (294) 
233.0

>  <max_hit_Tanimoto>  (294) 
0.308657

>  <largest_ring>  (294) 
6

>  <N_interactions_kept>  (294) 
2.5

>  <N_interactions_lost>  (294) 
1.0

>  <interaction_uniqueness_metric>  (294) 
0.188053

>  <ad_hoc_penalty>  (294) 
-21.795227

>  <N_rotatable_bonds>  (294) 
7

>  <N_HA>  (294) 
27

>  <cluster>  (294) 
5828

>  <N_interactions>  (294) 
6

>  <Enamine>  (294) 
1

>  <Mcule>  (294) 
0

>  <N_PAINS>  (294) 
0

>  <UFF_Gibbs>  (294) 
143.705281

>  <strain_per_HA>  (294) 
5.132331

>  <saltbridge:HIS:51>  (294) 
0

>  <pistack:HIS:51>  (294) 
0

>  <hydroph_interaction:HIS:51>  (294) 
0

>  <hbond:ALA:132>  (294) 
0

>  <hbond:SER:135>  (294) 
0

>  <hydroph_interaction:TYR:150>  (294) 
0

>  <pistack:TYR:161>  (294) 
0

>  <hydroph_interaction:TYR:161>  (294) 
1

>  <hydroph_interaction:ASP:83>  (294) 
0

>  <hbond:TYR:130>  (294) 
2

>  <hydroph_interaction:ALA:132>  (294) 
0

>  <hbond:HIS:51>  (294) 
0

>  <hbond:ASP:129>  (294) 
1

>  <hbond:TYR:150>  (294) 
0

>  <hbond:GLY:151>  (294) 
0

>  <hbond:TYR:161>  (294) 
0

>  <hydroph_interaction:TYR:130>  (294) 
1

>  <hydroph_interaction:PRO:131>  (294) 
1

>  <hydroph_interaction:ASP:129>  (294) 
0

>  <saltbridge:ASP:75>  (294) 
0

>  <saltbridge:ASP:83>  (294) 
0

>  <hydroph_interaction:ASN:152>  (294) 
0

>  <halogenbond:TYR:150>  (294) 
0

>  <hbond:ASP:83>  (294) 
0

>  <hydroph_interaction:VAL:155>  (294) 
0

>  <pication:TYR:161>  (294) 
0

>  <hbond:PRO:131>  (294) 
0

>  <hbond:LEU:128>  (294) 
0

>  <saltbridge:ASP:129>  (294) 
0

>  <hbond:THR:134>  (294) 
0

>  <pication:HIS:51>  (294) 
0

>  <hbond:SER:81>  (294) 
0

>  <hbond:GLY:159>  (294) 
0

>  <hydroph_interaction:PRO:101>  (294) 
0

>  <hydroph_interaction:THR:134>  (294) 
0

>  <hbond:GLY:82>  (294) 
0

>  <hydroph_interaction:GLU:104>  (294) 
0

>  <hydroph_interaction:VAL:36>  (294) 
0

>  <hydroph_interaction:MET:49>  (294) 
0

>  <halogenbond:GLU:104>  (294) 
0

>  <hydroph_interaction:LYS:107>  (294) 
0

$$$$
MCULE-3978741046
     RDKit          3D

 46 46  0  0  0  0  0  0  0  0999 V2000
   -8.3158    5.7774  -16.3658 N   0  0  0  0  0  0  0  0  0  0  0  0
   -9.3266    4.8409  -16.9296 C   0  0  0  0  0  0  0  0  0  0  0  0
   -9.4811    4.9905  -18.4466 C   0  0  0  0  0  0  0  0  0  0  0  0
   -8.1599    4.6857  -19.1720 C   0  0  0  0  0  0  0  0  0  0  0  0
   -6.9137    5.0122  -18.3130 C   0  0  0  0  0  0  0  0  0  0  0  0
   -5.7095    5.3499  -19.2210 C   0  0  0  0  0  0  0  0  0  0  0  0
   -4.3720    5.3035  -18.4800 C   0  0  0  0  0  0  0  0  0  0  0  0
   -7.2434    6.1547  -17.3260 C   0  0  0  0  0  0  0  0  0  0  0  0
   -7.7523    5.2707  -15.0923 C   0  0  0  0  0  0  0  0  0  0  0  0
   -8.7749    5.2901  -13.9314 C   0  0  0  0  0  0  0  0  0  0  0  0
   -9.1438    6.7397  -13.5021 C   0  0  0  0  0  0  0  0  0  0  0  0
  -10.1838    7.4010  -14.4206 C   0  0  0  0  0  0  0  0  0  0  0  0
  -10.6532    8.7362  -13.8490 C   0  0  0  0  0  0  0  0  0  0  0  0
   -8.1786    4.5464  -12.8026 N   0  0  0  0  0  0  0  0  0  0  0  0
   -9.1926    3.9190  -11.9435 C   0  0  0  0  0  0  0  0  0  0  0  0
   -8.5175    3.0742  -10.8695 C   0  0  0  0  0  0  0  0  0  0  0  0
   -9.0694    3.7800  -16.7085 H   0  0  0  0  0  0  0  0  0  0  0  0
  -10.3138    5.0537  -16.4682 H   0  0  0  0  0  0  0  0  0  0  0  0
   -9.8017    6.0312  -18.6740 H   0  0  0  0  0  0  0  0  0  0  0  0
  -10.2756    4.3049  -18.8131 H   0  0  0  0  0  0  0  0  0  0  0  0
   -8.1314    3.6085  -19.4474 H   0  0  0  0  0  0  0  0  0  0  0  0
   -8.1479    5.2686  -20.1198 H   0  0  0  0  0  0  0  0  0  0  0  0
   -6.6612    4.1050  -17.7189 H   0  0  0  0  0  0  0  0  0  0  0  0
   -5.6583    4.6069  -20.0473 H   0  0  0  0  0  0  0  0  0  0  0  0
   -5.8436    6.3544  -19.6788 H   0  0  0  0  0  0  0  0  0  0  0  0
   -4.2448    4.3273  -17.9657 H   0  0  0  0  0  0  0  0  0  0  0  0
   -3.5436    5.4260  -19.2092 H   0  0  0  0  0  0  0  0  0  0  0  0
   -4.2971    6.1247  -17.7387 H   0  0  0  0  0  0  0  0  0  0  0  0
   -7.5868    7.0419  -17.9019 H   0  0  0  0  0  0  0  0  0  0  0  0
   -6.3273    6.4902  -16.7974 H   0  0  0  0  0  0  0  0  0  0  0  0
   -7.3642    4.2363  -15.2329 H   0  0  0  0  0  0  0  0  0  0  0  0
   -6.8835    5.8881  -14.7721 H   0  0  0  0  0  0  0  0  0  0  0  0
   -9.6950    4.7641  -14.2670 H   0  0  0  0  0  0  0  0  0  0  0  0
   -9.5667    6.7176  -12.4756 H   0  0  0  0  0  0  0  0  0  0  0  0
   -8.2292    7.3711  -13.4591 H   0  0  0  0  0  0  0  0  0  0  0  0
   -9.7487    7.5934  -15.4217 H   0  0  0  0  0  0  0  0  0  0  0  0
  -11.0656    6.7343  -14.5366 H   0  0  0  0  0  0  0  0  0  0  0  0
  -11.1415    8.5850  -12.8628 H   0  0  0  0  0  0  0  0  0  0  0  0
   -9.7925    9.4286  -13.7305 H   0  0  0  0  0  0  0  0  0  0  0  0
  -11.3887    9.1988  -14.5405 H   0  0  0  0  0  0  0  0  0  0  0  0
   -7.5822    5.1873  -12.2265 H   0  0  0  0  0  0  0  0  0  0  0  0
   -9.8255    4.6883  -11.4511 H   0  0  0  0  0  0  0  0  0  0  0  0
   -9.8449    3.2501  -12.5471 H   0  0  0  0  0  0  0  0  0  0  0  0
   -9.2893    2.5784  -10.2436 H   0  0  0  0  0  0  0  0  0  0  0  0
   -7.8824    2.2945  -11.3411 H   0  0  0  0  0  0  0  0  0  0  0  0
   -7.8867    3.7148  -10.2173 H   0  0  0  0  0  0  0  0  0  0  0  0
  1  2  1  0
  2  3  1  0
  3  4  1  0
  4  5  1  0
  5  6  1  0
  6  7  1  0
  5  8  1  0
  1  9  1  0
  9 10  1  0
 10 11  1  0
 11 12  1  0
 12 13  1  0
 10 14  1  0
 14 15  1  0
 15 16  1  0
  8  1  1  0
  2 17  1  0
  2 18  1  0
  3 19  1  0
  3 20  1  0
  4 21  1  0
  4 22  1  0
  5 23  1  0
  6 24  1  0
  6 25  1  0
  7 26  1  0
  7 27  1  0
  7 28  1  0
  8 29  1  0
  8 30  1  0
  9 31  1  0
  9 32  1  0
 10 33  1  0
 11 34  1  0
 11 35  1  0
 12 36  1  0
 12 37  1  0
 13 38  1  0
 13 39  1  0
 13 40  1  0
 14 41  1  0
 15 42  1  0
 15 43  1  0
 16 44  1  0
 16 45  1  0
 16 46  1  0
A    1
 N1 
A    2
 C1 
A    3
 C2 
A    4
 C3 
A    5
 C4 
A    6
 C5 
A    7
 C6 
A    8
 C7 
A    9
 C8 
A   10
 C9 
A   11
 C10
A   12
 C11
A   13
 C12
A   14
 N2 
A   15
 C13
A   16
 C14
A   17
 H1 
A   18
 H2 
A   19
 H3 
A   20
 H4 
A   21
 H5 
A   22
 H6 
A   23
 H7 
A   24
 H8 
A   25
 H9 
A   26
 H10
A   27
 H11
A   28
 H12
A   29
 H13
A   30
 H14
A   31
 H15
A   32
 H16
A   33
 H17
A   34
 H18
A   35
 H19
A   36
 H20
A   37
 H21
A   38
 H22
A   39
 H23
A   40
 H24
A   41
 H25
A   42
 H26
A   43
 H27
A   44
 H28
A   45
 H29
A   46
 H30
M  END
>  <ref_pdb>  (295) 
x0051_0B

>  <ref_mols>  (295) 
x0951_0B,x0051_0B

>  <original SMILES>  (295) 
[H]N(C([H])([H])C([H])([H])[H])C([H])(C([H])([H])N1C([H])([H])C([H])([H])C([H])([H])C([H])(C([H])([H])C([H])([H])[H])C1([H])[H])C([H])([H])C([H])([H])C([H])([H])[H]

>  <index>  (295) 
507

>  <∆∆G>  (295) 
-6.581299

>  <∆G_bound>  (295) 
-5.987852

>  <∆G_unbound>  (295) 
0.593448

>  <comRMSD>  (295) 
0.602431

>  <N_constrained_atoms>  (295) 
17.0

>  <N_unconstrained_atoms>  (295) 
4.0

>  <runtime>  (295) 
51.672641

>  <LE>  (295) 
0.313395

>  <percent_hybrid>  (295) 
46.0

>  <dist>  (295) 
8.0

>  <ecfp4>  (295) 
0.121212

>  <daylight>  (295) 
0.362637

>  <topodist>  (295) 
4.0

>  <mces>  (295) 
16.0

>  <tdn>  (295) 
2.0

>  <tup>  (295) 
0.0

>  <rdn>  (295) 
2.0

>  <rup>  (295) 
0.0

>  <ldn>  (295) 
0.0

>  <lup>  (295) 
0.0

>  <mut>  (295) 
4.0

>  <maj>  (295) 
4.0

>  <min>  (295) 
0.0

>  <hyb>  (295) 
0.0

>  <sub>  (295) 
4.0

>  <query_index>  (295) 
318.0

>  <max_hit_Tanimoto>  (295) 
0.073333

>  <largest_ring>  (295) 
6

>  <N_interactions_kept>  (295) 
3.0

>  <N_interactions_lost>  (295) 
1.0

>  <interaction_uniqueness_metric>  (295) 
0.457326

>  <ad_hoc_penalty>  (295) 
-21.742477

>  <N_rotatable_bonds>  (295) 
10

>  <N_HA>  (295) 
16

>  <cluster>  (295) 
5756

>  <N_interactions>  (295) 
8

>  <Enamine>  (295) 
0

>  <Mcule>  (295) 
1

>  <N_PAINS>  (295) 
0

>  <UFF_Gibbs>  (295) 
181.046646

>  <strain_per_HA>  (295) 
8.621269

>  <saltbridge:HIS:51>  (295) 
0

>  <pistack:HIS:51>  (295) 
0

>  <hydroph_interaction:HIS:51>  (295) 
0

>  <hbond:ALA:132>  (295) 
0

>  <hbond:SER:135>  (295) 
0

>  <hydroph_interaction:TYR:150>  (295) 
1

>  <pistack:TYR:161>  (295) 
0

>  <hydroph_interaction:TYR:161>  (295) 
4

>  <hydroph_interaction:ASP:83>  (295) 
0

>  <hbond:TYR:130>  (295) 
0

>  <hydroph_interaction:ALA:132>  (295) 
1

>  <hbond:HIS:51>  (295) 
0

>  <hbond:ASP:129>  (295) 
0

>  <hbond:TYR:150>  (295) 
0

>  <hbond:GLY:151>  (295) 
0

>  <hbond:TYR:161>  (295) 
0

>  <hydroph_interaction:TYR:130>  (295) 
0

>  <hydroph_interaction:PRO:131>  (295) 
0

>  <hydroph_interaction:ASP:129>  (295) 
0

>  <saltbridge:ASP:75>  (295) 
0

>  <saltbridge:ASP:83>  (295) 
0

>  <hydroph_interaction:ASN:152>  (295) 
1

>  <halogenbond:TYR:150>  (295) 
0

>  <hbond:ASP:83>  (295) 
0

>  <hydroph_interaction:VAL:155>  (295) 
0

>  <pication:TYR:161>  (295) 
1

>  <hbond:PRO:131>  (295) 
0

>  <hbond:LEU:128>  (295) 
0

>  <saltbridge:ASP:129>  (295) 
0

>  <hbond:THR:134>  (295) 
0

>  <pication:HIS:51>  (295) 
0

>  <hbond:SER:81>  (295) 
0

>  <hbond:GLY:159>  (295) 
0

>  <hydroph_interaction:PRO:101>  (295) 
0

>  <hydroph_interaction:THR:134>  (295) 
0

>  <hbond:GLY:82>  (295) 
0

>  <hydroph_interaction:GLU:104>  (295) 
0

>  <hydroph_interaction:VAL:36>  (295) 
0

>  <hydroph_interaction:MET:49>  (295) 
0

>  <halogenbond:GLU:104>  (295) 
0

>  <hydroph_interaction:LYS:107>  (295) 
0

$$$$
Z1256048809
     RDKit          3D

 56 60  0  0  0  0  0  0  0  0999 V2000
   -6.5017    5.1999  -22.1668 O   0  0  0  0  0  0  0  0  0  0  0  0
   -6.4891    6.2942  -21.5412 C   0  0  0  0  0  0  0  0  0  0  0  0
   -6.0771    6.3247  -20.1631 N   0  0  0  0  0  0  0  0  0  0  0  0
   -5.4408    5.2106  -19.5199 C   0  0  0  0  0  0  0  0  0  0  0  0
   -4.3427    4.5830  -20.1316 C   0  0  0  0  0  0  0  0  0  0  0  0
   -3.6632    3.5514  -19.4802 C   0  0  0  0  0  0  0  0  0  0  0  0
   -4.0683    3.1415  -18.2104 C   0  0  0  0  0  0  0  0  0  0  0  0
   -5.1613    3.7569  -17.5899 C   0  0  0  0  0  0  0  0  0  0  0  0
   -5.8584    4.7871  -18.2374 C   0  0  0  0  0  0  0  0  0  0  0  0
   -7.0248    5.3447  -17.6080 N   0  0  0  0  0  0  0  0  0  0  0  0
   -8.3186    5.3375  -18.2972 C   0  0  0  0  0  0  0  0  0  0  0  0
   -9.4441    5.1994  -17.2694 C   0  0  0  0  0  0  0  0  0  0  0  0
   -9.3182    6.1813  -16.2577 O   0  0  0  0  0  0  0  0  0  0  0  0
   -8.1381    5.9493  -15.5092 C   0  0  0  0  0  0  0  0  0  0  0  0
   -6.8902    6.1343  -16.3822 C   0  0  0  0  0  0  0  0  0  0  0  0
   -6.9466    7.5280  -22.2201 C   0  0  0  0  0  0  0  0  0  0  0  0
   -7.8657    7.4521  -23.2828 C   0  0  0  0  0  0  0  0  0  0  0  0
   -8.3197    8.6164  -23.9100 C   0  0  0  0  0  0  0  0  0  0  0  0
   -7.8438    9.8673  -23.5001 C   0  0  0  0  0  0  0  0  0  0  0  0
   -8.4524   11.3661  -24.2804 S   0  0  0  0  0  0  0  0  0  0  0  0
   -7.1821   11.4040  -25.5881 C   0  0  0  0  0  0  0  0  0  0  0  0
   -7.4768   10.3725  -26.6272 C   0  0  0  0  0  0  0  0  0  0  0  0
   -6.7389    9.2381  -26.7788 N   0  0  0  0  0  0  0  0  0  0  0  0
   -7.3906    8.5898  -27.7613 C   0  0  0  0  0  0  0  0  0  0  0  0
   -7.0787    7.3512  -28.3220 C   0  0  0  0  0  0  0  0  0  0  0  0
   -7.9221    6.8615  -29.3390 C   0  0  0  0  0  0  0  0  0  0  0  0
   -9.0436    7.6133  -29.7616 C   0  0  0  0  0  0  0  0  0  0  0  0
   -9.3317    8.8603  -29.1696 C   0  0  0  0  0  0  0  0  0  0  0  0
   -8.4734    9.3113  -28.1690 C   0  0  0  0  0  0  0  0  0  0  0  0
   -8.5440   10.4451  -27.4603 N   0  0  0  0  0  0  0  0  0  0  0  0
   -6.9141    9.9507  -22.4578 C   0  0  0  0  0  0  0  0  0  0  0  0
   -6.4684    8.7892  -21.8194 C   0  0  0  0  0  0  0  0  0  0  0  0
   -6.3508    7.1433  -19.5731 H   0  0  0  0  0  0  0  0  0  0  0  0
   -3.9973    4.9128  -21.1005 H   0  0  0  0  0  0  0  0  0  0  0  0
   -2.8114    3.0838  -19.9495 H   0  0  0  0  0  0  0  0  0  0  0  0
   -3.5378    2.3439  -17.7062 H   0  0  0  0  0  0  0  0  0  0  0  0
   -5.4767    3.4180  -16.6109 H   0  0  0  0  0  0  0  0  0  0  0  0
   -8.3708    4.4916  -19.0181 H   0  0  0  0  0  0  0  0  0  0  0  0
   -8.4533    6.2917  -18.8514 H   0  0  0  0  0  0  0  0  0  0  0  0
  -10.4172    5.3453  -17.7850 H   0  0  0  0  0  0  0  0  0  0  0  0
   -9.4534    4.1721  -16.8370 H   0  0  0  0  0  0  0  0  0  0  0  0
   -8.1018    6.6797  -14.6733 H   0  0  0  0  0  0  0  0  0  0  0  0
   -8.1456    4.9320  -15.0501 H   0  0  0  0  0  0  0  0  0  0  0  0
   -5.9934    5.8181  -15.8035 H   0  0  0  0  0  0  0  0  0  0  0  0
   -6.7789    7.2059  -16.6521 H   0  0  0  0  0  0  0  0  0  0  0  0
   -8.2508    6.4942  -23.6127 H   0  0  0  0  0  0  0  0  0  0  0  0
   -9.0422    8.5444  -24.7140 H   0  0  0  0  0  0  0  0  0  0  0  0
   -6.1740   11.2461  -25.1539 H   0  0  0  0  0  0  0  0  0  0  0  0
   -7.1995   12.4047  -26.0642 H   0  0  0  0  0  0  0  0  0  0  0  0
   -6.2203    6.7823  -27.9850 H   0  0  0  0  0  0  0  0  0  0  0  0
   -7.7106    5.9033  -29.7981 H   0  0  0  0  0  0  0  0  0  0  0  0
   -9.6833    7.2286  -30.5432 H   0  0  0  0  0  0  0  0  0  0  0  0
  -10.1878    9.4457  -29.4806 H   0  0  0  0  0  0  0  0  0  0  0  0
   -9.2667   11.1986  -27.5216 H   0  0  0  0  0  0  0  0  0  0  0  0
   -6.5384   10.9145  -22.1375 H   0  0  0  0  0  0  0  0  0  0  0  0
   -5.7386    8.8787  -21.0250 H   0  0  0  0  0  0  0  0  0  0  0  0
  1  2  2  0
  2  3  1  0
  3  4  1  0
  4  5  2  0
  5  6  1  0
  6  7  2  0
  7  8  1  0
  8  9  2  0
  9 10  1  0
 10 11  1  0
 11 12  1  0
 12 13  1  0
 13 14  1  0
 14 15  1  0
  2 16  1  0
 16 17  2  0
 17 18  1  0
 18 19  2  0
 19 20  1  0
 20 21  1  0
 21 22  1  0
 22 23  2  0
 23 24  1  0
 24 25  2  0
 25 26  1  0
 26 27  2  0
 27 28  1  0
 28 29  2  0
 29 30  1  0
 19 31  1  0
 31 32  2  0
  9  4  1  0
 15 10  1  0
 32 16  1  0
 30 22  1  0
 29 24  1  0
  3 33  1  0
  5 34  1  0
  6 35  1  0
  7 36  1  0
  8 37  1  0
 11 38  1  0
 11 39  1  0
 12 40  1  0
 12 41  1  0
 14 42  1  0
 14 43  1  0
 15 44  1  0
 15 45  1  0
 17 46  1  0
 18 47  1  0
 21 48  1  0
 21 49  1  0
 25 50  1  0
 26 51  1  0
 27 52  1  0
 28 53  1  0
 30 54  1  0
 31 55  1  0
 32 56  1  0
A    1
 O1 
A    2
 C1 
A    3
 N1 
A    4
 C2 
A    5
 C3 
A    6
 C4 
A    7
 C5 
A    8
 C6 
A    9
 C7 
A   10
 N2 
A   11
 C8 
A   12
 C9 
A   13
 O2 
A   14
 C10
A   15
 C11
A   16
 C12
A   17
 C13
A   18
 C14
A   19
 C15
A   20
 S1 
A   21
 C16
A   22
 C17
A   23
 N3 
A   24
 C18
A   25
 C19
A   26
 C20
A   27
 C21
A   28
 C22
A   29
 C23
A   30
 N4 
A   31
 C24
A   32
 C25
A   33
 H1 
A   34
 H2 
A   35
 H3 
A   36
 H4 
A   37
 H5 
A   38
 H6 
A   39
 H7 
A   40
 H8 
A   41
 H9 
A   42
 H10
A   43
 H11
A   44
 H12
A   45
 H13
A   46
 H14
A   47
 H15
A   48
 H16
A   49
 H17
A   50
 H18
A   51
 H19
A   52
 H20
A   53
 H21
A   54
 H22
A   55
 H23
A   56
 H24
M  END
>  <ref_pdb>  (296) 
x0051_0B

>  <ref_mols>  (296) 
x0465_0B,x0846_1B

>  <original SMILES>  (296) 
[H]c1c([H])c([H])c(N2C([H])([H])C([H])([H])OC([H])([H])C2([H])[H])c(N([H])C(=O)c2c([H])c([H])c(SC([H])([H])c3nc4c([H])c([H])c([H])c([H])c4n3[H])c([H])c2[H])c1[H]

>  <index>  (296) 
290

>  <∆∆G>  (296) 
-9.135278

>  <∆G_bound>  (296) 
-7.478973

>  <∆G_unbound>  (296) 
1.656305

>  <comRMSD>  (296) 
0.635951

>  <N_constrained_atoms>  (296) 
30.0

>  <N_unconstrained_atoms>  (296) 
2.0

>  <runtime>  (296) 
49.305494

>  <LE>  (296) 
0.285477

>  <percent_hybrid>  (296) 
40.0

>  <dist>  (296) 
8.0

>  <ecfp4>  (296) 
0.301205

>  <daylight>  (296) 
0.35865

>  <topodist>  (296) 
3.0

>  <mces>  (296) 
35.0

>  <tdn>  (296) 
2.0

>  <tup>  (296) 
1.0

>  <rdn>  (296) 
0.0

>  <rup>  (296) 
0.0

>  <ldn>  (296) 
0.0

>  <lup>  (296) 
0.0

>  <mut>  (296) 
4.0

>  <maj>  (296) 
4.0

>  <min>  (296) 
0.0

>  <hyb>  (296) 
1.0

>  <sub>  (296) 
1.0

>  <query_index>  (296) 
127.0

>  <max_hit_Tanimoto>  (296) 
0.290828

>  <largest_ring>  (296) 
6

>  <N_interactions_kept>  (296) 
1.0

>  <N_interactions_lost>  (296) 
3.0

>  <interaction_uniqueness_metric>  (296) 
0.272101

>  <ad_hoc_penalty>  (296) 
-21.724058

>  <N_rotatable_bonds>  (296) 
6

>  <N_HA>  (296) 
32

>  <cluster>  (296) 
5952

>  <N_interactions>  (296) 
8

>  <Enamine>  (296) 
1

>  <Mcule>  (296) 
0

>  <N_PAINS>  (296) 
0

>  <UFF_Gibbs>  (296) 
269.267788

>  <strain_per_HA>  (296) 
8.414618

>  <saltbridge:HIS:51>  (296) 
0

>  <pistack:HIS:51>  (296) 
0

>  <hydroph_interaction:HIS:51>  (296) 
0

>  <hbond:ALA:132>  (296) 
0

>  <hbond:SER:135>  (296) 
1

>  <hydroph_interaction:TYR:150>  (296) 
0

>  <pistack:TYR:161>  (296) 
1

>  <hydroph_interaction:TYR:161>  (296) 
1

>  <hydroph_interaction:ASP:83>  (296) 
0

>  <hbond:TYR:130>  (296) 
1

>  <hydroph_interaction:ALA:132>  (296) 
0

>  <hbond:HIS:51>  (296) 
0

>  <hbond:ASP:129>  (296) 
1

>  <hbond:TYR:150>  (296) 
0

>  <hbond:GLY:151>  (296) 
0

>  <hbond:TYR:161>  (296) 
0

>  <hydroph_interaction:TYR:130>  (296) 
1

>  <hydroph_interaction:PRO:131>  (296) 
1

>  <hydroph_interaction:ASP:129>  (296) 
0

>  <saltbridge:ASP:75>  (296) 
0

>  <saltbridge:ASP:83>  (296) 
0

>  <hydroph_interaction:ASN:152>  (296) 
0

>  <halogenbond:TYR:150>  (296) 
0

>  <hbond:ASP:83>  (296) 
0

>  <hydroph_interaction:VAL:155>  (296) 
1

>  <pication:TYR:161>  (296) 
0

>  <hbond:PRO:131>  (296) 
0

>  <hbond:LEU:128>  (296) 
0

>  <saltbridge:ASP:129>  (296) 
0

>  <hbond:THR:134>  (296) 
0

>  <pication:HIS:51>  (296) 
0

>  <hbond:SER:81>  (296) 
0

>  <hbond:GLY:159>  (296) 
0

>  <hydroph_interaction:PRO:101>  (296) 
0

>  <hydroph_interaction:THR:134>  (296) 
0

>  <hbond:GLY:82>  (296) 
0

>  <hydroph_interaction:GLU:104>  (296) 
0

>  <hydroph_interaction:VAL:36>  (296) 
0

>  <hydroph_interaction:MET:49>  (296) 
0

>  <halogenbond:GLU:104>  (296) 
0

>  <hydroph_interaction:LYS:107>  (296) 
0

$$$$
MCULE-9672868885
     RDKit          3D

 21 22  0  0  0  0  0  0  0  0999 V2000
   -7.8886    5.0383  -18.1672 C   0  0  0  0  0  0  0  0  0  0  0  0
   -8.3389    5.1165  -16.8604 C   0  0  0  0  0  0  0  0  0  0  0  0
   -9.7019    4.9179  -16.9165 C   0  0  0  0  0  0  0  0  0  0  0  0
  -10.0721    4.7284  -18.1614 O   0  0  0  0  0  0  0  0  0  0  0  0
   -9.0148    4.7934  -18.9370 C   0  0  0  0  0  0  0  0  0  0  0  0
   -6.4887    5.1865  -18.6435 C   0  0  0  0  0  0  0  0  0  0  0  0
   -5.4133    5.1873  -17.7378 C   0  0  0  0  0  0  0  0  0  0  0  0
   -4.1031    5.3267  -18.1981 C   0  0  0  0  0  0  0  0  0  0  0  0
   -3.8672    5.4665  -19.5691 C   0  0  0  0  0  0  0  0  0  0  0  0
   -2.4719    5.6191  -20.0852 C   0  0  0  0  0  0  0  0  0  0  0  0
   -4.9151    5.4664  -20.4355 N   0  0  0  0  0  0  0  0  0  0  0  0
   -6.2003    5.3308  -20.0130 C   0  0  0  0  0  0  0  0  0  0  0  0
   -7.7594    5.3066  -15.9676 H   0  0  0  0  0  0  0  0  0  0  0  0
  -10.3775    4.9167  -16.0717 H   0  0  0  0  0  0  0  0  0  0  0  0
   -9.0512    4.6647  -20.0098 H   0  0  0  0  0  0  0  0  0  0  0  0
   -5.5767    5.0697  -16.6754 H   0  0  0  0  0  0  0  0  0  0  0  0
   -3.2803    5.3237  -17.4937 H   0  0  0  0  0  0  0  0  0  0  0  0
   -2.4722    5.7036  -21.1927 H   0  0  0  0  0  0  0  0  0  0  0  0
   -2.0122    6.5349  -19.6576 H   0  0  0  0  0  0  0  0  0  0  0  0
   -1.8657    4.7352  -19.7954 H   0  0  0  0  0  0  0  0  0  0  0  0
   -6.9897    5.3482  -20.7505 H   0  0  0  0  0  0  0  0  0  0  0  0
  1  2  1  0
  2  3  2  0
  3  4  1  0
  4  5  1  0
  1  6  1  0
  6  7  2  0
  7  8  1  0
  8  9  2  0
  9 10  1  0
  9 11  1  0
 11 12  2  0
  1  5  2  0
 12  6  1  0
  2 13  1  0
  3 14  1  0
  5 15  1  0
  7 16  1  0
  8 17  1  0
 10 18  1  0
 10 19  1  0
 10 20  1  0
 12 21  1  0
A    1
 C1 
A    2
 C2 
A    3
 C3 
A    4
 O1 
A    5
 C4 
A    6
 C5 
A    7
 C6 
A    8
 C7 
A    9
 C8 
A   10
 C9 
A   11
 N1 
A   12
 C10
A   13
 H1 
A   14
 H2 
A   15
 H3 
A   16
 H4 
A   17
 H5 
A   18
 H6 
A   19
 H7 
A   20
 H8 
A   21
 H9 
M  END
>  <ref_pdb>  (297) 
x0051_0B

>  <ref_mols>  (297) 
x0680_0B,x0386_0B

>  <original SMILES>  (297) 
[H]c1nc(C([H])([H])[H])c([H])c([H])c1-c1c([H])oc([H])c1[H]

>  <index>  (297) 
475

>  <∆∆G>  (297) 
-5.947115

>  <∆G_bound>  (297) 
-5.996049

>  <∆G_unbound>  (297) 
-0.048934

>  <comRMSD>  (297) 
0.610429

>  <N_constrained_atoms>  (297) 
13.0

>  <N_unconstrained_atoms>  (297) 
1.0

>  <runtime>  (297) 
22.335048

>  <LE>  (297) 
0.424794

>  <percent_hybrid>  (297) 
25.0

>  <dist>  (297) 
3.0

>  <ecfp4>  (297) 
0.265306

>  <daylight>  (297) 
0.410448

>  <topodist>  (297) 
2.0

>  <mces>  (297) 
12.0

>  <tdn>  (297) 
1.0

>  <tup>  (297) 
1.0

>  <rdn>  (297) 
0.0

>  <rup>  (297) 
0.0

>  <ldn>  (297) 
0.0

>  <lup>  (297) 
0.0

>  <mut>  (297) 
1.0

>  <maj>  (297) 
1.0

>  <min>  (297) 
0.0

>  <hyb>  (297) 
0.0

>  <sub>  (297) 
2.0

>  <query_index>  (297) 
296.0

>  <max_hit_Tanimoto>  (297) 
0.145522

>  <largest_ring>  (297) 
6

>  <N_interactions_kept>  (297) 
3.5

>  <N_interactions_lost>  (297) 
0.5

>  <interaction_uniqueness_metric>  (297) 
0.016266

>  <ad_hoc_penalty>  (297) 
-21.720745

>  <N_rotatable_bonds>  (297) 
2

>  <N_HA>  (297) 
12

>  <cluster>  (297) 
5786

>  <N_interactions>  (297) 
3

>  <Enamine>  (297) 
0

>  <Mcule>  (297) 
1

>  <N_PAINS>  (297) 
0

>  <UFF_Gibbs>  (297) 
37.6801

>  <strain_per_HA>  (297) 
2.691436

>  <saltbridge:HIS:51>  (297) 
0

>  <pistack:HIS:51>  (297) 
0

>  <hydroph_interaction:HIS:51>  (297) 
0

>  <hbond:ALA:132>  (297) 
0

>  <hbond:SER:135>  (297) 
0

>  <hydroph_interaction:TYR:150>  (297) 
0

>  <pistack:TYR:161>  (297) 
0

>  <hydroph_interaction:TYR:161>  (297) 
3

>  <hydroph_interaction:ASP:83>  (297) 
0

>  <hbond:TYR:130>  (297) 
0

>  <hydroph_interaction:ALA:132>  (297) 
0

>  <hbond:HIS:51>  (297) 
0

>  <hbond:ASP:129>  (297) 
0

>  <hbond:TYR:150>  (297) 
0

>  <hbond:GLY:151>  (297) 
0

>  <hbond:TYR:161>  (297) 
0

>  <hydroph_interaction:TYR:130>  (297) 
0

>  <hydroph_interaction:PRO:131>  (297) 
0

>  <hydroph_interaction:ASP:129>  (297) 
0

>  <saltbridge:ASP:75>  (297) 
0

>  <saltbridge:ASP:83>  (297) 
0

>  <hydroph_interaction:ASN:152>  (297) 
0

>  <halogenbond:TYR:150>  (297) 
0

>  <hbond:ASP:83>  (297) 
0

>  <hydroph_interaction:VAL:155>  (297) 
0

>  <pication:TYR:161>  (297) 
0

>  <hbond:PRO:131>  (297) 
0

>  <hbond:LEU:128>  (297) 
0

>  <saltbridge:ASP:129>  (297) 
0

>  <hbond:THR:134>  (297) 
0

>  <pication:HIS:51>  (297) 
0

>  <hbond:SER:81>  (297) 
0

>  <hbond:GLY:159>  (297) 
0

>  <hydroph_interaction:PRO:101>  (297) 
0

>  <hydroph_interaction:THR:134>  (297) 
0

>  <hbond:GLY:82>  (297) 
0

>  <hydroph_interaction:GLU:104>  (297) 
0

>  <hydroph_interaction:VAL:36>  (297) 
0

>  <hydroph_interaction:MET:49>  (297) 
0

>  <halogenbond:GLU:104>  (297) 
0

>  <hydroph_interaction:LYS:107>  (297) 
0

$$$$
MCULE-7745530070
     RDKit          3D

 30 32  0  0  0  0  0  0  0  0999 V2000
   -7.3026    5.6335  -17.6390 C   0  0  0  0  0  0  0  0  0  0  0  0
   -7.7996    5.3110  -16.3695 C   0  0  0  0  0  0  0  0  0  0  0  0
   -9.1277    4.8564  -16.2537 C   0  0  0  0  0  0  0  0  0  0  0  0
   -9.9302    4.7338  -17.4084 C   0  0  0  0  0  0  0  0  0  0  0  0
   -9.4116    5.0625  -18.6698 C   0  0  0  0  0  0  0  0  0  0  0  0
   -8.0935    5.5093  -18.7488 C   0  0  0  0  0  0  0  0  0  0  0  0
   -7.4139    5.8810  -19.9268 N   0  0  0  0  0  0  0  0  0  0  0  0
   -6.0554    6.2891  -19.5871 C   0  0  0  0  0  0  0  0  0  0  0  0
   -5.9333    6.1362  -18.0310 C   0  0  0  0  0  0  0  0  0  0  0  0
   -4.8262    5.1620  -17.6113 C   0  0  0  0  0  0  0  0  0  0  0  0
   -4.3414    5.6307  -16.2429 C   0  0  0  0  0  0  0  0  0  0  0  0
   -4.8191    7.0719  -16.0638 C   0  0  0  0  0  0  0  0  0  0  0  0
   -5.5856    7.4528  -17.3266 C   0  0  0  0  0  0  0  0  0  0  0  0
   -9.6610    4.5201  -14.9705 N   0  0  0  0  0  0  0  0  0  0  0  0
   -7.1783    5.4077  -15.4908 H   0  0  0  0  0  0  0  0  0  0  0  0
  -10.9520    4.3852  -17.3282 H   0  0  0  0  0  0  0  0  0  0  0  0
  -10.0210    4.9711  -19.5594 H   0  0  0  0  0  0  0  0  0  0  0  0
   -7.8174    5.8669  -20.8897 H   0  0  0  0  0  0  0  0  0  0  0  0
   -5.9016    7.3379  -19.9199 H   0  0  0  0  0  0  0  0  0  0  0  0
   -5.3381    5.6380  -20.1312 H   0  0  0  0  0  0  0  0  0  0  0  0
   -3.9713    5.2224  -18.3209 H   0  0  0  0  0  0  0  0  0  0  0  0
   -5.1792    4.1074  -17.5783 H   0  0  0  0  0  0  0  0  0  0  0  0
   -3.2325    5.5728  -16.1814 H   0  0  0  0  0  0  0  0  0  0  0  0
   -4.7700    4.9847  -15.4460 H   0  0  0  0  0  0  0  0  0  0  0  0
   -3.9564    7.7566  -15.9100 H   0  0  0  0  0  0  0  0  0  0  0  0
   -5.4862    7.1455  -15.1775 H   0  0  0  0  0  0  0  0  0  0  0  0
   -4.9140    8.0663  -17.9675 H   0  0  0  0  0  0  0  0  0  0  0  0
   -6.4885    8.0573  -17.0874 H   0  0  0  0  0  0  0  0  0  0  0  0
  -10.6442    4.1820  -14.8723 H   0  0  0  0  0  0  0  0  0  0  0  0
   -9.0763    4.6069  -14.1094 H   0  0  0  0  0  0  0  0  0  0  0  0
  1  2  2  0
  2  3  1  0
  3  4  2  0
  4  5  1  0
  5  6  2  0
  6  7  1  0
  7  8  1  0
  8  9  1  0
  9 10  1  0
 10 11  1  0
 11 12  1  0
 12 13  1  0
  3 14  1  0
  1  6  1  0
  9  1  1  0
 13  9  1  0
  2 15  1  0
  4 16  1  0
  5 17  1  0
  7 18  1  0
  8 19  1  0
  8 20  1  0
 10 21  1  0
 10 22  1  0
 11 23  1  0
 11 24  1  0
 12 25  1  0
 12 26  1  0
 13 27  1  0
 13 28  1  0
 14 29  1  0
 14 30  1  0
A    1
 C1 
A    2
 C2 
A    3
 C3 
A    4
 C4 
A    5
 C5 
A    6
 C6 
A    7
 N1 
A    8
 C7 
A    9
 C8 
A   10
 C9 
A   11
 C10
A   12
 C11
A   13
 C12
A   14
 N2 
A   15
 H1 
A   16
 H2 
A   17
 H3 
A   18
 H4 
A   19
 H5 
A   20
 H6 
A   21
 H7 
A   22
 H8 
A   23
 H9 
A   24
 H10
A   25
 H11
A   26
 H12
A   27
 H13
A   28
 H14
A   29
 H15
A   30
 H16
M  END
>  <ref_pdb>  (298) 
x0051_0B

>  <ref_mols>  (298) 
x0490_0B,x0227_0B

>  <original SMILES>  (298) 
[H]c1c([H])c2c(c([H])c1N([H])[H])C1(C([H])([H])N2[H])C([H])([H])C([H])([H])C([H])([H])C1([H])[H]

>  <index>  (298) 
329

>  <∆∆G>  (298) 
-5.137255

>  <∆G_bound>  (298) 
-4.981036

>  <∆G_unbound>  (298) 
0.156219

>  <comRMSD>  (298) 
0.708608

>  <N_constrained_atoms>  (298) 
15.0

>  <N_unconstrained_atoms>  (298) 
1.0

>  <runtime>  (298) 
23.955835

>  <LE>  (298) 
0.321078

>  <percent_hybrid>  (298) 
34.0

>  <dist>  (298) 
2.0

>  <ecfp4>  (298) 
0.326087

>  <daylight>  (298) 
0.852632

>  <topodist>  (298) 
2.0

>  <mces>  (298) 
15.0

>  <tdn>  (298) 
1.0

>  <tup>  (298) 
1.0

>  <rdn>  (298) 
0.0

>  <rup>  (298) 
0.0

>  <ldn>  (298) 
0.0

>  <lup>  (298) 
0.0

>  <mut>  (298) 
0.0

>  <maj>  (298) 
0.0

>  <min>  (298) 
0.0

>  <hyb>  (298) 
0.0

>  <sub>  (298) 
2.0

>  <query_index>  (298) 
171.0

>  <max_hit_Tanimoto>  (298) 
0.331536

>  <largest_ring>  (298) 
6

>  <N_interactions_kept>  (298) 
2.0

>  <N_interactions_lost>  (298) 
3.0

>  <interaction_uniqueness_metric>  (298) 
0.145853

>  <ad_hoc_penalty>  (298) 
-21.710207

>  <N_rotatable_bonds>  (298) 
1

>  <N_HA>  (298) 
14

>  <cluster>  (298) 
5919

>  <N_interactions>  (298) 
8

>  <Enamine>  (298) 
0

>  <Mcule>  (298) 
1

>  <N_PAINS>  (298) 
0

>  <UFF_Gibbs>  (298) 
103.202355

>  <strain_per_HA>  (298) 
6.450147

>  <saltbridge:HIS:51>  (298) 
0

>  <pistack:HIS:51>  (298) 
0

>  <hydroph_interaction:HIS:51>  (298) 
0

>  <hbond:ALA:132>  (298) 
0

>  <hbond:SER:135>  (298) 
2

>  <hydroph_interaction:TYR:150>  (298) 
1

>  <pistack:TYR:161>  (298) 
0

>  <hydroph_interaction:TYR:161>  (298) 
3

>  <hydroph_interaction:ASP:83>  (298) 
0

>  <hbond:TYR:130>  (298) 
1

>  <hydroph_interaction:ALA:132>  (298) 
1

>  <hbond:HIS:51>  (298) 
0

>  <hbond:ASP:129>  (298) 
0

>  <hbond:TYR:150>  (298) 
0

>  <hbond:GLY:151>  (298) 
0

>  <hbond:TYR:161>  (298) 
0

>  <hydroph_interaction:TYR:130>  (298) 
0

>  <hydroph_interaction:PRO:131>  (298) 
0

>  <hydroph_interaction:ASP:129>  (298) 
0

>  <saltbridge:ASP:75>  (298) 
0

>  <saltbridge:ASP:83>  (298) 
0

>  <hydroph_interaction:ASN:152>  (298) 
0

>  <halogenbond:TYR:150>  (298) 
0

>  <hbond:ASP:83>  (298) 
0

>  <hydroph_interaction:VAL:155>  (298) 
0

>  <pication:TYR:161>  (298) 
0

>  <hbond:PRO:131>  (298) 
0

>  <hbond:LEU:128>  (298) 
0

>  <saltbridge:ASP:129>  (298) 
0

>  <hbond:THR:134>  (298) 
0

>  <pication:HIS:51>  (298) 
0

>  <hbond:SER:81>  (298) 
0

>  <hbond:GLY:159>  (298) 
0

>  <hydroph_interaction:PRO:101>  (298) 
0

>  <hydroph_interaction:THR:134>  (298) 
0

>  <hbond:GLY:82>  (298) 
0

>  <hydroph_interaction:GLU:104>  (298) 
0

>  <hydroph_interaction:VAL:36>  (298) 
0

>  <hydroph_interaction:MET:49>  (298) 
0

>  <halogenbond:GLU:104>  (298) 
0

>  <hydroph_interaction:LYS:107>  (298) 
0

$$$$
Z2060771916
     RDKit          3D

 43 47  0  0  0  0  0  0  0  0999 V2000
   -8.9046    5.6916  -19.9521 O   0  0  0  0  0  0  0  0  0  0  0  0
   -7.9307    6.4889  -19.9218 C   0  0  0  0  0  0  0  0  0  0  0  0
   -7.8189    7.5327  -20.9628 C   0  0  0  0  0  0  0  0  0  0  0  0
   -8.2949    7.2875  -22.2624 C   0  0  0  0  0  0  0  0  0  0  0  0
   -8.2185    8.2812  -23.2426 C   0  0  0  0  0  0  0  0  0  0  0  0
   -7.6819    9.5410  -22.9338 C   0  0  0  0  0  0  0  0  0  0  0  0
   -7.5767   10.6017  -23.9905 C   0  0  0  0  0  0  0  0  0  0  0  0
   -5.9790   10.4464  -24.8617 S   0  0  0  0  0  0  0  0  0  0  0  0
   -6.6847    9.7644  -26.3566 C   0  0  0  0  0  0  0  0  0  0  0  0
   -6.8471    8.4360  -26.5676 N   0  0  0  0  0  0  0  0  0  0  0  0
   -7.4643    8.2118  -27.7555 C   0  0  0  0  0  0  0  0  0  0  0  0
   -7.7947    6.9478  -28.2488 C   0  0  0  0  0  0  0  0  0  0  0  0
   -8.4675    6.8579  -29.4790 C   0  0  0  0  0  0  0  0  0  0  0  0
   -8.7990    8.0236  -30.1976 C   0  0  0  0  0  0  0  0  0  0  0  0
   -8.4580    9.2888  -29.6944 C   0  0  0  0  0  0  0  0  0  0  0  0
   -7.7903    9.3507  -28.4747 C   0  0  0  0  0  0  0  0  0  0  0  0
   -7.2985   10.7065  -27.6202 S   0  0  0  0  0  0  0  0  0  0  0  0
   -7.2069    9.7873  -21.6377 C   0  0  0  0  0  0  0  0  0  0  0  0
   -7.2857    8.7961  -20.6566 C   0  0  0  0  0  0  0  0  0  0  0  0
   -6.9459    6.3730  -18.8799 N   0  0  0  0  0  0  0  0  0  0  0  0
   -5.4903    6.5260  -19.0683 C   0  0  0  0  0  0  0  0  0  0  0  0
   -4.8253    5.8362  -17.8385 C   0  0  0  0  0  0  0  0  0  0  0  0
   -5.9628    5.4133  -17.0492 N   0  0  0  0  0  0  0  0  0  0  0  0
   -6.0942    4.3815  -16.2374 N   0  0  0  0  0  0  0  0  0  0  0  0
   -7.4103    4.0536  -16.2639 C   0  0  0  0  0  0  0  0  0  0  0  0
   -8.0864    4.8429  -17.1950 C   0  0  0  0  0  0  0  0  0  0  0  0
   -7.0980    5.6889  -17.6488 C   0  0  0  0  0  0  0  0  0  0  0  0
   -8.7165    6.3237  -22.5216 H   0  0  0  0  0  0  0  0  0  0  0  0
   -8.5811    8.0693  -24.2409 H   0  0  0  0  0  0  0  0  0  0  0  0
   -8.4421   10.5406  -24.6849 H   0  0  0  0  0  0  0  0  0  0  0  0
   -7.6185   11.6074  -23.5224 H   0  0  0  0  0  0  0  0  0  0  0  0
   -7.5527    6.0542  -27.6887 H   0  0  0  0  0  0  0  0  0  0  0  0
   -8.7411    5.8876  -29.8756 H   0  0  0  0  0  0  0  0  0  0  0  0
   -9.3326    7.9447  -31.1383 H   0  0  0  0  0  0  0  0  0  0  0  0
   -8.7131   10.1900  -30.2354 H   0  0  0  0  0  0  0  0  0  0  0  0
   -6.7862   10.7512  -21.3833 H   0  0  0  0  0  0  0  0  0  0  0  0
   -6.9560    9.0290  -19.6529 H   0  0  0  0  0  0  0  0  0  0  0  0
   -5.1701    6.0237  -20.0089 H   0  0  0  0  0  0  0  0  0  0  0  0
   -5.2120    7.5997  -19.0988 H   0  0  0  0  0  0  0  0  0  0  0  0
   -4.2271    4.9555  -18.1558 H   0  0  0  0  0  0  0  0  0  0  0  0
   -4.2017    6.5484  -17.2599 H   0  0  0  0  0  0  0  0  0  0  0  0
   -7.8355    3.2220  -15.7147 H   0  0  0  0  0  0  0  0  0  0  0  0
   -9.0998    4.7248  -17.5504 H   0  0  0  0  0  0  0  0  0  0  0  0
  1  2  2  0
  2  3  1  0
  3  4  2  0
  4  5  1  0
  5  6  2  0
  6  7  1  0
  7  8  1  0
  8  9  1  0
  9 10  2  0
 10 11  1  0
 11 12  2  0
 12 13  1  0
 13 14  2  0
 14 15  1  0
 15 16  2  0
 16 17  1  0
  6 18  1  0
 18 19  2  0
  2 20  1  0
 20 21  1  0
 21 22  1  0
 22 23  1  0
 23 24  1  0
 24 25  2  0
 25 26  1  0
 26 27  2  0
 19  3  1  0
 17  9  1  0
 16 11  1  0
 27 20  1  0
 27 23  1  0
  4 28  1  0
  5 29  1  0
  7 30  1  0
  7 31  1  0
 12 32  1  0
 13 33  1  0
 14 34  1  0
 15 35  1  0
 18 36  1  0
 19 37  1  0
 21 38  1  0
 21 39  1  0
 22 40  1  0
 22 41  1  0
 25 42  1  0
 26 43  1  0
A    1
 O1 
A    2
 C1 
A    3
 C2 
A    4
 C3 
A    5
 C4 
A    6
 C5 
A    7
 C6 
A    8
 S1 
A    9
 C7 
A   10
 N1 
A   11
 C8 
A   12
 C9 
A   13
 C10
A   14
 C11
A   15
 C12
A   16
 C13
A   17
 S2 
A   18
 C14
A   19
 C15
A   20
 N2 
A   21
 C16
A   22
 C17
A   23
 N3 
A   24
 N4 
A   25
 C18
A   26
 C19
A   27
 C20
A   28
 H1 
A   29
 H2 
A   30
 H3 
A   31
 H4 
A   32
 H5 
A   33
 H6 
A   34
 H7 
A   35
 H8 
A   36
 H9 
A   37
 H10
A   38
 H11
A   39
 H12
A   40
 H13
A   41
 H14
A   42
 H15
A   43
 H16
M  END
>  <ref_pdb>  (299) 
x0051_0B

>  <ref_mols>  (299) 
x0846_1B,x0969_0B

>  <original SMILES>  (299) 
[H]c1nn2c(c1[H])N(C(=O)c1c([H])c([H])c(C([H])([H])Sc3nc4c([H])c([H])c([H])c([H])c4s3)c([H])c1[H])C([H])([H])C2([H])[H]

>  <index>  (299) 
615

>  <∆∆G>  (299) 
-7.537102

>  <∆G_bound>  (299) 
-6.931471

>  <∆G_unbound>  (299) 
0.605631

>  <comRMSD>  (299) 
0.984482

>  <N_constrained_atoms>  (299) 
28.0

>  <N_unconstrained_atoms>  (299) 
2.0

>  <runtime>  (299) 
40.340442

>  <LE>  (299) 
0.251237

>  <percent_hybrid>  (299) 
36.0

>  <dist>  (299) 
7.0

>  <ecfp4>  (299) 
0.197917

>  <daylight>  (299) 
0.320334

>  <topodist>  (299) 
4.0

>  <mces>  (299) 
30.0

>  <tdn>  (299) 
2.0

>  <tup>  (299) 
1.0

>  <rdn>  (299) 
0.0

>  <rup>  (299) 
0.0

>  <ldn>  (299) 
1.0

>  <lup>  (299) 
0.0

>  <mut>  (299) 
3.0

>  <maj>  (299) 
3.0

>  <min>  (299) 
0.0

>  <hyb>  (299) 
0.0

>  <sub>  (299) 
2.0

>  <query_index>  (299) 
45.0

>  <max_hit_Tanimoto>  (299) 
0.24805

>  <largest_ring>  (299) 
6

>  <N_interactions_kept>  (299) 
0.5

>  <N_interactions_lost>  (299) 
2.0

>  <interaction_uniqueness_metric>  (299) 
0.18165

>  <ad_hoc_penalty>  (299) 
-21.703925

>  <N_rotatable_bonds>  (299) 
4

>  <N_HA>  (299) 
27

>  <cluster>  (299) 
5656

>  <N_interactions>  (299) 
5

>  <Enamine>  (299) 
1

>  <Mcule>  (299) 
0

>  <N_PAINS>  (299) 
0

>  <UFF_Gibbs>  (299) 
71.653253

>  <strain_per_HA>  (299) 
2.388442

>  <saltbridge:HIS:51>  (299) 
0

>  <pistack:HIS:51>  (299) 
0

>  <hydroph_interaction:HIS:51>  (299) 
0

>  <hbond:ALA:132>  (299) 
0

>  <hbond:SER:135>  (299) 
0

>  <hydroph_interaction:TYR:150>  (299) 
0

>  <pistack:TYR:161>  (299) 
1

>  <hydroph_interaction:TYR:161>  (299) 
0

>  <hydroph_interaction:ASP:83>  (299) 
0

>  <hbond:TYR:130>  (299) 
1

>  <hydroph_interaction:ALA:132>  (299) 
0

>  <hbond:HIS:51>  (299) 
0

>  <hbond:ASP:129>  (299) 
1

>  <hbond:TYR:150>  (299) 
0

>  <hbond:GLY:151>  (299) 
0

>  <hbond:TYR:161>  (299) 
0

>  <hydroph_interaction:TYR:130>  (299) 
1

>  <hydroph_interaction:PRO:131>  (299) 
1

>  <hydroph_interaction:ASP:129>  (299) 
0

>  <saltbridge:ASP:75>  (299) 
0

>  <saltbridge:ASP:83>  (299) 
0

>  <hydroph_interaction:ASN:152>  (299) 
0

>  <halogenbond:TYR:150>  (299) 
0

>  <hbond:ASP:83>  (299) 
0

>  <hydroph_interaction:VAL:155>  (299) 
0

>  <pication:TYR:161>  (299) 
0

>  <hbond:PRO:131>  (299) 
0

>  <hbond:LEU:128>  (299) 
0

>  <saltbridge:ASP:129>  (299) 
0

>  <hbond:THR:134>  (299) 
0

>  <pication:HIS:51>  (299) 
0

>  <hbond:SER:81>  (299) 
0

>  <hbond:GLY:159>  (299) 
0

>  <hydroph_interaction:PRO:101>  (299) 
0

>  <hydroph_interaction:THR:134>  (299) 
0

>  <hbond:GLY:82>  (299) 
0

>  <hydroph_interaction:GLU:104>  (299) 
0

>  <hydroph_interaction:VAL:36>  (299) 
0

>  <hydroph_interaction:MET:49>  (299) 
0

>  <halogenbond:GLU:104>  (299) 
0

>  <hydroph_interaction:LYS:107>  (299) 
0

$$$$
CSSB00104407922
     RDKit          3D

 35 37  0  0  0  0  0  0  0  0999 V2000
   -9.1041    8.5579  -15.7309 O   0  0  0  0  0  0  0  0  0  0  0  0
   -8.9923    8.5627  -14.4759 C   0  0  0  0  0  0  0  0  0  0  0  0
   -8.6252    9.8324  -13.7703 C   0  0  0  0  0  0  0  0  0  0  0  0
   -9.6488   10.2047  -12.8471 O   0  0  0  0  0  0  0  0  0  0  0  0
  -10.9255   10.6760  -13.1976 C   0  0  0  0  0  0  0  0  0  0  0  0
  -11.2986   10.9435  -14.5302 C   0  0  0  0  0  0  0  0  0  0  0  0
  -12.5870   11.4078  -14.8209 C   0  0  0  0  0  0  0  0  0  0  0  0
  -13.5093   11.6105  -13.7909 C   0  0  0  0  0  0  0  0  0  0  0  0
  -13.1451   11.3516  -12.4678 C   0  0  0  0  0  0  0  0  0  0  0  0
  -11.8582   10.8890  -12.1730 C   0  0  0  0  0  0  0  0  0  0  0  0
   -9.2216    7.3642  -13.7214 N   0  0  0  0  0  0  0  0  0  0  0  0
   -9.6504    6.1125  -14.3402 C   0  0  0  0  0  0  0  0  0  0  0  0
   -8.5467    5.5413  -15.1816 C   0  0  0  0  0  0  0  0  0  0  0  0
   -7.3889    5.0576  -14.6715 N   0  0  0  0  0  0  0  0  0  0  0  0
   -6.6307    4.6713  -15.6940 N   0  0  0  0  0  0  0  0  0  0  0  0
   -7.3438    4.9317  -16.8063 C   0  0  0  0  0  0  0  0  0  0  0  0
   -8.5336    5.4742  -16.5264 N   0  0  0  0  0  0  0  0  0  0  0  0
   -9.4200    5.8485  -17.4847 C   0  0  0  0  0  0  0  0  0  0  0  0
   -9.0513    5.6394  -18.8240 C   0  0  0  0  0  0  0  0  0  0  0  0
   -7.8381    5.0740  -19.1168 N   0  0  0  0  0  0  0  0  0  0  0  0
   -6.9637    4.7138  -18.1282 C   0  0  0  0  0  0  0  0  0  0  0  0
   -5.8455    4.2040  -18.4099 O   0  0  0  0  0  0  0  0  0  0  0  0
   -7.6861    9.6598  -13.2038 H   0  0  0  0  0  0  0  0  0  0  0  0
   -8.4327   10.6564  -14.4909 H   0  0  0  0  0  0  0  0  0  0  0  0
  -10.6046   10.8027  -15.3470 H   0  0  0  0  0  0  0  0  0  0  0  0
  -12.8709   11.6101  -15.8465 H   0  0  0  0  0  0  0  0  0  0  0  0
  -14.5050   11.9659  -14.0177 H   0  0  0  0  0  0  0  0  0  0  0  0
  -13.8595   11.5111  -11.6705 H   0  0  0  0  0  0  0  0  0  0  0  0
  -11.5848   10.6896  -11.1444 H   0  0  0  0  0  0  0  0  0  0  0  0
   -9.1188    7.3953  -12.6811 H   0  0  0  0  0  0  0  0  0  0  0  0
  -10.5714    6.2840  -14.9349 H   0  0  0  0  0  0  0  0  0  0  0  0
   -9.8985    5.3769  -13.5452 H   0  0  0  0  0  0  0  0  0  0  0  0
  -10.3724    6.2953  -17.2360 H   0  0  0  0  0  0  0  0  0  0  0  0
   -9.7249    5.9249  -19.6225 H   0  0  0  0  0  0  0  0  0  0  0  0
   -7.5779    4.9243  -20.1180 H   0  0  0  0  0  0  0  0  0  0  0  0
  1  2  2  0
  2  3  1  0
  3  4  1  0
  4  5  1  0
  5  6  2  0
  6  7  1  0
  7  8  2  0
  8  9  1  0
  9 10  2  0
  2 11  1  0
 11 12  1  0
 12 13  1  0
 13 14  2  0
 14 15  1  0
 15 16  2  0
 16 17  1  0
 17 18  1  0
 18 19  2  0
 19 20  1  0
 20 21  1  0
 21 22  2  0
 10  5  1  0
 17 13  1  0
 21 16  1  0
  3 23  1  0
  3 24  1  0
  6 25  1  0
  7 26  1  0
  8 27  1  0
  9 28  1  0
 10 29  1  0
 11 30  1  0
 12 31  1  0
 12 32  1  0
 18 33  1  0
 19 34  1  0
 20 35  1  0
A    1
 O1 
A    2
 C1 
A    3
 C2 
A    4
 O2 
A    5
 C3 
A    6
 C4 
A    7
 C5 
A    8
 C6 
A    9
 C7 
A   10
 C8 
A   11
 N1 
A   12
 C9 
A   13
 C10
A   14
 N2 
A   15
 N3 
A   16
 C11
A   17
 N4 
A   18
 C12
A   19
 C13
A   20
 N5 
A   21
 C14
A   22
 O3 
A   23
 H1 
A   24
 H2 
A   25
 H3 
A   26
 H4 
A   27
 H5 
A   28
 H6 
A   29
 H7 
A   30
 H8 
A   31
 H9 
A   32
 H10
A   33
 H11
A   34
 H12
A   35
 H13
M  END
>  <ref_pdb>  (300) 
x0051_0B

>  <ref_mols>  (300) 
x0951_0B,x0969_1B

>  <original SMILES>  (300) 
[H]c1c([H])c([H])c(OC([H])([H])C(=O)N([H])C([H])([H])c2nnc3c(=O)n([H])c([H])c([H])n23)c([H])c1[H]

>  <index>  (300) 
605

>  <∆∆G>  (300) 
-5.39297

>  <∆G_bound>  (300) 
-4.001887

>  <∆G_unbound>  (300) 
1.391083

>  <comRMSD>  (300) 
0.426705

>  <N_constrained_atoms>  (300) 
13.0

>  <N_unconstrained_atoms>  (300) 
10.0

>  <runtime>  (300) 
65.636361

>  <LE>  (300) 
0.234477

>  <percent_hybrid>  (300) 
8.0

>  <dist>  (300) 
12.0

>  <ecfp4>  (300) 
0.146341

>  <daylight>  (300) 
0.214286

>  <topodist>  (300) 
4.0

>  <mces>  (300) 
22.0

>  <tdn>  (300) 
1.0

>  <tup>  (300) 
2.0

>  <rdn>  (300) 
1.0

>  <rup>  (300) 
0.0

>  <ldn>  (300) 
0.0

>  <lup>  (300) 
0.0

>  <mut>  (300) 
4.0

>  <maj>  (300) 
4.0

>  <min>  (300) 
0.0

>  <hyb>  (300) 
4.0

>  <sub>  (300) 
3.0

>  <query_index>  (300) 
201.0

>  <max_hit_Tanimoto>  (300) 
0.417767

>  <largest_ring>  (300) 
6

>  <N_interactions_kept>  (300) 
3.0

>  <N_interactions_lost>  (300) 
0.0

>  <interaction_uniqueness_metric>  (300) 
0.569865

>  <ad_hoc_penalty>  (300) 
-21.64118

>  <N_rotatable_bonds>  (300) 
5

>  <N_HA>  (300) 
22

>  <cluster>  (300) 
5665

>  <N_interactions>  (300) 
3

>  <Enamine>  (300) 
1

>  <Mcule>  (300) 
0

>  <N_PAINS>  (300) 
0

>  <UFF_Gibbs>  (300) 
90.914501

>  <strain_per_HA>  (300) 
3.952804

>  <saltbridge:HIS:51>  (300) 
0

>  <pistack:HIS:51>  (300) 
0

>  <hydroph_interaction:HIS:51>  (300) 
0

>  <hbond:ALA:132>  (300) 
0

>  <hbond:SER:135>  (300) 
1

>  <hydroph_interaction:TYR:150>  (300) 
0

>  <pistack:TYR:161>  (300) 
0

>  <hydroph_interaction:TYR:161>  (300) 
0

>  <hydroph_interaction:ASP:83>  (300) 
0

>  <hbond:TYR:130>  (300) 
0

>  <hydroph_interaction:ALA:132>  (300) 
1

>  <hbond:HIS:51>  (300) 
0

>  <hbond:ASP:129>  (300) 
0

>  <hbond:TYR:150>  (300) 
0

>  <hbond:GLY:151>  (300) 
0

>  <hbond:TYR:161>  (300) 
0

>  <hydroph_interaction:TYR:130>  (300) 
0

>  <hydroph_interaction:PRO:131>  (300) 
0

>  <hydroph_interaction:ASP:129>  (300) 
0

>  <saltbridge:ASP:75>  (300) 
0

>  <saltbridge:ASP:83>  (300) 
0

>  <hydroph_interaction:ASN:152>  (300) 
0

>  <halogenbond:TYR:150>  (300) 
0

>  <hbond:ASP:83>  (300) 
0

>  <hydroph_interaction:VAL:155>  (300) 
0

>  <pication:TYR:161>  (300) 
0

>  <hbond:PRO:131>  (300) 
0

>  <hbond:LEU:128>  (300) 
0

>  <saltbridge:ASP:129>  (300) 
0

>  <hbond:THR:134>  (300) 
0

>  <pication:HIS:51>  (300) 
0

>  <hbond:SER:81>  (300) 
0

>  <hbond:GLY:159>  (300) 
0

>  <hydroph_interaction:PRO:101>  (300) 
0

>  <hydroph_interaction:THR:134>  (300) 
0

>  <hbond:GLY:82>  (300) 
0

>  <hydroph_interaction:GLU:104>  (300) 
0

>  <hydroph_interaction:VAL:36>  (300) 
1

>  <hydroph_interaction:MET:49>  (300) 
0

>  <halogenbond:GLU:104>  (300) 
0

>  <hydroph_interaction:LYS:107>  (300) 
0

$$$$
PV-006953689538
     RDKit          3D

 47 50  0  0  0  0  0  0  0  0999 V2000
   -6.5622    3.6175  -18.4637 O   0  0  0  0  0  0  0  0  0  0  0  0
   -6.0819    4.7768  -18.5900 C   0  0  0  0  0  0  0  0  0  0  0  0
   -6.8143    5.9204  -18.1130 N   0  0  0  0  0  0  0  0  0  0  0  0
   -8.1039    5.8405  -17.4837 C   0  0  0  0  0  0  0  0  0  0  0  0
   -8.3923    6.6842  -16.4006 C   0  0  0  0  0  0  0  0  0  0  0  0
   -9.6497    6.6442  -15.7771 C   0  0  0  0  0  0  0  0  0  0  0  0
   -9.9270    7.5237  -14.5879 C   0  0  0  0  0  0  0  0  0  0  0  0
   -9.1520    7.0727  -13.4337 N   0  0  0  0  0  0  0  0  0  0  0  0
   -9.4664    5.8645  -12.7236 C   0  0  0  0  0  0  0  0  0  0  0  0
  -10.4799    5.1893  -13.0504 O   0  0  0  0  0  0  0  0  0  0  0  0
   -8.6191    5.3970  -11.6112 C   0  0  0  0  0  0  0  0  0  0  0  0
   -8.7881    4.2670  -10.8441 C   0  0  0  0  0  0  0  0  0  0  0  0
   -9.7970    3.3095  -10.9248 O   0  0  0  0  0  0  0  0  0  0  0  0
   -9.6930    2.1097  -10.1518 C   0  0  0  0  0  0  0  0  0  0  0  0
   -9.0165    2.3811   -8.7914 C   0  0  0  0  0  0  0  0  0  0  0  0
   -7.6656    3.1015   -8.9792 C   0  0  0  0  0  0  0  0  0  0  0  0
   -7.8134    4.1973   -9.9325 N   0  0  0  0  0  0  0  0  0  0  0  0
   -6.9870    5.2197  -10.0787 N   0  0  0  0  0  0  0  0  0  0  0  0
   -7.4613    5.9745  -11.0972 C   0  0  0  0  0  0  0  0  0  0  0  0
  -10.6275    5.7577  -16.2537 C   0  0  0  0  0  0  0  0  0  0  0  0
  -10.3556    4.9347  -17.3488 C   0  0  0  0  0  0  0  0  0  0  0  0
   -9.1036    4.9785  -17.9676 C   0  0  0  0  0  0  0  0  0  0  0  0
   -4.7615    4.9362  -19.2382 C   0  0  0  0  0  0  0  0  0  0  0  0
   -4.4329    4.1339  -20.3424 C   0  0  0  0  0  0  0  0  0  0  0  0
   -3.1881    4.2792  -20.9582 C   0  0  0  0  0  0  0  0  0  0  0  0
   -2.2936    5.1845  -20.4831 N   0  0  0  0  0  0  0  0  0  0  0  0
   -2.5737    5.9640  -19.4060 C   0  0  0  0  0  0  0  0  0  0  0  0
   -3.8073    5.8531  -18.7580 C   0  0  0  0  0  0  0  0  0  0  0  0
   -4.0360    6.5942  -17.6449 F   0  0  0  0  0  0  0  0  0  0  0  0
   -6.3707    6.8639  -18.1713 H   0  0  0  0  0  0  0  0  0  0  0  0
   -7.6305    7.3616  -16.0327 H   0  0  0  0  0  0  0  0  0  0  0  0
  -11.0091    7.5370  -14.3322 H   0  0  0  0  0  0  0  0  0  0  0  0
   -9.6390    8.5679  -14.8391 H   0  0  0  0  0  0  0  0  0  0  0  0
   -8.3498    7.6646  -13.1244 H   0  0  0  0  0  0  0  0  0  0  0  0
  -10.7072    1.6869   -9.9927 H   0  0  0  0  0  0  0  0  0  0  0  0
   -9.0904    1.3670  -10.7178 H   0  0  0  0  0  0  0  0  0  0  0  0
   -8.8589    1.4230   -8.2515 H   0  0  0  0  0  0  0  0  0  0  0  0
   -9.6872    3.0207   -8.1775 H   0  0  0  0  0  0  0  0  0  0  0  0
   -7.3125    3.4961   -8.0024 H   0  0  0  0  0  0  0  0  0  0  0  0
   -6.9117    2.3831   -9.3670 H   0  0  0  0  0  0  0  0  0  0  0  0
   -6.9844    6.8819  -11.4402 H   0  0  0  0  0  0  0  0  0  0  0  0
  -11.6013    5.7070  -15.7826 H   0  0  0  0  0  0  0  0  0  0  0  0
  -11.1196    4.2658  -17.7236 H   0  0  0  0  0  0  0  0  0  0  0  0
   -8.9286    4.3590  -18.8369 H   0  0  0  0  0  0  0  0  0  0  0  0
   -5.1388    3.4110  -20.7331 H   0  0  0  0  0  0  0  0  0  0  0  0
   -2.9331    3.6709  -21.8155 H   0  0  0  0  0  0  0  0  0  0  0  0
   -1.8318    6.6635  -19.0440 H   0  0  0  0  0  0  0  0  0  0  0  0
  1  2  2  0
  2  3  1  0
  3  4  1  0
  4  5  2  0
  5  6  1  0
  6  7  1  0
  7  8  1  0
  8  9  1  0
  9 10  2  0
  9 11  1  0
 11 12  2  0
 12 13  1  0
 13 14  1  0
 14 15  1  0
 15 16  1  0
 16 17  1  0
 17 18  1  0
 18 19  2  0
  6 20  2  0
 20 21  1  0
 21 22  2  0
  2 23  1  0
 23 24  2  0
 24 25  1  0
 25 26  2  0
 26 27  1  0
 27 28  2  0
 28 29  1  0
 22  4  1  0
 19 11  1  0
 17 12  1  0
 28 23  1  0
  3 30  1  0
  5 31  1  0
  7 32  1  0
  7 33  1  0
  8 34  1  0
 14 35  1  0
 14 36  1  0
 15 37  1  0
 15 38  1  0
 16 39  1  0
 16 40  1  0
 19 41  1  0
 20 42  1  0
 21 43  1  0
 22 44  1  0
 24 45  1  0
 25 46  1  0
 27 47  1  0
A    1
 O1 
A    2
 C1 
A    3
 N1 
A    4
 C2 
A    5
 C3 
A    6
 C4 
A    7
 C5 
A    8
 N2 
A    9
 C6 
A   10
 O2 
A   11
 C7 
A   12
 C8 
A   13
 O3 
A   14
 C9 
A   15
 C10
A   16
 C11
A   17
 N3 
A   18
 N4 
A   19
 C12
A   20
 C13
A   21
 C14
A   22
 C15
A   23
 C16
A   24
 C17
A   25
 C18
A   26
 N5 
A   27
 C19
A   28
 C20
A   29
 F1 
A   30
 H1 
A   31
 H2 
A   32
 H3 
A   33
 H4 
A   34
 H5 
A   35
 H6 
A   36
 H7 
A   37
 H8 
A   38
 H9 
A   39
 H10
A   40
 H11
A   41
 H12
A   42
 H13
A   43
 H14
A   44
 H15
A   45
 H16
A   46
 H17
A   47
 H18
M  END
>  <ref_pdb>  (301) 
x0051_0B

>  <ref_mols>  (301) 
x0852_0B,x0969_1B

>  <original SMILES>  (301) 
[H]c1nc([H])c(F)c(C(=O)N([H])c2c([H])c([H])c([H])c(C([H])([H])N([H])C(=O)c3c([H])nn4c3OC([H])([H])C([H])([H])C4([H])[H])c2[H])c1[H]

>  <index>  (301) 
585

>  <∆∆G>  (301) 
-5.52656

>  <∆G_bound>  (301) 
-3.968529

>  <∆G_unbound>  (301) 
1.558031

>  <comRMSD>  (301) 
0.544373

>  <N_constrained_atoms>  (301) 
28.0

>  <N_unconstrained_atoms>  (301) 
3.0

>  <runtime>  (301) 
65.387179

>  <LE>  (301) 
0.178276

>  <percent_hybrid>  (301) 
36.0

>  <dist>  (301) 
8.0

>  <ecfp4>  (301) 
0.393939

>  <daylight>  (301) 
0.422414

>  <topodist>  (301) 
3.0

>  <mces>  (301) 
31.0

>  <tdn>  (301) 
2.0

>  <tup>  (301) 
1.0

>  <rdn>  (301) 
0.0

>  <rup>  (301) 
0.0

>  <ldn>  (301) 
0.0

>  <lup>  (301) 
0.0

>  <mut>  (301) 
4.0

>  <maj>  (301) 
4.0

>  <min>  (301) 
0.0

>  <hyb>  (301) 
1.0

>  <sub>  (301) 
2.0

>  <query_index>  (301) 
46.0

>  <max_hit_Tanimoto>  (301) 
0.4277

>  <largest_ring>  (301) 
6

>  <N_interactions_kept>  (301) 
4.0

>  <N_interactions_lost>  (301) 
2.0

>  <interaction_uniqueness_metric>  (301) 
0.166993

>  <ad_hoc_penalty>  (301) 
-21.621007

>  <N_rotatable_bonds>  (301) 
5

>  <N_HA>  (301) 
29

>  <cluster>  (301) 
5683

>  <N_interactions>  (301) 
7

>  <Enamine>  (301) 
1

>  <Mcule>  (301) 
0

>  <N_PAINS>  (301) 
0

>  <UFF_Gibbs>  (301) 
87.613328

>  <strain_per_HA>  (301) 
2.826236

>  <saltbridge:HIS:51>  (301) 
0

>  <pistack:HIS:51>  (301) 
1

>  <hydroph_interaction:HIS:51>  (301) 
0

>  <hbond:ALA:132>  (301) 
0

>  <hbond:SER:135>  (301) 
0

>  <hydroph_interaction:TYR:150>  (301) 
0

>  <pistack:TYR:161>  (301) 
0

>  <hydroph_interaction:TYR:161>  (301) 
2

>  <hydroph_interaction:ASP:83>  (301) 
0

>  <hbond:TYR:130>  (301) 
1

>  <hydroph_interaction:ALA:132>  (301) 
1

>  <hbond:HIS:51>  (301) 
0

>  <hbond:ASP:129>  (301) 
0

>  <hbond:TYR:150>  (301) 
0

>  <hbond:GLY:151>  (301) 
0

>  <hbond:TYR:161>  (301) 
1

>  <hydroph_interaction:TYR:130>  (301) 
0

>  <hydroph_interaction:PRO:131>  (301) 
0

>  <hydroph_interaction:ASP:129>  (301) 
1

>  <saltbridge:ASP:75>  (301) 
0

>  <saltbridge:ASP:83>  (301) 
0

>  <hydroph_interaction:ASN:152>  (301) 
0

>  <halogenbond:TYR:150>  (301) 
0

>  <hbond:ASP:83>  (301) 
0

>  <hydroph_interaction:VAL:155>  (301) 
0

>  <pication:TYR:161>  (301) 
0

>  <hbond:PRO:131>  (301) 
0

>  <hbond:LEU:128>  (301) 
0

>  <saltbridge:ASP:129>  (301) 
0

>  <hbond:THR:134>  (301) 
0

>  <pication:HIS:51>  (301) 
0

>  <hbond:SER:81>  (301) 
0

>  <hbond:GLY:159>  (301) 
0

>  <hydroph_interaction:PRO:101>  (301) 
0

>  <hydroph_interaction:THR:134>  (301) 
0

>  <hbond:GLY:82>  (301) 
0

>  <hydroph_interaction:GLU:104>  (301) 
0

>  <hydroph_interaction:VAL:36>  (301) 
0

>  <hydroph_interaction:MET:49>  (301) 
0

>  <halogenbond:GLU:104>  (301) 
0

>  <hydroph_interaction:LYS:107>  (301) 
0

$$$$
Z1557002446
     RDKit          3D

 37 38  0  0  0  0  0  0  0  0999 V2000
   -5.7305    4.8776  -20.5708 C   0  0  0  0  0  0  0  0  0  0  0  0
   -5.7497    6.3081  -20.0006 C   0  0  0  0  0  0  0  0  0  0  0  0
   -6.3230    6.4581  -18.5598 C   0  0  0  0  0  0  0  0  0  0  0  0
   -7.5110    5.5673  -18.2438 C   0  0  0  0  0  0  0  0  0  0  0  0
   -7.7737    5.1744  -16.9403 C   0  0  0  0  0  0  0  0  0  0  0  0
   -6.9067    5.5140  -15.7719 C   0  0  0  0  0  0  0  0  0  0  0  0
   -5.9201    6.6327  -16.1608 C   0  0  0  0  0  0  0  0  0  0  0  0
   -5.2802    6.4033  -17.4836 N   0  0  0  0  0  0  0  0  0  0  0  0
   -4.4217    5.1854  -17.5196 C   0  0  0  0  0  0  0  0  0  0  0  0
   -3.1080    5.2797  -16.6898 C   0  0  0  0  0  0  0  0  0  0  0  0
   -3.2376    4.7186  -15.2624 C   0  0  0  0  0  0  0  0  0  0  0  0
   -2.4797    6.6844  -16.7142 C   0  0  0  0  0  0  0  0  0  0  0  0
   -1.1760    6.6343  -16.2024 O   0  0  0  0  0  0  0  0  0  0  0  0
   -9.2347    4.3497  -16.8903 S   0  0  0  0  0  0  0  0  0  0  0  0
   -9.5839    4.5262  -18.5280 C   0  0  0  0  0  0  0  0  0  0  0  0
   -8.5554    5.2451  -19.1267 C   0  0  0  0  0  0  0  0  0  0  0  0
   -5.6992    4.1030  -19.7779 H   0  0  0  0  0  0  0  0  0  0  0  0
   -6.6335    4.6958  -21.1893 H   0  0  0  0  0  0  0  0  0  0  0  0
   -4.8444    4.7492  -21.2276 H   0  0  0  0  0  0  0  0  0  0  0  0
   -6.3512    6.9367  -20.6942 H   0  0  0  0  0  0  0  0  0  0  0  0
   -4.7224    6.7326  -20.0264 H   0  0  0  0  0  0  0  0  0  0  0  0
   -6.7321    7.4938  -18.5397 H   0  0  0  0  0  0  0  0  0  0  0  0
   -6.3604    4.6080  -15.4379 H   0  0  0  0  0  0  0  0  0  0  0  0
   -7.5412    5.8614  -14.9289 H   0  0  0  0  0  0  0  0  0  0  0  0
   -6.4764    7.5963  -16.1894 H   0  0  0  0  0  0  0  0  0  0  0  0
   -5.1709    6.7781  -15.3670 H   0  0  0  0  0  0  0  0  0  0  0  0
   -4.9968    4.2699  -17.2665 H   0  0  0  0  0  0  0  0  0  0  0  0
   -4.0576    5.0317  -18.5517 H   0  0  0  0  0  0  0  0  0  0  0  0
   -2.3806    4.6035  -17.1965 H   0  0  0  0  0  0  0  0  0  0  0  0
   -3.7204    5.4263  -14.5644 H   0  0  0  0  0  0  0  0  0  0  0  0
   -3.8079    3.7658  -15.2667 H   0  0  0  0  0  0  0  0  0  0  0  0
   -2.2267    4.5005  -14.8563 H   0  0  0  0  0  0  0  0  0  0  0  0
   -3.0853    7.3960  -16.1132 H   0  0  0  0  0  0  0  0  0  0  0  0
   -2.4454    7.0511  -17.7650 H   0  0  0  0  0  0  0  0  0  0  0  0
   -0.8248    7.5613  -16.2503 H   0  0  0  0  0  0  0  0  0  0  0  0
  -10.4780    4.1755  -19.0253 H   0  0  0  0  0  0  0  0  0  0  0  0
   -8.5830    5.5467  -20.1645 H   0  0  0  0  0  0  0  0  0  0  0  0
  1  2  1  0
  2  3  1  0
  3  4  1  0
  4  5  2  0
  5  6  1  0
  6  7  1  0
  7  8  1  0
  8  9  1  0
  9 10  1  0
 10 11  1  0
 10 12  1  0
 12 13  1  0
  5 14  1  0
 14 15  1  0
 15 16  2  0
  8  3  1  0
 16  4  1  0
  1 17  1  0
  1 18  1  0
  1 19  1  0
  2 20  1  0
  2 21  1  0
  3 22  1  0
  6 23  1  0
  6 24  1  0
  7 25  1  0
  7 26  1  0
  9 27  1  0
  9 28  1  0
 10 29  1  0
 11 30  1  0
 11 31  1  0
 11 32  1  0
 12 33  1  0
 12 34  1  0
 13 35  1  0
 15 36  1  0
 16 37  1  0
A    1
 C1 
A    2
 C2 
A    3
 C3 
A    4
 C4 
A    5
 C5 
A    6
 C6 
A    7
 C7 
A    8
 N1 
A    9
 C8 
A   10
 C9 
A   11
 C10
A   12
 C11
A   13
 O1 
A   14
 S1 
A   15
 C12
A   16
 C13
A   17
 H1 
A   18
 H2 
A   19
 H3 
A   20
 H4 
A   21
 H5 
A   22
 H6 
A   23
 H7 
A   24
 H8 
A   25
 H9 
A   26
 H10
A   27
 H11
A   28
 H12
A   29
 H13
A   30
 H14
A   31
 H15
A   32
 H16
A   33
 H17
A   34
 H18
A   35
 H19
A   36
 H20
A   37
 H21
M  END
>  <ref_pdb>  (302) 
x0051_0B

>  <ref_mols>  (302) 
x0472_0B,x0227_0B

>  <original SMILES>  (302) 
[H]OC([H])([H])C([H])(C([H])([H])[H])C([H])([H])N1C([H])([H])C([H])([H])c2sc([H])c([H])c2C1([H])C([H])([H])C([H])([H])[H]

>  <index>  (302) 
407

>  <∆∆G>  (302) 
-7.523848

>  <∆G_bound>  (302) 
-7.318289

>  <∆G_unbound>  (302) 
0.205559

>  <comRMSD>  (302) 
0.850247

>  <N_constrained_atoms>  (302) 
18.0

>  <N_unconstrained_atoms>  (302) 
2.0

>  <runtime>  (302) 
21.008896

>  <LE>  (302) 
0.376192

>  <percent_hybrid>  (302) 
50.0

>  <dist>  (302) 
3.0

>  <ecfp4>  (302) 
0.415094

>  <daylight>  (302) 
0.759124

>  <topodist>  (302) 
1.0

>  <mces>  (302) 
16.0

>  <tdn>  (302) 
0.0

>  <tup>  (302) 
0.0

>  <rdn>  (302) 
0.0

>  <rup>  (302) 
0.0

>  <ldn>  (302) 
0.0

>  <lup>  (302) 
1.0

>  <mut>  (302) 
2.0

>  <maj>  (302) 
2.0

>  <min>  (302) 
0.0

>  <hyb>  (302) 
0.0

>  <sub>  (302) 
0.0

>  <query_index>  (302) 
78.0

>  <max_hit_Tanimoto>  (302) 
0.577075

>  <largest_ring>  (302) 
6

>  <N_interactions_kept>  (302) 
4.5

>  <N_interactions_lost>  (302) 
0.5

>  <interaction_uniqueness_metric>  (302) 
0.05195

>  <ad_hoc_penalty>  (302) 
-21.600748

>  <N_rotatable_bonds>  (302) 
7

>  <N_HA>  (302) 
16

>  <cluster>  (302) 
5847

>  <N_interactions>  (302) 
5

>  <Enamine>  (302) 
1

>  <Mcule>  (302) 
0

>  <N_PAINS>  (302) 
0

>  <UFF_Gibbs>  (302) 
83.737405

>  <strain_per_HA>  (302) 
4.18687

>  <saltbridge:HIS:51>  (302) 
0

>  <pistack:HIS:51>  (302) 
0

>  <hydroph_interaction:HIS:51>  (302) 
0

>  <hbond:ALA:132>  (302) 
0

>  <hbond:SER:135>  (302) 
0

>  <hydroph_interaction:TYR:150>  (302) 
0

>  <pistack:TYR:161>  (302) 
0

>  <hydroph_interaction:TYR:161>  (302) 
4

>  <hydroph_interaction:ASP:83>  (302) 
0

>  <hbond:TYR:130>  (302) 
0

>  <hydroph_interaction:ALA:132>  (302) 
0

>  <hbond:HIS:51>  (302) 
0

>  <hbond:ASP:129>  (302) 
0

>  <hbond:TYR:150>  (302) 
0

>  <hbond:GLY:151>  (302) 
0

>  <hbond:TYR:161>  (302) 
0

>  <hydroph_interaction:TYR:130>  (302) 
0

>  <hydroph_interaction:PRO:131>  (302) 
0

>  <hydroph_interaction:ASP:129>  (302) 
0

>  <saltbridge:ASP:75>  (302) 
0

>  <saltbridge:ASP:83>  (302) 
0

>  <hydroph_interaction:ASN:152>  (302) 
0

>  <halogenbond:TYR:150>  (302) 
0

>  <hbond:ASP:83>  (302) 
0

>  <hydroph_interaction:VAL:155>  (302) 
1

>  <pication:TYR:161>  (302) 
0

>  <hbond:PRO:131>  (302) 
0

>  <hbond:LEU:128>  (302) 
0

>  <saltbridge:ASP:129>  (302) 
0

>  <hbond:THR:134>  (302) 
0

>  <pication:HIS:51>  (302) 
0

>  <hbond:SER:81>  (302) 
0

>  <hbond:GLY:159>  (302) 
0

>  <hydroph_interaction:PRO:101>  (302) 
0

>  <hydroph_interaction:THR:134>  (302) 
0

>  <hbond:GLY:82>  (302) 
0

>  <hydroph_interaction:GLU:104>  (302) 
0

>  <hydroph_interaction:VAL:36>  (302) 
0

>  <hydroph_interaction:MET:49>  (302) 
0

>  <halogenbond:GLU:104>  (302) 
0

>  <hydroph_interaction:LYS:107>  (302) 
0

$$$$
CSSB00000755405
     RDKit          3D

 20 21  0  0  0  0  0  0  0  0999 V2000
  -10.4855    4.8864  -17.9304 C   0  0  0  0  0  0  0  0  0  0  0  0
   -9.5969    4.6247  -16.8878 C   0  0  0  0  0  0  0  0  0  0  0  0
   -8.2205    4.7202  -17.1041 C   0  0  0  0  0  0  0  0  0  0  0  0
   -7.7415    5.0865  -18.3762 C   0  0  0  0  0  0  0  0  0  0  0  0
   -8.6384    5.3257  -19.3756 N   0  0  0  0  0  0  0  0  0  0  0  0
   -9.9813    5.2367  -19.1830 C   0  0  0  0  0  0  0  0  0  0  0  0
   -6.2878    5.1990  -18.6622 C   0  0  0  0  0  0  0  0  0  0  0  0
   -5.3588    5.5315  -17.6587 C   0  0  0  0  0  0  0  0  0  0  0  0
   -4.0010    5.6368  -17.9652 C   0  0  0  0  0  0  0  0  0  0  0  0
   -3.5754    5.4155  -19.2745 C   0  0  0  0  0  0  0  0  0  0  0  0
   -4.4796    5.1054  -20.2397 N   0  0  0  0  0  0  0  0  0  0  0  0
   -5.8078    4.9975  -19.9690 C   0  0  0  0  0  0  0  0  0  0  0  0
  -11.5535    4.8129  -17.7710 H   0  0  0  0  0  0  0  0  0  0  0  0
   -9.9739    4.3413  -15.9136 H   0  0  0  0  0  0  0  0  0  0  0  0
   -7.5463    4.4859  -16.2915 H   0  0  0  0  0  0  0  0  0  0  0  0
  -10.6571    5.4375  -20.0036 H   0  0  0  0  0  0  0  0  0  0  0  0
   -5.6767    5.7347  -16.6451 H   0  0  0  0  0  0  0  0  0  0  0  0
   -3.2854    5.8946  -17.1951 H   0  0  0  0  0  0  0  0  0  0  0  0
   -2.5261    5.4948  -19.5254 H   0  0  0  0  0  0  0  0  0  0  0  0
   -6.4857    4.7425  -20.7733 H   0  0  0  0  0  0  0  0  0  0  0  0
  1  2  2  0
  2  3  1  0
  3  4  2  0
  4  5  1  0
  5  6  2  0
  4  7  1  0
  7  8  2  0
  8  9  1  0
  9 10  2  0
 10 11  1  0
 11 12  2  0
  6  1  1  0
 12  7  1  0
  1 13  1  0
  2 14  1  0
  3 15  1  0
  6 16  1  0
  8 17  1  0
  9 18  1  0
 10 19  1  0
 12 20  1  0
A    1
 C1 
A    2
 C2 
A    3
 C3 
A    4
 C4 
A    5
 N1 
A    6
 C5 
A    7
 C6 
A    8
 C7 
A    9
 C8 
A   10
 C9 
A   11
 N2 
A   12
 C10
A   13
 H1 
A   14
 H2 
A   15
 H3 
A   16
 H4 
A   17
 H5 
A   18
 H6 
A   19
 H7 
A   20
 H8 
M  END
>  <ref_pdb>  (303) 
x0051_0B

>  <ref_mols>  (303) 
x0680_0B,x0386_0B

>  <original SMILES>  (303) 
[H]c1nc(-c2c([H])nc([H])c([H])c2[H])c([H])c([H])c1[H]

>  <index>  (303) 
428

>  <∆∆G>  (303) 
-5.247886

>  <∆G_bound>  (303) 
-5.209771

>  <∆G_unbound>  (303) 
0.038115

>  <comRMSD>  (303) 
0.60883

>  <N_constrained_atoms>  (303) 
12.0

>  <N_unconstrained_atoms>  (303) 
1.0

>  <runtime>  (303) 
31.526274

>  <LE>  (303) 
0.403684

>  <percent_hybrid>  (303) 
17.0

>  <dist>  (303) 
3.0

>  <ecfp4>  (303) 
0.195652

>  <daylight>  (303) 
0.438017

>  <topodist>  (303) 
2.0

>  <mces>  (303) 
12.0

>  <tdn>  (303) 
1.0

>  <tup>  (303) 
0.0

>  <rdn>  (303) 
0.0

>  <rup>  (303) 
0.0

>  <ldn>  (303) 
0.0

>  <lup>  (303) 
1.0

>  <mut>  (303) 
1.0

>  <maj>  (303) 
1.0

>  <min>  (303) 
0.0

>  <hyb>  (303) 
0.0

>  <sub>  (303) 
1.0

>  <query_index>  (303) 
296.0

>  <max_hit_Tanimoto>  (303) 
0.12115

>  <largest_ring>  (303) 
6

>  <N_interactions_kept>  (303) 
3.0

>  <N_interactions_lost>  (303) 
1.0

>  <interaction_uniqueness_metric>  (303) 
0.031789

>  <ad_hoc_penalty>  (303) 
-21.598126

>  <N_rotatable_bonds>  (303) 
1

>  <N_HA>  (303) 
12

>  <cluster>  (303) 
5830

>  <N_interactions>  (303) 
4

>  <Enamine>  (303) 
1

>  <Mcule>  (303) 
0

>  <N_PAINS>  (303) 
0

>  <UFF_Gibbs>  (303) 
49.431927

>  <strain_per_HA>  (303) 
3.802456

>  <saltbridge:HIS:51>  (303) 
0

>  <pistack:HIS:51>  (303) 
0

>  <hydroph_interaction:HIS:51>  (303) 
0

>  <hbond:ALA:132>  (303) 
0

>  <hbond:SER:135>  (303) 
0

>  <hydroph_interaction:TYR:150>  (303) 
1

>  <pistack:TYR:161>  (303) 
0

>  <hydroph_interaction:TYR:161>  (303) 
3

>  <hydroph_interaction:ASP:83>  (303) 
0

>  <hbond:TYR:130>  (303) 
0

>  <hydroph_interaction:ALA:132>  (303) 
0

>  <hbond:HIS:51>  (303) 
0

>  <hbond:ASP:129>  (303) 
0

>  <hbond:TYR:150>  (303) 
0

>  <hbond:GLY:151>  (303) 
0

>  <hbond:TYR:161>  (303) 
0

>  <hydroph_interaction:TYR:130>  (303) 
0

>  <hydroph_interaction:PRO:131>  (303) 
0

>  <hydroph_interaction:ASP:129>  (303) 
0

>  <saltbridge:ASP:75>  (303) 
0

>  <saltbridge:ASP:83>  (303) 
0

>  <hydroph_interaction:ASN:152>  (303) 
0

>  <halogenbond:TYR:150>  (303) 
0

>  <hbond:ASP:83>  (303) 
0

>  <hydroph_interaction:VAL:155>  (303) 
0

>  <pication:TYR:161>  (303) 
0

>  <hbond:PRO:131>  (303) 
0

>  <hbond:LEU:128>  (303) 
0

>  <saltbridge:ASP:129>  (303) 
0

>  <hbond:THR:134>  (303) 
0

>  <pication:HIS:51>  (303) 
0

>  <hbond:SER:81>  (303) 
0

>  <hbond:GLY:159>  (303) 
0

>  <hydroph_interaction:PRO:101>  (303) 
0

>  <hydroph_interaction:THR:134>  (303) 
0

>  <hbond:GLY:82>  (303) 
0

>  <hydroph_interaction:GLU:104>  (303) 
0

>  <hydroph_interaction:VAL:36>  (303) 
0

>  <hydroph_interaction:MET:49>  (303) 
0

>  <halogenbond:GLU:104>  (303) 
0

>  <hydroph_interaction:LYS:107>  (303) 
0

$$$$
MCULE-1242409534
     RDKit          3D

 22 23  0  0  0  0  0  0  0  0999 V2000
   -7.9289    5.1071  -18.2656 C   0  0  0  0  0  0  0  0  0  0  0  0
   -8.4320    5.5776  -17.0388 C   0  0  0  0  0  0  0  0  0  0  0  0
   -9.7751    5.2924  -16.8396 C   0  0  0  0  0  0  0  0  0  0  0  0
  -10.3394    4.4658  -18.1877 S   0  0  0  0  0  0  0  0  0  0  0  0
   -8.8912    4.4599  -19.0386 C   0  0  0  0  0  0  0  0  0  0  0  0
   -6.5294    5.3054  -18.7141 C   0  0  0  0  0  0  0  0  0  0  0  0
   -6.2715    5.6518  -20.0517 C   0  0  0  0  0  0  0  0  0  0  0  0
   -4.9981    5.8527  -20.4787 N   0  0  0  0  0  0  0  0  0  0  0  0
   -3.9366    5.7227  -19.6437 C   0  0  0  0  0  0  0  0  0  0  0  0
   -4.1342    5.3694  -18.3093 C   0  0  0  0  0  0  0  0  0  0  0  0
   -5.4392    5.1478  -17.8310 C   0  0  0  0  0  0  0  0  0  0  0  0
   -5.6786    4.7507  -16.5049 O   0  0  0  0  0  0  0  0  0  0  0  0
   -4.6666    4.5582  -15.5220 C   0  0  0  0  0  0  0  0  0  0  0  0
   -7.8442    6.1328  -16.3199 H   0  0  0  0  0  0  0  0  0  0  0  0
  -10.3578    5.5663  -15.9706 H   0  0  0  0  0  0  0  0  0  0  0  0
   -8.7362    4.0173  -20.0136 H   0  0  0  0  0  0  0  0  0  0  0  0
   -7.0850    5.7816  -20.7538 H   0  0  0  0  0  0  0  0  0  0  0  0
   -2.9354    5.8903  -20.0177 H   0  0  0  0  0  0  0  0  0  0  0  0
   -3.2716    5.2628  -17.6661 H   0  0  0  0  0  0  0  0  0  0  0  0
   -5.1425    4.2524  -14.5679 H   0  0  0  0  0  0  0  0  0  0  0  0
   -3.9688    3.7567  -15.8439 H   0  0  0  0  0  0  0  0  0  0  0  0
   -4.1118    5.5055  -15.3547 H   0  0  0  0  0  0  0  0  0  0  0  0
  1  2  1  0
  2  3  2  0
  3  4  1  0
  4  5  1  0
  1  6  1  0
  6  7  2  0
  7  8  1  0
  8  9  2  0
  9 10  1  0
 10 11  2  0
 11 12  1  0
 12 13  1  0
  1  5  2  0
  6 11  1  0
  2 14  1  0
  3 15  1  0
  5 16  1  0
  7 17  1  0
  9 18  1  0
 10 19  1  0
 13 20  1  0
 13 21  1  0
 13 22  1  0
A    1
 C1 
A    2
 C2 
A    3
 C3 
A    4
 S1 
A    5
 C4 
A    6
 C5 
A    7
 C6 
A    8
 N1 
A    9
 C7 
A   10
 C8 
A   11
 C9 
A   12
 O1 
A   13
 C10
A   14
 H1 
A   15
 H2 
A   16
 H3 
A   17
 H4 
A   18
 H5 
A   19
 H6 
A   20
 H7 
A   21
 H8 
A   22
 H9 
M  END
>  <ref_pdb>  (304) 
x0051_0B

>  <ref_mols>  (304) 
x0680_0B,x0386_0B

>  <original SMILES>  (304) 
[H]c1nc([H])c(-c2c([H])sc([H])c2[H])c(OC([H])([H])[H])c1[H]

>  <index>  (304) 
375

>  <∆∆G>  (304) 
-7.485151

>  <∆G_bound>  (304) 
-7.550189

>  <∆G_unbound>  (304) 
-0.065039

>  <comRMSD>  (304) 
0.617152

>  <N_constrained_atoms>  (304) 
13.0

>  <N_unconstrained_atoms>  (304) 
1.0

>  <runtime>  (304) 
26.24787

>  <LE>  (304) 
0.534654

>  <percent_hybrid>  (304) 
25.0

>  <dist>  (304) 
3.0

>  <ecfp4>  (304) 
0.294118

>  <daylight>  (304) 
0.269231

>  <topodist>  (304) 
1.0

>  <mces>  (304) 
13.0

>  <tdn>  (304) 
0.0

>  <tup>  (304) 
0.0

>  <rdn>  (304) 
0.0

>  <rup>  (304) 
0.0

>  <ldn>  (304) 
0.0

>  <lup>  (304) 
1.0

>  <mut>  (304) 
2.0

>  <maj>  (304) 
1.0

>  <min>  (304) 
1.0

>  <hyb>  (304) 
0.0

>  <sub>  (304) 
0.0

>  <query_index>  (304) 
296.0

>  <max_hit_Tanimoto>  (304) 
0.133333

>  <largest_ring>  (304) 
6

>  <N_interactions_kept>  (304) 
3.5

>  <N_interactions_lost>  (304) 
0.5

>  <interaction_uniqueness_metric>  (304) 
0.016266

>  <ad_hoc_penalty>  (304) 
-21.57828

>  <N_rotatable_bonds>  (304) 
3

>  <N_HA>  (304) 
13

>  <cluster>  (304) 
5874

>  <N_interactions>  (304) 
3

>  <Enamine>  (304) 
0

>  <Mcule>  (304) 
1

>  <N_PAINS>  (304) 
0

>  <UFF_Gibbs>  (304) 
62.101483

>  <strain_per_HA>  (304) 
4.43582

>  <saltbridge:HIS:51>  (304) 
0

>  <pistack:HIS:51>  (304) 
0

>  <hydroph_interaction:HIS:51>  (304) 
0

>  <hbond:ALA:132>  (304) 
0

>  <hbond:SER:135>  (304) 
0

>  <hydroph_interaction:TYR:150>  (304) 
0

>  <pistack:TYR:161>  (304) 
0

>  <hydroph_interaction:TYR:161>  (304) 
3

>  <hydroph_interaction:ASP:83>  (304) 
0

>  <hbond:TYR:130>  (304) 
0

>  <hydroph_interaction:ALA:132>  (304) 
0

>  <hbond:HIS:51>  (304) 
0

>  <hbond:ASP:129>  (304) 
0

>  <hbond:TYR:150>  (304) 
0

>  <hbond:GLY:151>  (304) 
0

>  <hbond:TYR:161>  (304) 
0

>  <hydroph_interaction:TYR:130>  (304) 
0

>  <hydroph_interaction:PRO:131>  (304) 
0

>  <hydroph_interaction:ASP:129>  (304) 
0

>  <saltbridge:ASP:75>  (304) 
0

>  <saltbridge:ASP:83>  (304) 
0

>  <hydroph_interaction:ASN:152>  (304) 
0

>  <halogenbond:TYR:150>  (304) 
0

>  <hbond:ASP:83>  (304) 
0

>  <hydroph_interaction:VAL:155>  (304) 
0

>  <pication:TYR:161>  (304) 
0

>  <hbond:PRO:131>  (304) 
0

>  <hbond:LEU:128>  (304) 
0

>  <saltbridge:ASP:129>  (304) 
0

>  <hbond:THR:134>  (304) 
0

>  <pication:HIS:51>  (304) 
0

>  <hbond:SER:81>  (304) 
0

>  <hbond:GLY:159>  (304) 
0

>  <hydroph_interaction:PRO:101>  (304) 
0

>  <hydroph_interaction:THR:134>  (304) 
0

>  <hbond:GLY:82>  (304) 
0

>  <hydroph_interaction:GLU:104>  (304) 
0

>  <hydroph_interaction:VAL:36>  (304) 
0

>  <hydroph_interaction:MET:49>  (304) 
0

>  <halogenbond:GLU:104>  (304) 
0

>  <hydroph_interaction:LYS:107>  (304) 
0

$$$$
CSSB00000766330
     RDKit          3D

 27 28  0  0  0  0  0  0  0  0999 V2000
  -11.2378    4.5917  -18.5800 C   0  0  0  0  0  0  0  0  0  0  0  0
   -9.8030    4.8679  -18.2379 C   0  0  0  0  0  0  0  0  0  0  0  0
   -8.8302    4.8872  -19.2450 C   0  0  0  0  0  0  0  0  0  0  0  0
   -7.4796    5.1200  -18.9366 C   0  0  0  0  0  0  0  0  0  0  0  0
   -6.4671    5.1530  -20.0498 C   0  0  0  0  0  0  0  0  0  0  0  0
   -7.0967    5.3126  -17.5879 C   0  0  0  0  0  0  0  0  0  0  0  0
   -5.7182    5.5276  -17.2266 N   0  0  0  0  0  0  0  0  0  0  0  0
   -5.3428    5.9145  -15.8693 C   0  0  0  0  0  0  0  0  0  0  0  0
   -6.2218    5.1822  -14.8574 C   0  0  0  0  0  0  0  0  0  0  0  0
   -7.7002    5.4859  -15.1243 C   0  0  0  0  0  0  0  0  0  0  0  0
   -8.0749    5.2538  -16.5696 C   0  0  0  0  0  0  0  0  0  0  0  0
   -9.4193    5.0427  -16.9034 C   0  0  0  0  0  0  0  0  0  0  0  0
  -11.9171    5.0846  -17.8522 H   0  0  0  0  0  0  0  0  0  0  0  0
  -11.4178    3.4966  -18.5590 H   0  0  0  0  0  0  0  0  0  0  0  0
  -11.4815    4.9798  -19.5920 H   0  0  0  0  0  0  0  0  0  0  0  0
   -9.1294    4.7259  -20.2741 H   0  0  0  0  0  0  0  0  0  0  0  0
   -5.9040    6.1096  -20.0203 H   0  0  0  0  0  0  0  0  0  0  0  0
   -6.9496    5.0751  -21.0474 H   0  0  0  0  0  0  0  0  0  0  0  0
   -5.7621    4.3024  -19.9401 H   0  0  0  0  0  0  0  0  0  0  0  0
   -4.9509    5.3773  -17.9182 H   0  0  0  0  0  0  0  0  0  0  0  0
   -4.2748    5.6659  -15.6886 H   0  0  0  0  0  0  0  0  0  0  0  0
   -5.4723    7.0123  -15.7528 H   0  0  0  0  0  0  0  0  0  0  0  0
   -5.9552    5.5054  -13.8281 H   0  0  0  0  0  0  0  0  0  0  0  0
   -6.0450    4.0869  -14.9365 H   0  0  0  0  0  0  0  0  0  0  0  0
   -7.9111    6.5468  -14.8678 H   0  0  0  0  0  0  0  0  0  0  0  0
   -8.3189    4.8423  -14.4615 H   0  0  0  0  0  0  0  0  0  0  0  0
  -10.1685    5.0130  -16.1207 H   0  0  0  0  0  0  0  0  0  0  0  0
  1  2  1  0
  2  3  2  0
  3  4  1  0
  4  5  1  0
  4  6  2  0
  6  7  1  0
  7  8  1  0
  8  9  1  0
  9 10  1  0
 10 11  1  0
 11 12  2  0
 12  2  1  0
 11  6  1  0
  1 13  1  0
  1 14  1  0
  1 15  1  0
  3 16  1  0
  5 17  1  0
  5 18  1  0
  5 19  1  0
  7 20  1  0
  8 21  1  0
  8 22  1  0
  9 23  1  0
  9 24  1  0
 10 25  1  0
 10 26  1  0
 12 27  1  0
A    1
 C1 
A    2
 C2 
A    3
 C3 
A    4
 C4 
A    5
 C5 
A    6
 C6 
A    7
 N1 
A    8
 C7 
A    9
 C8 
A   10
 C9 
A   11
 C10
A   12
 C11
A   13
 H1 
A   14
 H2 
A   15
 H3 
A   16
 H4 
A   17
 H5 
A   18
 H6 
A   19
 H7 
A   20
 H8 
A   21
 H9 
A   22
 H10
A   23
 H11
A   24
 H12
A   25
 H13
A   26
 H14
A   27
 H15
M  END
>  <ref_pdb>  (305) 
x0051_0B

>  <ref_mols>  (305) 
x0455_0B,x0382_0B

>  <original SMILES>  (305) 
[H]c1c(C([H])([H])[H])c([H])c2c(c1C([H])([H])[H])N([H])C([H])([H])C([H])([H])C2([H])[H]

>  <index>  (305) 
303

>  <∆∆G>  (305) 
-6.944669

>  <∆G_bound>  (305) 
-7.043639

>  <∆G_unbound>  (305) 
-0.09897

>  <comRMSD>  (305) 
0.604247

>  <N_constrained_atoms>  (305) 
11.0

>  <N_unconstrained_atoms>  (305) 
1.0

>  <runtime>  (305) 
25.884196

>  <LE>  (305) 
0.578722

>  <percent_hybrid>  (305) 
20.0

>  <dist>  (305) 
3.0

>  <ecfp4>  (305) 
0.295455

>  <daylight>  (305) 
0.405594

>  <topodist>  (305) 
2.0

>  <mces>  (305) 
12.0

>  <tdn>  (305) 
1.0

>  <tup>  (305) 
1.0

>  <rdn>  (305) 
0.0

>  <rup>  (305) 
0.0

>  <ldn>  (305) 
0.0

>  <lup>  (305) 
0.0

>  <mut>  (305) 
1.0

>  <maj>  (305) 
1.0

>  <min>  (305) 
0.0

>  <hyb>  (305) 
0.0

>  <sub>  (305) 
2.0

>  <query_index>  (305) 
293.0

>  <max_hit_Tanimoto>  (305) 
0.341818

>  <largest_ring>  (305) 
6

>  <N_interactions_kept>  (305) 
0.0

>  <N_interactions_lost>  (305) 
1.5

>  <interaction_uniqueness_metric>  (305) 
0.034305

>  <ad_hoc_penalty>  (305) 
-21.535872

>  <N_rotatable_bonds>  (305) 
2

>  <N_HA>  (305) 
12

>  <cluster>  (305) 
5941

>  <N_interactions>  (305) 
5

>  <Enamine>  (305) 
1

>  <Mcule>  (305) 
0

>  <N_PAINS>  (305) 
0

>  <UFF_Gibbs>  (305) 
72.31263

>  <strain_per_HA>  (305) 
6.026052

>  <saltbridge:HIS:51>  (305) 
0

>  <pistack:HIS:51>  (305) 
0

>  <hydroph_interaction:HIS:51>  (305) 
0

>  <hbond:ALA:132>  (305) 
0

>  <hbond:SER:135>  (305) 
0

>  <hydroph_interaction:TYR:150>  (305) 
1

>  <pistack:TYR:161>  (305) 
0

>  <hydroph_interaction:TYR:161>  (305) 
4

>  <hydroph_interaction:ASP:83>  (305) 
0

>  <hbond:TYR:130>  (305) 
0

>  <hydroph_interaction:ALA:132>  (305) 
0

>  <hbond:HIS:51>  (305) 
0

>  <hbond:ASP:129>  (305) 
0

>  <hbond:TYR:150>  (305) 
0

>  <hbond:GLY:151>  (305) 
0

>  <hbond:TYR:161>  (305) 
0

>  <hydroph_interaction:TYR:130>  (305) 
0

>  <hydroph_interaction:PRO:131>  (305) 
0

>  <hydroph_interaction:ASP:129>  (305) 
0

>  <saltbridge:ASP:75>  (305) 
0

>  <saltbridge:ASP:83>  (305) 
0

>  <hydroph_interaction:ASN:152>  (305) 
0

>  <halogenbond:TYR:150>  (305) 
0

>  <hbond:ASP:83>  (305) 
0

>  <hydroph_interaction:VAL:155>  (305) 
0

>  <pication:TYR:161>  (305) 
0

>  <hbond:PRO:131>  (305) 
0

>  <hbond:LEU:128>  (305) 
0

>  <saltbridge:ASP:129>  (305) 
0

>  <hbond:THR:134>  (305) 
0

>  <pication:HIS:51>  (305) 
0

>  <hbond:SER:81>  (305) 
0

>  <hbond:GLY:159>  (305) 
0

>  <hydroph_interaction:PRO:101>  (305) 
0

>  <hydroph_interaction:THR:134>  (305) 
0

>  <hbond:GLY:82>  (305) 
0

>  <hydroph_interaction:GLU:104>  (305) 
0

>  <hydroph_interaction:VAL:36>  (305) 
0

>  <hydroph_interaction:MET:49>  (305) 
0

>  <halogenbond:GLU:104>  (305) 
0

>  <hydroph_interaction:LYS:107>  (305) 
0

$$$$
PSCIAGYOKVUDGR-UHFFFAOYSA-N
     RDKit          3D

 41 43  0  0  0  0  0  0  0  0999 V2000
   -9.0409    5.9485  -14.7582 C   0  0  0  0  0  0  0  0  0  0  0  0
   -8.0951    5.3454  -15.6581 N   0  0  0  0  0  0  0  0  0  0  0  0
   -8.2247    5.3767  -17.0906 C   0  0  0  0  0  0  0  0  0  0  0  0
   -7.2415    4.9902  -17.9987 C   0  0  0  0  0  0  0  0  0  0  0  0
   -5.9221    4.5542  -17.6241 C   0  0  0  0  0  0  0  0  0  0  0  0
   -4.8569    4.2079  -17.3292 N   0  0  0  0  0  0  0  0  0  0  0  0
   -7.6504    5.0866  -19.3361 C   0  0  0  0  0  0  0  0  0  0  0  0
   -8.9563    5.5389  -19.4872 C   0  0  0  0  0  0  0  0  0  0  0  0
   -9.6017    5.8192  -17.9577 S   0  0  0  0  0  0  0  0  0  0  0  0
   -9.8129    6.8555  -15.1736 O   0  0  0  0  0  0  0  0  0  0  0  0
   -9.0908    5.5529  -13.3291 C   0  0  0  0  0  0  0  0  0  0  0  0
   -9.6504    6.4210  -12.3755 C   0  0  0  0  0  0  0  0  0  0  0  0
   -9.7083    6.0560  -11.0276 C   0  0  0  0  0  0  0  0  0  0  0  0
   -9.2108    4.8131  -10.6006 C   0  0  0  0  0  0  0  0  0  0  0  0
   -9.2760    4.4328   -9.2089 N   0  0  0  0  0  0  0  0  0  0  0  0
   -9.6963    3.0729   -8.8481 C   0  0  0  0  0  0  0  0  0  0  0  0
  -10.0324    2.9849   -7.3578 C   0  0  0  0  0  0  0  0  0  0  0  0
   -8.8920    3.4698   -6.5579 N   0  0  0  0  0  0  0  0  0  0  0  0
   -9.1949    3.3606   -5.1210 C   0  0  0  0  0  0  0  0  0  0  0  0
   -8.4378    4.8433   -6.9141 C   0  0  0  0  0  0  0  0  0  0  0  0
   -9.1335    5.4420   -8.1516 C   0  0  0  0  0  0  0  0  0  0  0  0
   -8.6670    3.9376  -11.5570 C   0  0  0  0  0  0  0  0  0  0  0  0
   -8.6084    4.3025  -12.9055 C   0  0  0  0  0  0  0  0  0  0  0  0
   -7.2470    4.8876  -15.2546 H   0  0  0  0  0  0  0  0  0  0  0  0
   -7.0140    4.8372  -20.1756 H   0  0  0  0  0  0  0  0  0  0  0  0
   -9.4680    5.6857  -20.4286 H   0  0  0  0  0  0  0  0  0  0  0  0
  -10.0387    7.3882  -12.6700 H   0  0  0  0  0  0  0  0  0  0  0  0
  -10.1549    6.7434  -10.3198 H   0  0  0  0  0  0  0  0  0  0  0  0
  -10.5938    2.7853   -9.4384 H   0  0  0  0  0  0  0  0  0  0  0  0
   -8.8757    2.3597   -9.0742 H   0  0  0  0  0  0  0  0  0  0  0  0
  -10.2444    1.9214   -7.1110 H   0  0  0  0  0  0  0  0  0  0  0  0
  -10.9491    3.5794   -7.1395 H   0  0  0  0  0  0  0  0  0  0  0  0
  -10.0342    4.0381   -4.8396 H   0  0  0  0  0  0  0  0  0  0  0  0
   -8.2953    3.6237   -4.5210 H   0  0  0  0  0  0  0  0  0  0  0  0
   -9.4677    2.3146   -4.8616 H   0  0  0  0  0  0  0  0  0  0  0  0
   -8.5631    5.5632   -6.0713 H   0  0  0  0  0  0  0  0  0  0  0  0
   -7.3459    4.7912   -7.1240 H   0  0  0  0  0  0  0  0  0  0  0  0
  -10.1401    5.8158   -7.8667 H   0  0  0  0  0  0  0  0  0  0  0  0
   -8.5336    6.3056   -8.5123 H   0  0  0  0  0  0  0  0  0  0  0  0
   -8.2783    2.9722  -11.2627 H   0  0  0  0  0  0  0  0  0  0  0  0
   -8.2053    3.5920  -13.6170 H   0  0  0  0  0  0  0  0  0  0  0  0
  1  2  1  0
  2  3  1  0
  3  4  2  0
  4  5  1  0
  5  6  3  0
  4  7  1  0
  7  8  2  0
  8  9  1  0
  1 10  2  0
  1 11  1  0
 11 12  2  0
 12 13  1  0
 13 14  2  0
 14 15  1  0
 15 16  1  0
 16 17  1  0
 17 18  1  0
 18 19  1  0
 18 20  1  0
 20 21  1  0
 14 22  1  0
 22 23  2  0
  9  3  1  0
 23 11  1  0
 21 15  1  0
  2 24  1  0
  7 25  1  0
  8 26  1  0
 12 27  1  0
 13 28  1  0
 16 29  1  0
 16 30  1  0
 17 31  1  0
 17 32  1  0
 19 33  1  0
 19 34  1  0
 19 35  1  0
 20 36  1  0
 20 37  1  0
 21 38  1  0
 21 39  1  0
 22 40  1  0
 23 41  1  0
A    1
 C1 
A    2
 N1 
A    3
 C2 
A    4
 C3 
A    5
 C4 
A    6
 N2 
A    7
 C5 
A    8
 C6 
A    9
 S1 
A   10
 O1 
A   11
 C7 
A   12
 C8 
A   13
 C9 
A   14
 C10
A   15
 N3 
A   16
 C11
A   17
 C12
A   18
 N4 
A   19
 C13
A   20
 C14
A   21
 C15
A   22
 C16
A   23
 C17
A   24
 H1 
A   25
 H2 
A   26
 H3 
A   27
 H4 
A   28
 H5 
A   29
 H6 
A   30
 H7 
A   31
 H8 
A   32
 H9 
A   33
 H10
A   34
 H11
A   35
 H12
A   36
 H13
A   37
 H14
A   38
 H15
A   39
 H16
A   40
 H17
A   41
 H18
M  END
>  <ref_pdb>  (306) 
x0051_0B

>  <ref_mols>  (306) 
x0386_0B,x0404_0B

>  <original SMILES>  (306) 
[H]c1sc(N([H])C(=O)c2c([H])c([H])c(N3C([H])([H])C([H])([H])N(C([H])([H])[H])C([H])([H])C3([H])[H])c([H])c2[H])c(C#N)c1[H]

>  <index>  (306) 
402

>  <∆∆G>  (306) 
-7.487581

>  <∆G_bound>  (306) 
-6.486993

>  <∆G_unbound>  (306) 
1.000587

>  <comRMSD>  (306) 
0.70241

>  <N_constrained_atoms>  (306) 
21.0

>  <N_unconstrained_atoms>  (306) 
2.0

>  <runtime>  (306) 
81.474783

>  <LE>  (306) 
0.325547

>  <percent_hybrid>  (306) 
34.0

>  <dist>  (306) 
9.0

>  <ecfp4>  (306) 
0.204819

>  <daylight>  (306) 
0.189189

>  <topodist>  (306) 
3.0

>  <mces>  (306) 
24.0

>  <tdn>  (306) 
1.0

>  <tup>  (306) 
1.0

>  <rdn>  (306) 
0.0

>  <rup>  (306) 
0.0

>  <ldn>  (306) 
1.0

>  <lup>  (306) 
0.0

>  <mut>  (306) 
3.0

>  <maj>  (306) 
2.0

>  <min>  (306) 
1.0

>  <hyb>  (306) 
3.0

>  <sub>  (306) 
1.0

>  <query_index>  (306) 
109.0

>  <max_hit_Tanimoto>  (306) 
0.286676

>  <largest_ring>  (306) 
6

>  <N_interactions_kept>  (306) 
2.5

>  <N_interactions_lost>  (306) 
1.0

>  <interaction_uniqueness_metric>  (306) 
0.143764

>  <ad_hoc_penalty>  (306) 
-21.466205

>  <N_rotatable_bonds>  (306) 
4

>  <N_HA>  (306) 
23

>  <cluster>  (306) 
5852

>  <N_interactions>  (306) 
4

>  <Enamine>  (306) 
0

>  <Mcule>  (306) 
1

>  <N_PAINS>  (306) 
0

>  <UFF_Gibbs>  (306) 
123.245328

>  <strain_per_HA>  (306) 
5.358493

>  <saltbridge:HIS:51>  (306) 
0

>  <pistack:HIS:51>  (306) 
1

>  <hydroph_interaction:HIS:51>  (306) 
0

>  <hbond:ALA:132>  (306) 
0

>  <hbond:SER:135>  (306) 
0

>  <hydroph_interaction:TYR:150>  (306) 
0

>  <pistack:TYR:161>  (306) 
0

>  <hydroph_interaction:TYR:161>  (306) 
2

>  <hydroph_interaction:ASP:83>  (306) 
0

>  <hbond:TYR:130>  (306) 
0

>  <hydroph_interaction:ALA:132>  (306) 
0

>  <hbond:HIS:51>  (306) 
0

>  <hbond:ASP:129>  (306) 
0

>  <hbond:TYR:150>  (306) 
0

>  <hbond:GLY:151>  (306) 
0

>  <hbond:TYR:161>  (306) 
0

>  <hydroph_interaction:TYR:130>  (306) 
0

>  <hydroph_interaction:PRO:131>  (306) 
0

>  <hydroph_interaction:ASP:129>  (306) 
0

>  <saltbridge:ASP:75>  (306) 
1

>  <saltbridge:ASP:83>  (306) 
0

>  <hydroph_interaction:ASN:152>  (306) 
0

>  <halogenbond:TYR:150>  (306) 
0

>  <hbond:ASP:83>  (306) 
0

>  <hydroph_interaction:VAL:155>  (306) 
0

>  <pication:TYR:161>  (306) 
0

>  <hbond:PRO:131>  (306) 
0

>  <hbond:LEU:128>  (306) 
0

>  <saltbridge:ASP:129>  (306) 
0

>  <hbond:THR:134>  (306) 
0

>  <pication:HIS:51>  (306) 
0

>  <hbond:SER:81>  (306) 
0

>  <hbond:GLY:159>  (306) 
0

>  <hydroph_interaction:PRO:101>  (306) 
0

>  <hydroph_interaction:THR:134>  (306) 
0

>  <hbond:GLY:82>  (306) 
0

>  <hydroph_interaction:GLU:104>  (306) 
0

>  <hydroph_interaction:VAL:36>  (306) 
0

>  <hydroph_interaction:MET:49>  (306) 
0

>  <halogenbond:GLU:104>  (306) 
0

>  <hydroph_interaction:LYS:107>  (306) 
0

$$$$
PV-002509022060
     RDKit          3D

 46 50  0  0  0  0  0  0  0  0999 V2000
   -4.2954    7.3183  -20.6376 O   0  0  0  0  0  0  0  0  0  0  0  0
   -5.5435    7.3160  -20.8207 C   0  0  0  0  0  0  0  0  0  0  0  0
   -6.1475    8.3565  -21.6864 C   0  0  0  0  0  0  0  0  0  0  0  0
   -7.3384    8.1055  -22.3913 C   0  0  0  0  0  0  0  0  0  0  0  0
   -7.8913    9.0875  -23.2177 C   0  0  0  0  0  0  0  0  0  0  0  0
   -7.2508   10.3223  -23.3685 C   0  0  0  0  0  0  0  0  0  0  0  0
   -7.9486   11.5718  -24.4539 S   0  0  0  0  0  0  0  0  0  0  0  0
   -6.9798   11.0704  -25.9190 C   0  0  0  0  0  0  0  0  0  0  0  0
   -7.4410    9.7410  -26.4247 C   0  0  0  0  0  0  0  0  0  0  0  0
   -6.7281    8.5960  -26.2486 N   0  0  0  0  0  0  0  0  0  0  0  0
   -7.5376    7.6608  -26.7765 C   0  0  0  0  0  0  0  0  0  0  0  0
   -7.3170    6.2875  -26.8536 C   0  0  0  0  0  0  0  0  0  0  0  0
   -8.3257    5.4953  -27.4359 C   0  0  0  0  0  0  0  0  0  0  0  0
   -9.5160    6.0900  -27.9163 C   0  0  0  0  0  0  0  0  0  0  0  0
   -9.7074    7.4815  -27.8184 C   0  0  0  0  0  0  0  0  0  0  0  0
   -8.6857    8.2315  -27.2401 C   0  0  0  0  0  0  0  0  0  0  0  0
   -8.6427    9.5512  -27.0238 N   0  0  0  0  0  0  0  0  0  0  0  0
   -6.0636   10.5789  -22.6758 C   0  0  0  0  0  0  0  0  0  0  0  0
   -5.5107    9.6003  -21.8446 C   0  0  0  0  0  0  0  0  0  0  0  0
   -6.3470    6.3028  -20.1857 N   0  0  0  0  0  0  0  0  0  0  0  0
   -5.8034    4.9505  -19.9740 C   0  0  0  0  0  0  0  0  0  0  0  0
   -5.6051    4.6969  -18.4713 C   0  0  0  0  0  0  0  0  0  0  0  0
   -6.7784    5.1589  -17.7345 N   0  0  0  0  0  0  0  0  0  0  0  0
   -7.0941    4.8348  -16.4926 N   0  0  0  0  0  0  0  0  0  0  0  0
   -8.1822    5.4970  -16.1152 N   0  0  0  0  0  0  0  0  0  0  0  0
   -8.5591    6.2798  -17.1507 C   0  0  0  0  0  0  0  0  0  0  0  0
   -7.6549    6.0737  -18.1659 C   0  0  0  0  0  0  0  0  0  0  0  0
   -7.6282    6.6490  -19.5459 C   0  0  0  0  0  0  0  0  0  0  0  0
   -7.8309    7.1447  -22.3223 H   0  0  0  0  0  0  0  0  0  0  0  0
   -8.8063    8.8791  -23.7584 H   0  0  0  0  0  0  0  0  0  0  0  0
   -5.8977   11.0355  -25.6686 H   0  0  0  0  0  0  0  0  0  0  0  0
   -7.1240   11.8295  -26.7155 H   0  0  0  0  0  0  0  0  0  0  0  0
   -6.4049    5.8440  -26.4761 H   0  0  0  0  0  0  0  0  0  0  0  0
   -8.1903    4.4244  -27.5134 H   0  0  0  0  0  0  0  0  0  0  0  0
  -10.2850    5.4709  -28.3591 H   0  0  0  0  0  0  0  0  0  0  0  0
  -10.6150    7.9493  -28.1775 H   0  0  0  0  0  0  0  0  0  0  0  0
   -9.3739   10.2639  -27.2437 H   0  0  0  0  0  0  0  0  0  0  0  0
   -5.5630   11.5321  -22.7882 H   0  0  0  0  0  0  0  0  0  0  0  0
   -4.5885    9.8180  -21.3205 H   0  0  0  0  0  0  0  0  0  0  0  0
   -6.5249    4.2061  -20.3762 H   0  0  0  0  0  0  0  0  0  0  0  0
   -4.8411    4.8090  -20.5127 H   0  0  0  0  0  0  0  0  0  0  0  0
   -5.4456    3.6122  -18.2889 H   0  0  0  0  0  0  0  0  0  0  0  0
   -4.7125    5.2566  -18.1174 H   0  0  0  0  0  0  0  0  0  0  0  0
   -9.4203    6.9346  -17.1577 H   0  0  0  0  0  0  0  0  0  0  0  0
   -7.7590    7.7512  -19.4813 H   0  0  0  0  0  0  0  0  0  0  0  0
   -8.4643    6.2150  -20.1342 H   0  0  0  0  0  0  0  0  0  0  0  0
  1  2  2  0
  2  3  1  0
  3  4  2  0
  4  5  1  0
  5  6  2  0
  6  7  1  0
  7  8  1  0
  8  9  1  0
  9 10  2  0
 10 11  1  0
 11 12  2  0
 12 13  1  0
 13 14  2  0
 14 15  1  0
 15 16  2  0
 16 17  1  0
  6 18  1  0
 18 19  2  0
  2 20  1  0
 20 21  1  0
 21 22  1  0
 22 23  1  0
 23 24  1  0
 24 25  2  0
 25 26  1  0
 26 27  2  0
 27 28  1  0
 19  3  1  0
 17  9  1  0
 16 11  1  0
 28 20  1  0
 27 23  1  0
  4 29  1  0
  5 30  1  0
  8 31  1  0
  8 32  1  0
 12 33  1  0
 13 34  1  0
 14 35  1  0
 15 36  1  0
 17 37  1  0
 18 38  1  0
 19 39  1  0
 21 40  1  0
 21 41  1  0
 22 42  1  0
 22 43  1  0
 26 44  1  0
 28 45  1  0
 28 46  1  0
A    1
 O1 
A    2
 C1 
A    3
 C2 
A    4
 C3 
A    5
 C4 
A    6
 C5 
A    7
 S1 
A    8
 C6 
A    9
 C7 
A   10
 N1 
A   11
 C8 
A   12
 C9 
A   13
 C10
A   14
 C11
A   15
 C12
A   16
 C13
A   17
 N2 
A   18
 C14
A   19
 C15
A   20
 N3 
A   21
 C16
A   22
 C17
A   23
 N4 
A   24
 N5 
A   25
 N6 
A   26
 C18
A   27
 C19
A   28
 C20
A   29
 H1 
A   30
 H2 
A   31
 H3 
A   32
 H4 
A   33
 H5 
A   34
 H6 
A   35
 H7 
A   36
 H8 
A   37
 H9 
A   38
 H10
A   39
 H11
A   40
 H12
A   41
 H13
A   42
 H14
A   43
 H15
A   44
 H16
A   45
 H17
A   46
 H18
M  END
>  <ref_pdb>  (307) 
x0051_0B

>  <ref_mols>  (307) 
x0846_1B,x0969_0B

>  <original SMILES>  (307) 
[H]c1nnn2c1C([H])([H])N(C(=O)c1c([H])c([H])c(SC([H])([H])c3nc4c([H])c([H])c([H])c([H])c4n3[H])c([H])c1[H])C([H])([H])C2([H])[H]

>  <index>  (307) 
590

>  <∆∆G>  (307) 
-7.611943

>  <∆G_bound>  (307) 
-7.050528

>  <∆G_unbound>  (307) 
0.561415

>  <comRMSD>  (307) 
0.718745

>  <N_constrained_atoms>  (307) 
28.0

>  <N_unconstrained_atoms>  (307) 
2.0

>  <runtime>  (307) 
40.29263

>  <LE>  (307) 
0.253731

>  <percent_hybrid>  (307) 
36.0

>  <dist>  (307) 
7.0

>  <ecfp4>  (307) 
0.242105

>  <daylight>  (307) 
0.361905

>  <topodist>  (307) 
3.0

>  <mces>  (307) 
31.0

>  <tdn>  (307) 
2.0

>  <tup>  (307) 
1.0

>  <rdn>  (307) 
0.0

>  <rup>  (307) 
0.0

>  <ldn>  (307) 
0.0

>  <lup>  (307) 
0.0

>  <mut>  (307) 
4.0

>  <maj>  (307) 
4.0

>  <min>  (307) 
0.0

>  <hyb>  (307) 
0.0

>  <sub>  (307) 
2.0

>  <query_index>  (307) 
45.0

>  <max_hit_Tanimoto>  (307) 
0.269455

>  <largest_ring>  (307) 
6

>  <N_interactions_kept>  (307) 
0.5

>  <N_interactions_lost>  (307) 
2.0

>  <interaction_uniqueness_metric>  (307) 
0.199509

>  <ad_hoc_penalty>  (307) 
-21.430647

>  <N_rotatable_bonds>  (307) 
4

>  <N_HA>  (307) 
28

>  <cluster>  (307) 
515

>  <N_interactions>  (307) 
5

>  <Enamine>  (307) 
1

>  <Mcule>  (307) 
0

>  <N_PAINS>  (307) 
0

>  <UFF_Gibbs>  (307) 
97.944725

>  <strain_per_HA>  (307) 
3.264824

>  <saltbridge:HIS:51>  (307) 
0

>  <pistack:HIS:51>  (307) 
0

>  <hydroph_interaction:HIS:51>  (307) 
0

>  <hbond:ALA:132>  (307) 
0

>  <hbond:SER:135>  (307) 
0

>  <hydroph_interaction:TYR:150>  (307) 
0

>  <pistack:TYR:161>  (307) 
1

>  <hydroph_interaction:TYR:161>  (307) 
0

>  <hydroph_interaction:ASP:83>  (307) 
0

>  <hbond:TYR:130>  (307) 
0

>  <hydroph_interaction:ALA:132>  (307) 
0

>  <hbond:HIS:51>  (307) 
0

>  <hbond:ASP:129>  (307) 
1

>  <hbond:TYR:150>  (307) 
0

>  <hbond:GLY:151>  (307) 
0

>  <hbond:TYR:161>  (307) 
1

>  <hydroph_interaction:TYR:130>  (307) 
1

>  <hydroph_interaction:PRO:131>  (307) 
1

>  <hydroph_interaction:ASP:129>  (307) 
0

>  <saltbridge:ASP:75>  (307) 
0

>  <saltbridge:ASP:83>  (307) 
0

>  <hydroph_interaction:ASN:152>  (307) 
0

>  <halogenbond:TYR:150>  (307) 
0

>  <hbond:ASP:83>  (307) 
0

>  <hydroph_interaction:VAL:155>  (307) 
0

>  <pication:TYR:161>  (307) 
0

>  <hbond:PRO:131>  (307) 
0

>  <hbond:LEU:128>  (307) 
0

>  <saltbridge:ASP:129>  (307) 
0

>  <hbond:THR:134>  (307) 
0

>  <pication:HIS:51>  (307) 
0

>  <hbond:SER:81>  (307) 
0

>  <hbond:GLY:159>  (307) 
0

>  <hydroph_interaction:PRO:101>  (307) 
0

>  <hydroph_interaction:THR:134>  (307) 
0

>  <hbond:GLY:82>  (307) 
0

>  <hydroph_interaction:GLU:104>  (307) 
0

>  <hydroph_interaction:VAL:36>  (307) 
0

>  <hydroph_interaction:MET:49>  (307) 
0

>  <halogenbond:GLU:104>  (307) 
0

>  <hydroph_interaction:LYS:107>  (307) 
0

$$$$
Z2782231880
     RDKit          3D

 41 43  0  0  0  0  0  0  0  0999 V2000
   -9.4033    5.5633  -18.9011 C   0  0  0  0  0  0  0  0  0  0  0  0
   -8.7053    5.1714  -17.6313 C   0  0  0  0  0  0  0  0  0  0  0  0
   -7.3703    4.7448  -17.6710 C   0  0  0  0  0  0  0  0  0  0  0  0
   -6.7274    4.3142  -16.5010 C   0  0  0  0  0  0  0  0  0  0  0  0
   -5.2890    3.8898  -16.5454 C   0  0  0  0  0  0  0  0  0  0  0  0
   -7.4195    4.3428  -15.2811 C   0  0  0  0  0  0  0  0  0  0  0  0
   -8.7493    4.7743  -15.2258 C   0  0  0  0  0  0  0  0  0  0  0  0
   -9.4026    4.7621  -13.9854 O   0  0  0  0  0  0  0  0  0  0  0  0
  -10.4323    5.6322  -13.6039 C   0  0  0  0  0  0  0  0  0  0  0  0
  -10.6532    6.6977  -14.2415 O   0  0  0  0  0  0  0  0  0  0  0  0
  -11.2138    5.3369  -12.3651 C   0  0  0  0  0  0  0  0  0  0  0  0
  -10.3735    5.6001  -11.1544 C   0  0  0  0  0  0  0  0  0  0  0  0
   -9.5189    4.7316  -10.5044 C   0  0  0  0  0  0  0  0  0  0  0  0
   -9.3073    3.2689  -10.7644 C   0  0  0  0  0  0  0  0  0  0  0  0
   -8.0189    2.7867  -10.0793 C   0  0  0  0  0  0  0  0  0  0  0  0
   -7.9226    3.3101   -8.6365 C   0  0  0  0  0  0  0  0  0  0  0  0
   -7.8965    4.8474   -8.6150 C   0  0  0  0  0  0  0  0  0  0  0  0
   -8.9314    5.3932   -9.4916 N   0  0  0  0  0  0  0  0  0  0  0  0
   -9.3250    6.6572   -9.4897 N   0  0  0  0  0  0  0  0  0  0  0  0
  -10.2122    6.8082  -10.4969 C   0  0  0  0  0  0  0  0  0  0  0  0
   -9.3983    5.1655  -16.4109 C   0  0  0  0  0  0  0  0  0  0  0  0
   -8.7331    6.1892  -19.5288 H   0  0  0  0  0  0  0  0  0  0  0  0
  -10.3235    6.1500  -18.6897 H   0  0  0  0  0  0  0  0  0  0  0  0
   -9.6815    4.6492  -19.4670 H   0  0  0  0  0  0  0  0  0  0  0  0
   -6.8359    4.7377  -18.6145 H   0  0  0  0  0  0  0  0  0  0  0  0
   -4.6378    4.7870  -16.4724 H   0  0  0  0  0  0  0  0  0  0  0  0
   -5.0522    3.2011  -15.7055 H   0  0  0  0  0  0  0  0  0  0  0  0
   -5.0695    3.3592  -17.4973 H   0  0  0  0  0  0  0  0  0  0  0  0
   -6.9246    4.0331  -14.3677 H   0  0  0  0  0  0  0  0  0  0  0  0
  -11.5374    4.2746  -12.3780 H   0  0  0  0  0  0  0  0  0  0  0  0
  -12.1269    5.9693  -12.3285 H   0  0  0  0  0  0  0  0  0  0  0  0
  -10.1771    2.7060  -10.3628 H   0  0  0  0  0  0  0  0  0  0  0  0
   -9.2378    3.0811  -11.8560 H   0  0  0  0  0  0  0  0  0  0  0  0
   -7.1390    3.1422  -10.6588 H   0  0  0  0  0  0  0  0  0  0  0  0
   -7.9971    1.6760  -10.0744 H   0  0  0  0  0  0  0  0  0  0  0  0
   -8.7968    2.9463   -8.0527 H   0  0  0  0  0  0  0  0  0  0  0  0
   -6.9993    2.9179   -8.1581 H   0  0  0  0  0  0  0  0  0  0  0  0
   -8.0559    5.2080   -7.5765 H   0  0  0  0  0  0  0  0  0  0  0  0
   -6.9039    5.2046   -8.9634 H   0  0  0  0  0  0  0  0  0  0  0  0
  -10.7002    7.7414  -10.7444 H   0  0  0  0  0  0  0  0  0  0  0  0
  -10.4441    5.4405  -16.3926 H   0  0  0  0  0  0  0  0  0  0  0  0
  1  2  1  0
  2  3  2  0
  3  4  1  0
  4  5  1  0
  4  6  2  0
  6  7  1  0
  7  8  1  0
  8  9  1  0
  9 10  2  0
  9 11  1  0
 11 12  1  0
 12 13  2  0
 13 14  1  0
 14 15  1  0
 15 16  1  0
 16 17  1  0
 17 18  1  0
 18 19  1  0
 19 20  2  0
  7 21  2  0
 21  2  1  0
 20 12  1  0
 18 13  1  0
  1 22  1  0
  1 23  1  0
  1 24  1  0
  3 25  1  0
  5 26  1  0
  5 27  1  0
  5 28  1  0
  6 29  1  0
 11 30  1  0
 11 31  1  0
 14 32  1  0
 14 33  1  0
 15 34  1  0
 15 35  1  0
 16 36  1  0
 16 37  1  0
 17 38  1  0
 17 39  1  0
 20 40  1  0
 21 41  1  0
A    1
 C1 
A    2
 C2 
A    3
 C3 
A    4
 C4 
A    5
 C5 
A    6
 C6 
A    7
 C7 
A    8
 O1 
A    9
 C8 
A   10
 O2 
A   11
 C9 
A   12
 C10
A   13
 C11
A   14
 C12
A   15
 C13
A   16
 C14
A   17
 C15
A   18
 N1 
A   19
 N2 
A   20
 C16
A   21
 C17
A   22
 H1 
A   23
 H2 
A   24
 H3 
A   25
 H4 
A   26
 H5 
A   27
 H6 
A   28
 H7 
A   29
 H8 
A   30
 H9 
A   31
 H10
A   32
 H11
A   33
 H12
A   34
 H13
A   35
 H14
A   36
 H15
A   37
 H16
A   38
 H17
A   39
 H18
A   40
 H19
A   41
 H20
M  END
>  <ref_pdb>  (308) 
x0051_0B

>  <ref_mols>  (308) 
x0589_0B,x0969_1B

>  <original SMILES>  (308) 
[H]c1nn2c(c1C([H])([H])C(=O)Oc1c([H])c(C([H])([H])[H])c([H])c(C([H])([H])[H])c1[H])C([H])([H])C([H])([H])C([H])([H])C2([H])[H]

>  <index>  (308) 
488

>  <∆∆G>  (308) 
-8.696989

>  <∆G_bound>  (308) 
-7.719679

>  <∆G_unbound>  (308) 
0.97731

>  <comRMSD>  (308) 
0.528835

>  <N_constrained_atoms>  (308) 
18.0

>  <N_unconstrained_atoms>  (308) 
3.0

>  <runtime>  (308) 
51.337618

>  <LE>  (308) 
0.414142

>  <percent_hybrid>  (308) 
45.0

>  <dist>  (308) 
4.0

>  <ecfp4>  (308) 
0.393939

>  <daylight>  (308) 
0.476

>  <topodist>  (308) 
1.0

>  <mces>  (308) 
22.0

>  <tdn>  (308) 
0.0

>  <tup>  (308) 
1.0

>  <rdn>  (308) 
0.0

>  <rup>  (308) 
0.0

>  <ldn>  (308) 
0.0

>  <lup>  (308) 
0.0

>  <mut>  (308) 
2.0

>  <maj>  (308) 
2.0

>  <min>  (308) 
0.0

>  <hyb>  (308) 
1.0

>  <sub>  (308) 
0.0

>  <query_index>  (308) 
379.0

>  <max_hit_Tanimoto>  (308) 
0.308247

>  <largest_ring>  (308) 
6

>  <N_interactions_kept>  (308) 
1.5

>  <N_interactions_lost>  (308) 
1.0

>  <interaction_uniqueness_metric>  (308) 
0.066414

>  <ad_hoc_penalty>  (308) 
-21.429825

>  <N_rotatable_bonds>  (308) 
5

>  <N_HA>  (308) 
21

>  <cluster>  (308) 
5773

>  <N_interactions>  (308) 
4

>  <Enamine>  (308) 
1

>  <Mcule>  (308) 
0

>  <N_PAINS>  (308) 
0

>  <UFF_Gibbs>  (308) 
71.351022

>  <strain_per_HA>  (308) 
3.397668

>  <saltbridge:HIS:51>  (308) 
0

>  <pistack:HIS:51>  (308) 
1

>  <hydroph_interaction:HIS:51>  (308) 
0

>  <hbond:ALA:132>  (308) 
0

>  <hbond:SER:135>  (308) 
0

>  <hydroph_interaction:TYR:150>  (308) 
1

>  <pistack:TYR:161>  (308) 
1

>  <hydroph_interaction:TYR:161>  (308) 
1

>  <hydroph_interaction:ASP:83>  (308) 
0

>  <hbond:TYR:130>  (308) 
0

>  <hydroph_interaction:ALA:132>  (308) 
0

>  <hbond:HIS:51>  (308) 
0

>  <hbond:ASP:129>  (308) 
0

>  <hbond:TYR:150>  (308) 
0

>  <hbond:GLY:151>  (308) 
0

>  <hbond:TYR:161>  (308) 
0

>  <hydroph_interaction:TYR:130>  (308) 
0

>  <hydroph_interaction:PRO:131>  (308) 
0

>  <hydroph_interaction:ASP:129>  (308) 
0

>  <saltbridge:ASP:75>  (308) 
0

>  <saltbridge:ASP:83>  (308) 
0

>  <hydroph_interaction:ASN:152>  (308) 
0

>  <halogenbond:TYR:150>  (308) 
0

>  <hbond:ASP:83>  (308) 
0

>  <hydroph_interaction:VAL:155>  (308) 
0

>  <pication:TYR:161>  (308) 
0

>  <hbond:PRO:131>  (308) 
0

>  <hbond:LEU:128>  (308) 
0

>  <saltbridge:ASP:129>  (308) 
0

>  <hbond:THR:134>  (308) 
0

>  <pication:HIS:51>  (308) 
0

>  <hbond:SER:81>  (308) 
0

>  <hbond:GLY:159>  (308) 
0

>  <hydroph_interaction:PRO:101>  (308) 
0

>  <hydroph_interaction:THR:134>  (308) 
0

>  <hbond:GLY:82>  (308) 
0

>  <hydroph_interaction:GLU:104>  (308) 
0

>  <hydroph_interaction:VAL:36>  (308) 
0

>  <hydroph_interaction:MET:49>  (308) 
0

>  <halogenbond:GLU:104>  (308) 
0

>  <hydroph_interaction:LYS:107>  (308) 
0

$$$$
MCULE-7998470722
     RDKit          3D

 46 50  0  0  0  0  0  0  0  0999 V2000
   -6.4331    5.7325  -19.8238 N   0  0  0  0  0  0  0  0  0  0  0  0
   -4.9942    5.7894  -20.0946 C   0  0  0  0  0  0  0  0  0  0  0  0
   -4.7104    6.8297  -21.1475 C   0  0  0  0  0  0  0  0  0  0  0  0
   -4.5425    6.4570  -22.4952 C   0  0  0  0  0  0  0  0  0  0  0  0
   -4.3753    7.4302  -23.4851 C   0  0  0  0  0  0  0  0  0  0  0  0
   -4.3940    8.7876  -23.1447 C   0  0  0  0  0  0  0  0  0  0  0  0
   -4.5468    9.1639  -21.8003 C   0  0  0  0  0  0  0  0  0  0  0  0
   -4.7049    8.1898  -20.8058 C   0  0  0  0  0  0  0  0  0  0  0  0
   -4.2999   10.0048  -24.4122 S   0  0  0  0  0  6  0  0  0  0  0  0
   -2.8557   10.2099  -24.7898 O   0  0  0  0  0  0  0  0  0  0  0  0
   -4.8824   11.3114  -23.9373 O   0  0  0  0  0  0  0  0  0  0  0  0
   -5.1928    9.4587  -25.7993 N   0  0  0  0  0  0  0  0  0  0  0  0
   -6.5454    8.9883  -25.6978 C   0  0  0  0  0  0  0  0  0  0  0  0
   -7.5260    9.0989  -24.3038 S   0  0  0  0  0  0  0  0  0  0  0  0
   -8.8126    8.3395  -25.0757 C   0  0  0  0  0  0  0  0  0  0  0  0
   -8.4484    8.0283  -26.3815 C   0  0  0  0  0  0  0  0  0  0  0  0
   -9.3549    7.3872  -27.2321 C   0  0  0  0  0  0  0  0  0  0  0  0
  -10.6359    7.0640  -26.7379 C   0  0  0  0  0  0  0  0  0  0  0  0
  -11.0001    7.4015  -25.4154 C   0  0  0  0  0  0  0  0  0  0  0  0
  -10.0759    8.0358  -24.5660 C   0  0  0  0  0  0  0  0  0  0  0  0
   -7.1845    8.3883  -26.7356 N   0  0  0  0  0  0  0  0  0  0  0  0
   -7.1499    6.6028  -18.9373 C   0  0  0  0  0  0  0  0  0  0  0  0
   -6.6136    7.2658  -18.0073 O   0  0  0  0  0  0  0  0  0  0  0  0
   -8.5655    6.6332  -19.2906 C   0  0  0  0  0  0  0  0  0  0  0  0
   -8.7381    5.8054  -20.3810 C   0  0  0  0  0  0  0  0  0  0  0  0
   -9.9855    5.6614  -20.9942 C   0  0  0  0  0  0  0  0  0  0  0  0
  -11.0717    6.3902  -20.4712 C   0  0  0  0  0  0  0  0  0  0  0  0
  -10.8914    7.2425  -19.3594 C   0  0  0  0  0  0  0  0  0  0  0  0
   -9.6228    7.3687  -18.7557 C   0  0  0  0  0  0  0  0  0  0  0  0
   -7.4340    5.2441  -20.7230 C   0  0  0  0  0  0  0  0  0  0  0  0
   -7.1962    4.4754  -21.6951 O   0  0  0  0  0  0  0  0  0  0  0  0
   -4.4393    6.0336  -19.1598 H   0  0  0  0  0  0  0  0  0  0  0  0
   -4.6438    4.7901  -20.4289 H   0  0  0  0  0  0  0  0  0  0  0  0
   -4.5573    5.4145  -22.7817 H   0  0  0  0  0  0  0  0  0  0  0  0
   -4.2593    7.1259  -24.5200 H   0  0  0  0  0  0  0  0  0  0  0  0
   -4.5652   10.2087  -21.5216 H   0  0  0  0  0  0  0  0  0  0  0  0
   -4.8454    8.4962  -19.7721 H   0  0  0  0  0  0  0  0  0  0  0  0
   -4.7105    9.4313  -26.7318 H   0  0  0  0  0  0  0  0  0  0  0  0
   -9.0754    7.1326  -28.2521 H   0  0  0  0  0  0  0  0  0  0  0  0
  -11.3534    6.5749  -27.3831 H   0  0  0  0  0  0  0  0  0  0  0  0
  -11.9917    7.1613  -25.0502 H   0  0  0  0  0  0  0  0  0  0  0  0
  -10.3504    8.3051  -23.5490 H   0  0  0  0  0  0  0  0  0  0  0  0
  -10.1146    5.0218  -21.8551 H   0  0  0  0  0  0  0  0  0  0  0  0
  -12.0502    6.3017  -20.9286 H   0  0  0  0  0  0  0  0  0  0  0  0
  -11.7342    7.8062  -18.9724 H   0  0  0  0  0  0  0  0  0  0  0  0
   -9.4721    8.0310  -17.9133 H   0  0  0  0  0  0  0  0  0  0  0  0
  1  2  1  0
  2  3  1  0
  3  4  2  0
  4  5  1  0
  5  6  2  0
  6  7  1  0
  7  8  2  0
  6  9  1  0
  9 10  2  0
  9 11  2  0
  9 12  1  0
 12 13  1  0
 13 14  1  0
 14 15  1  0
 15 16  2  0
 16 17  1  0
 17 18  2  0
 18 19  1  0
 19 20  2  0
 16 21  1  0
  1 22  1  0
 22 23  2  0
 22 24  1  0
 24 25  2  0
 25 26  1  0
 26 27  2  0
 27 28  1  0
 28 29  2  0
 25 30  1  0
 30 31  2  0
 30  1  1  0
  8  3  1  0
 13 21  2  0
 15 20  1  0
 24 29  1  0
  2 32  1  0
  2 33  1  0
  4 34  1  0
  5 35  1  0
  7 36  1  0
  8 37  1  0
 12 38  1  0
 17 39  1  0
 18 40  1  0
 19 41  1  0
 20 42  1  0
 26 43  1  0
 27 44  1  0
 28 45  1  0
 29 46  1  0
A    1
 N1 
A    2
 C1 
A    3
 C2 
A    4
 C3 
A    5
 C4 
A    6
 C5 
A    7
 C6 
A    8
 C7 
A    9
 S1 
A   10
 O1 
A   11
 O2 
A   12
 N2 
A   13
 C8 
A   14
 S2 
A   15
 C9 
A   16
 C10
A   17
 C11
A   18
 C12
A   19
 C13
A   20
 C14
A   21
 N3 
A   22
 C15
A   23
 O3 
A   24
 C16
A   25
 C17
A   26
 C18
A   27
 C19
A   28
 C20
A   29
 C21
A   30
 C22
A   31
 O4 
A   32
 H1 
A   33
 H2 
A   34
 H3 
A   35
 H4 
A   36
 H5 
A   37
 H6 
A   38
 H7 
A   39
 H8 
A   40
 H9 
A   41
 H10
A   42
 H11
A   43
 H12
A   44
 H13
A   45
 H14
A   46
 H15
M  END
>  <ref_pdb>  (309) 
x0051_0B

>  <ref_mols>  (309) 
x0727_0B,x0846_1B

>  <original SMILES>  (309) 
[H]c1c([H])c([H])c2c(c1[H])C(=O)N(C([H])([H])c1c([H])c([H])c(S(=O)(=O)N([H])c3nc4c([H])c([H])c([H])c([H])c4s3)c([H])c1[H])C2=O

>  <index>  (309) 
597

>  <∆∆G>  (309) 
-10.480295

>  <∆G_bound>  (309) 
-9.34476

>  <∆G_unbound>  (309) 
1.135535

>  <comRMSD>  (309) 
0.871013

>  <N_constrained_atoms>  (309) 
29.0

>  <N_unconstrained_atoms>  (309) 
3.0

>  <runtime>  (309) 
54.55994

>  <LE>  (309) 
0.327509

>  <percent_hybrid>  (309) 
38.0

>  <dist>  (309) 
11.0

>  <ecfp4>  (309) 
0.148936

>  <daylight>  (309) 
0.187919

>  <topodist>  (309) 
7.0

>  <mces>  (309) 
32.0

>  <tdn>  (309) 
2.0

>  <tup>  (309) 
3.0

>  <rdn>  (309) 
0.0

>  <rup>  (309) 
0.0

>  <ldn>  (309) 
2.0

>  <lup>  (309) 
0.0

>  <mut>  (309) 
4.0

>  <maj>  (309) 
4.0

>  <min>  (309) 
0.0

>  <hyb>  (309) 
0.0

>  <sub>  (309) 
2.0

>  <query_index>  (309) 
15.0

>  <max_hit_Tanimoto>  (309) 
0.229417

>  <largest_ring>  (309) 
6

>  <N_interactions_kept>  (309) 
0.5

>  <N_interactions_lost>  (309) 
2.5

>  <interaction_uniqueness_metric>  (309) 
0.1581

>  <ad_hoc_penalty>  (309) 
-21.418225

>  <N_rotatable_bonds>  (309) 
5

>  <N_HA>  (309) 
31

>  <cluster>  (309) 
5672

>  <N_interactions>  (309) 
5

>  <Enamine>  (309) 
0

>  <Mcule>  (309) 
1

>  <N_PAINS>  (309) 
0

>  <UFF_Gibbs>  (309) 
86.850691

>  <strain_per_HA>  (309) 
2.714084

>  <saltbridge:HIS:51>  (309) 
0

>  <pistack:HIS:51>  (309) 
0

>  <hydroph_interaction:HIS:51>  (309) 
0

>  <hbond:ALA:132>  (309) 
0

>  <hbond:SER:135>  (309) 
0

>  <hydroph_interaction:TYR:150>  (309) 
1

>  <pistack:TYR:161>  (309) 
1

>  <hydroph_interaction:TYR:161>  (309) 
0

>  <hydroph_interaction:ASP:83>  (309) 
0

>  <hbond:TYR:130>  (309) 
1

>  <hydroph_interaction:ALA:132>  (309) 
0

>  <hbond:HIS:51>  (309) 
0

>  <hbond:ASP:129>  (309) 
0

>  <hbond:TYR:150>  (309) 
0

>  <hbond:GLY:151>  (309) 
0

>  <hbond:TYR:161>  (309) 
0

>  <hydroph_interaction:TYR:130>  (309) 
1

>  <hydroph_interaction:PRO:131>  (309) 
1

>  <hydroph_interaction:ASP:129>  (309) 
0

>  <saltbridge:ASP:75>  (309) 
0

>  <saltbridge:ASP:83>  (309) 
0

>  <hydroph_interaction:ASN:152>  (309) 
0

>  <halogenbond:TYR:150>  (309) 
0

>  <hbond:ASP:83>  (309) 
0

>  <hydroph_interaction:VAL:155>  (309) 
0

>  <pication:TYR:161>  (309) 
0

>  <hbond:PRO:131>  (309) 
0

>  <hbond:LEU:128>  (309) 
0

>  <saltbridge:ASP:129>  (309) 
0

>  <hbond:THR:134>  (309) 
0

>  <pication:HIS:51>  (309) 
0

>  <hbond:SER:81>  (309) 
0

>  <hbond:GLY:159>  (309) 
0

>  <hydroph_interaction:PRO:101>  (309) 
0

>  <hydroph_interaction:THR:134>  (309) 
0

>  <hbond:GLY:82>  (309) 
0

>  <hydroph_interaction:GLU:104>  (309) 
0

>  <hydroph_interaction:VAL:36>  (309) 
0

>  <hydroph_interaction:MET:49>  (309) 
0

>  <halogenbond:GLU:104>  (309) 
0

>  <hydroph_interaction:LYS:107>  (309) 
0

$$$$
WQPVWYOGSGCZDU-UHFFFAOYSA-N
     RDKit          3D

 42 43  0  0  0  0  0  0  0  0999 V2000
   -6.7285    5.4957  -18.7751 C   0  0  0  0  0  0  0  0  0  0  0  0
   -6.3757    6.5390  -19.7039 N   0  0  0  0  0  0  0  0  0  0  0  0
   -4.9971    6.9789  -19.9972 C   0  0  0  0  0  0  0  0  0  0  0  0
   -5.0435    8.1073  -21.0481 C   0  0  0  0  0  0  0  0  0  0  0  0
   -4.3298    7.5278  -18.7206 C   0  0  0  0  0  0  0  0  0  0  0  0
   -4.1749    5.8094  -20.5733 C   0  0  0  0  0  0  0  0  0  0  0  0
   -5.8362    4.8999  -18.1141 O   0  0  0  0  0  0  0  0  0  0  0  0
   -8.1455    5.1142  -18.5803 C   0  0  0  0  0  0  0  0  0  0  0  0
   -8.6546    4.7703  -17.3067 C   0  0  0  0  0  0  0  0  0  0  0  0
   -7.8490    4.8817  -16.1251 N   0  0  0  0  0  0  0  0  0  0  0  0
   -7.5171    6.2142  -15.6013 C   0  0  0  0  0  0  0  0  0  0  0  0
   -6.6772    6.1152  -14.3234 C   0  0  0  0  0  0  0  0  0  0  0  0
   -7.3339    5.1801  -13.2953 C   0  0  0  0  0  0  0  0  0  0  0  0
   -7.8491    3.8507  -13.8964 C   0  0  0  0  0  0  0  0  0  0  0  0
   -7.4876    3.6744  -15.3751 C   0  0  0  0  0  0  0  0  0  0  0  0
   -9.9457    4.3556  -17.1847 N   0  0  0  0  0  0  0  0  0  0  0  0
  -10.7806    4.2690  -18.2521 C   0  0  0  0  0  0  0  0  0  0  0  0
  -10.3257    4.6139  -19.5235 C   0  0  0  0  0  0  0  0  0  0  0  0
   -9.0059    5.0347  -19.6870 C   0  0  0  0  0  0  0  0  0  0  0  0
   -7.1637    7.0438  -20.1701 H   0  0  0  0  0  0  0  0  0  0  0  0
   -5.6309    8.9701  -20.6659 H   0  0  0  0  0  0  0  0  0  0  0  0
   -5.5243    7.7468  -21.9831 H   0  0  0  0  0  0  0  0  0  0  0  0
   -4.0201    8.4636  -21.2961 H   0  0  0  0  0  0  0  0  0  0  0  0
   -4.1704    6.7308  -17.9666 H   0  0  0  0  0  0  0  0  0  0  0  0
   -4.9642    8.3179  -18.2645 H   0  0  0  0  0  0  0  0  0  0  0  0
   -3.3359    7.9660  -18.9568 H   0  0  0  0  0  0  0  0  0  0  0  0
   -4.6943    5.3719  -21.4530 H   0  0  0  0  0  0  0  0  0  0  0  0
   -4.0245    5.0074  -19.8224 H   0  0  0  0  0  0  0  0  0  0  0  0
   -3.1699    6.1588  -20.8946 H   0  0  0  0  0  0  0  0  0  0  0  0
   -8.4573    6.7642  -15.3791 H   0  0  0  0  0  0  0  0  0  0  0  0
   -6.9485    6.7927  -16.3591 H   0  0  0  0  0  0  0  0  0  0  0  0
   -6.5524    7.1269  -13.8805 H   0  0  0  0  0  0  0  0  0  0  0  0
   -5.6651    5.7308  -14.5793 H   0  0  0  0  0  0  0  0  0  0  0  0
   -6.5954    4.9626  -12.4933 H   0  0  0  0  0  0  0  0  0  0  0  0
   -8.1846    5.7151  -12.8186 H   0  0  0  0  0  0  0  0  0  0  0  0
   -8.9567    3.8146  -13.8009 H   0  0  0  0  0  0  0  0  0  0  0  0
   -7.4398    2.9937  -13.3184 H   0  0  0  0  0  0  0  0  0  0  0  0
   -8.0141    2.7818  -15.7798 H   0  0  0  0  0  0  0  0  0  0  0  0
   -6.3952    3.4959  -15.4745 H   0  0  0  0  0  0  0  0  0  0  0  0
  -11.7998    3.9346  -18.1123 H   0  0  0  0  0  0  0  0  0  0  0  0
  -10.9868    4.5429  -20.3779 H   0  0  0  0  0  0  0  0  0  0  0  0
   -8.6507    5.2672  -20.6831 H   0  0  0  0  0  0  0  0  0  0  0  0
  1  2  1  0
  2  3  1  0
  3  4  1  0
  3  5  1  0
  3  6  1  0
  1  7  2  0
  1  8  1  0
  8  9  2  0
  9 10  1  0
 10 11  1  0
 11 12  1  0
 12 13  1  0
 13 14  1  0
 14 15  1  0
  9 16  1  0
 16 17  2  0
 17 18  1  0
 18 19  2  0
 19  8  1  0
 15 10  1  0
  2 20  1  0
  4 21  1  0
  4 22  1  0
  4 23  1  0
  5 24  1  0
  5 25  1  0
  5 26  1  0
  6 27  1  0
  6 28  1  0
  6 29  1  0
 11 30  1  0
 11 31  1  0
 12 32  1  0
 12 33  1  0
 13 34  1  0
 13 35  1  0
 14 36  1  0
 14 37  1  0
 15 38  1  0
 15 39  1  0
 17 40  1  0
 18 41  1  0
 19 42  1  0
A    1
 C1 
A    2
 N1 
A    3
 C2 
A    4
 C3 
A    5
 C4 
A    6
 C5 
A    7
 O1 
A    8
 C6 
A    9
 C7 
A   10
 N2 
A   11
 C8 
A   12
 C9 
A   13
 C10
A   14
 C11
A   15
 C12
A   16
 N3 
A   17
 C13
A   18
 C14
A   19
 C15
A   20
 H1 
A   21
 H2 
A   22
 H3 
A   23
 H4 
A   24
 H5 
A   25
 H6 
A   26
 H7 
A   27
 H8 
A   28
 H9 
A   29
 H10
A   30
 H11
A   31
 H12
A   32
 H13
A   33
 H14
A   34
 H15
A   35
 H16
A   36
 H17
A   37
 H18
A   38
 H19
A   39
 H20
A   40
 H21
A   41
 H22
A   42
 H23
M  END
>  <ref_pdb>  (310) 
x0051_0B

>  <ref_mols>  (310) 
x0101_0B,x0951_0B

>  <original SMILES>  (310) 
[H]c1nc(N2C([H])([H])C([H])([H])C([H])([H])C([H])([H])C2([H])[H])c(C(=O)N([H])C(C([H])([H])[H])(C([H])([H])[H])C([H])([H])[H])c([H])c1[H]

>  <index>  (310) 
193

>  <∆∆G>  (310) 
-6.779232

>  <∆G_bound>  (310) 
-5.350231

>  <∆G_unbound>  (310) 
1.429001

>  <comRMSD>  (310) 
0.932386

>  <N_constrained_atoms>  (310) 
21.0

>  <N_unconstrained_atoms>  (310) 
0.0

>  <runtime>  (310) 
38.546169

>  <LE>  (310) 
0.322821

>  <percent_hybrid>  (310) 
40.0

>  <dist>  (310) 
8.0

>  <ecfp4>  (310) 
0.225352

>  <daylight>  (310) 
0.238532

>  <topodist>  (310) 
4.0

>  <mces>  (310) 
19.0

>  <tdn>  (310) 
2.0

>  <tup>  (310) 
0.0

>  <rdn>  (310) 
1.0

>  <rup>  (310) 
1.0

>  <ldn>  (310) 
0.0

>  <lup>  (310) 
0.0

>  <mut>  (310) 
3.0

>  <maj>  (310) 
3.0

>  <min>  (310) 
0.0

>  <hyb>  (310) 
1.0

>  <sub>  (310) 
4.0

>  <query_index>  (310) 
30.0

>  <max_hit_Tanimoto>  (310) 
0.249052

>  <largest_ring>  (310) 
6

>  <N_interactions_kept>  (310) 
2.0

>  <N_interactions_lost>  (310) 
2.0

>  <interaction_uniqueness_metric>  (310) 
0.111875

>  <ad_hoc_penalty>  (310) 
-21.34837

>  <N_rotatable_bonds>  (310) 
2

>  <N_HA>  (310) 
19

>  <cluster>  (310) 
6043

>  <N_interactions>  (310) 
6

>  <Enamine>  (310) 
0

>  <Mcule>  (310) 
1

>  <N_PAINS>  (310) 
0

>  <UFF_Gibbs>  (310) 
203.193519

>  <strain_per_HA>  (310) 
9.675882

>  <saltbridge:HIS:51>  (310) 
0

>  <pistack:HIS:51>  (310) 
0

>  <hydroph_interaction:HIS:51>  (310) 
0

>  <hbond:ALA:132>  (310) 
0

>  <hbond:SER:135>  (310) 
0

>  <hydroph_interaction:TYR:150>  (310) 
1

>  <pistack:TYR:161>  (310) 
0

>  <hydroph_interaction:TYR:161>  (310) 
2

>  <hydroph_interaction:ASP:83>  (310) 
0

>  <hbond:TYR:130>  (310) 
1

>  <hydroph_interaction:ALA:132>  (310) 
1

>  <hbond:HIS:51>  (310) 
0

>  <hbond:ASP:129>  (310) 
0

>  <hbond:TYR:150>  (310) 
0

>  <hbond:GLY:151>  (310) 
0

>  <hbond:TYR:161>  (310) 
0

>  <hydroph_interaction:TYR:130>  (310) 
0

>  <hydroph_interaction:PRO:131>  (310) 
0

>  <hydroph_interaction:ASP:129>  (310) 
1

>  <saltbridge:ASP:75>  (310) 
0

>  <saltbridge:ASP:83>  (310) 
0

>  <hydroph_interaction:ASN:152>  (310) 
0

>  <halogenbond:TYR:150>  (310) 
0

>  <hbond:ASP:83>  (310) 
0

>  <hydroph_interaction:VAL:155>  (310) 
0

>  <pication:TYR:161>  (310) 
0

>  <hbond:PRO:131>  (310) 
0

>  <hbond:LEU:128>  (310) 
0

>  <saltbridge:ASP:129>  (310) 
0

>  <hbond:THR:134>  (310) 
0

>  <pication:HIS:51>  (310) 
0

>  <hbond:SER:81>  (310) 
0

>  <hbond:GLY:159>  (310) 
0

>  <hydroph_interaction:PRO:101>  (310) 
0

>  <hydroph_interaction:THR:134>  (310) 
0

>  <hbond:GLY:82>  (310) 
0

>  <hydroph_interaction:GLU:104>  (310) 
0

>  <hydroph_interaction:VAL:36>  (310) 
0

>  <hydroph_interaction:MET:49>  (310) 
0

>  <halogenbond:GLU:104>  (310) 
0

>  <hydroph_interaction:LYS:107>  (310) 
0

$$$$
MCULE-7949175450
     RDKit          3D

 38 40  0  0  0  0  0  0  0  0999 V2000
   -8.5908    6.1420  -14.9025 C   0  0  0  0  0  0  0  0  0  0  0  0
   -7.5160    6.6866  -14.2121 C   0  0  0  0  0  0  0  0  0  0  0  0
   -7.8188    6.7691  -12.9021 N   0  0  0  0  0  0  0  0  0  0  0  0
   -9.0488    6.3081  -12.7465 N   0  0  0  0  0  0  0  0  0  0  0  0
   -9.7072    6.1709  -11.4549 C   0  0  0  0  0  0  0  0  0  0  0  0
   -9.5472    5.9071  -13.9297 C   0  0  0  0  0  0  0  0  0  0  0  0
   -8.6889    5.8606  -16.3580 C   0  0  0  0  0  0  0  0  0  0  0  0
   -7.5474    5.9226  -17.1805 C   0  0  0  0  0  0  0  0  0  0  0  0
   -7.6313    5.6435  -18.5530 C   0  0  0  0  0  0  0  0  0  0  0  0
   -6.4471    5.7370  -19.3617 N   0  0  0  0  0  0  0  0  0  0  0  0
   -6.1255    4.8269  -20.4276 C   0  0  0  0  0  0  0  0  0  0  0  0
   -4.8706    4.9818  -21.1917 C   0  0  0  0  0  0  0  0  0  0  0  0
   -4.9456    5.0500  -22.5906 C   0  0  0  0  0  0  0  0  0  0  0  0
   -3.7829    5.2254  -23.3400 C   0  0  0  0  0  0  0  0  0  0  0  0
   -2.5803    5.3228  -22.7186 N   0  0  0  0  0  0  0  0  0  0  0  0
   -2.4655    5.2410  -21.3675 C   0  0  0  0  0  0  0  0  0  0  0  0
   -3.6016    5.0452  -20.5655 C   0  0  0  0  0  0  0  0  0  0  0  0
   -3.4242    4.9145  -19.0753 C   0  0  0  0  0  0  0  0  0  0  0  0
   -6.9126    3.8899  -20.7305 O   0  0  0  0  0  0  0  0  0  0  0  0
   -8.8804    5.3389  -19.1173 C   0  0  0  0  0  0  0  0  0  0  0  0
  -10.0181    5.2763  -18.3118 C   0  0  0  0  0  0  0  0  0  0  0  0
   -9.9256    5.5293  -16.9415 C   0  0  0  0  0  0  0  0  0  0  0  0
   -6.5710    7.0073  -14.6278 H   0  0  0  0  0  0  0  0  0  0  0  0
   -9.2733    6.8902  -10.7284 H   0  0  0  0  0  0  0  0  0  0  0  0
   -9.5656    5.1380  -11.0739 H   0  0  0  0  0  0  0  0  0  0  0  0
  -10.7935    6.3794  -11.5566 H   0  0  0  0  0  0  0  0  0  0  0  0
  -10.5240    5.4609  -14.0621 H   0  0  0  0  0  0  0  0  0  0  0  0
   -6.5805    6.1654  -16.7609 H   0  0  0  0  0  0  0  0  0  0  0  0
   -5.7450    6.4662  -19.1048 H   0  0  0  0  0  0  0  0  0  0  0  0
   -5.9012    4.9880  -23.0975 H   0  0  0  0  0  0  0  0  0  0  0  0
   -3.8375    5.2911  -24.4185 H   0  0  0  0  0  0  0  0  0  0  0  0
   -1.4832    5.3159  -20.9184 H   0  0  0  0  0  0  0  0  0  0  0  0
   -4.1989    4.2530  -18.6345 H   0  0  0  0  0  0  0  0  0  0  0  0
   -3.4767    5.9169  -18.6025 H   0  0  0  0  0  0  0  0  0  0  0  0
   -2.4363    4.4652  -18.8374 H   0  0  0  0  0  0  0  0  0  0  0  0
   -8.9843    5.1775  -20.1817 H   0  0  0  0  0  0  0  0  0  0  0  0
  -10.9783    5.0420  -18.7530 H   0  0  0  0  0  0  0  0  0  0  0  0
  -10.8285    5.4834  -16.3482 H   0  0  0  0  0  0  0  0  0  0  0  0
  1  2  1  0
  2  3  2  0
  3  4  1  0
  4  5  1  0
  4  6  1  0
  1  7  1  0
  7  8  2  0
  8  9  1  0
  9 10  1  0
 10 11  1  0
 11 12  1  0
 12 13  2  0
 13 14  1  0
 14 15  2  0
 15 16  1  0
 16 17  2  0
 17 18  1  0
 11 19  2  0
  9 20  2  0
 20 21  1  0
 21 22  2  0
  1  6  2  0
  7 22  1  0
 12 17  1  0
  2 23  1  0
  5 24  1  0
  5 25  1  0
  5 26  1  0
  6 27  1  0
  8 28  1  0
 10 29  1  0
 13 30  1  0
 14 31  1  0
 16 32  1  0
 18 33  1  0
 18 34  1  0
 18 35  1  0
 20 36  1  0
 21 37  1  0
 22 38  1  0
A    1
 C1 
A    2
 C2 
A    3
 N1 
A    4
 N2 
A    5
 C3 
A    6
 C4 
A    7
 C5 
A    8
 C6 
A    9
 C7 
A   10
 N3 
A   11
 C8 
A   12
 C9 
A   13
 C10
A   14
 C11
A   15
 N4 
A   16
 C12
A   17
 C13
A   18
 C14
A   19
 O1 
A   20
 C15
A   21
 C16
A   22
 C17
A   23
 H1 
A   24
 H2 
A   25
 H3 
A   26
 H4 
A   27
 H5 
A   28
 H6 
A   29
 H7 
A   30
 H8 
A   31
 H9 
A   32
 H10
A   33
 H11
A   34
 H12
A   35
 H13
A   36
 H14
A   37
 H15
A   38
 H16
M  END
>  <ref_pdb>  (311) 
x0051_0B

>  <ref_mols>  (311) 
x0852_0B,x0951_0B

>  <original SMILES>  (311) 
[H]c1nc([H])c(C([H])([H])[H])c(C(=O)N([H])c2c([H])c([H])c([H])c(-c3c([H])nn(C([H])([H])[H])c3[H])c2[H])c1[H]

>  <index>  (311) 
637

>  <∆∆G>  (311) 
-8.470355

>  <∆G_bound>  (311) 
-8.491969

>  <∆G_unbound>  (311) 
-0.021615

>  <comRMSD>  (311) 
0.909035

>  <N_constrained_atoms>  (311) 
23.0

>  <N_unconstrained_atoms>  (311) 
0.0

>  <runtime>  (311) 
64.02694

>  <LE>  (311) 
0.368276

>  <percent_hybrid>  (311) 
32.0

>  <dist>  (311) 
7.0

>  <ecfp4>  (311) 
0.3

>  <daylight>  (311) 
0.423963

>  <topodist>  (311) 
3.0

>  <mces>  (311) 
23.0

>  <tdn>  (311) 
1.0

>  <tup>  (311) 
0.0

>  <rdn>  (311) 
1.0

>  <rup>  (311) 
1.0

>  <ldn>  (311) 
0.0

>  <lup>  (311) 
0.0

>  <mut>  (311) 
2.0

>  <maj>  (311) 
2.0

>  <min>  (311) 
0.0

>  <hyb>  (311) 
2.0

>  <sub>  (311) 
3.0

>  <query_index>  (311) 
95.0

>  <max_hit_Tanimoto>  (311) 
0.385045

>  <largest_ring>  (311) 
6

>  <N_interactions_kept>  (311) 
2.0

>  <N_interactions_lost>  (311) 
4.0

>  <interaction_uniqueness_metric>  (311) 
0.15645

>  <ad_hoc_penalty>  (311) 
-21.310019

>  <N_rotatable_bonds>  (311) 
5

>  <N_HA>  (311) 
22

>  <cluster>  (311) 
5636

>  <N_interactions>  (311) 
9

>  <Enamine>  (311) 
0

>  <Mcule>  (311) 
1

>  <N_PAINS>  (311) 
0

>  <UFF_Gibbs>  (311) 
50.946842

>  <strain_per_HA>  (311) 
2.21508

>  <saltbridge:HIS:51>  (311) 
0

>  <pistack:HIS:51>  (311) 
0

>  <hydroph_interaction:HIS:51>  (311) 
0

>  <hbond:ALA:132>  (311) 
0

>  <hbond:SER:135>  (311) 
0

>  <hydroph_interaction:TYR:150>  (311) 
1

>  <pistack:TYR:161>  (311) 
0

>  <hydroph_interaction:TYR:161>  (311) 
4

>  <hydroph_interaction:ASP:83>  (311) 
0

>  <hbond:TYR:130>  (311) 
1

>  <hydroph_interaction:ALA:132>  (311) 
1

>  <hbond:HIS:51>  (311) 
0

>  <hbond:ASP:129>  (311) 
1

>  <hbond:TYR:150>  (311) 
0

>  <hbond:GLY:151>  (311) 
0

>  <hbond:TYR:161>  (311) 
0

>  <hydroph_interaction:TYR:130>  (311) 
0

>  <hydroph_interaction:PRO:131>  (311) 
0

>  <hydroph_interaction:ASP:129>  (311) 
1

>  <saltbridge:ASP:75>  (311) 
0

>  <saltbridge:ASP:83>  (311) 
0

>  <hydroph_interaction:ASN:152>  (311) 
0

>  <halogenbond:TYR:150>  (311) 
0

>  <hbond:ASP:83>  (311) 
0

>  <hydroph_interaction:VAL:155>  (311) 
0

>  <pication:TYR:161>  (311) 
0

>  <hbond:PRO:131>  (311) 
0

>  <hbond:LEU:128>  (311) 
0

>  <saltbridge:ASP:129>  (311) 
0

>  <hbond:THR:134>  (311) 
0

>  <pication:HIS:51>  (311) 
0

>  <hbond:SER:81>  (311) 
0

>  <hbond:GLY:159>  (311) 
0

>  <hydroph_interaction:PRO:101>  (311) 
0

>  <hydroph_interaction:THR:134>  (311) 
0

>  <hbond:GLY:82>  (311) 
0

>  <hydroph_interaction:GLU:104>  (311) 
0

>  <hydroph_interaction:VAL:36>  (311) 
0

>  <hydroph_interaction:MET:49>  (311) 
0

>  <halogenbond:GLU:104>  (311) 
0

>  <hydroph_interaction:LYS:107>  (311) 
0

$$$$
Z2852288100
     RDKit          3D

 37 39  0  0  0  0  0  0  0  0999 V2000
  -10.7296    8.1323  -17.2411 N   0  0  0  0  0  0  0  0  0  0  0  0
   -9.9003    7.3300  -17.1536 C   0  0  0  0  0  0  0  0  0  0  0  0
   -8.8686    6.3318  -17.0445 C   0  0  0  0  0  0  0  0  0  0  0  0
   -8.2979    5.7857  -18.1973 C   0  0  0  0  0  0  0  0  0  0  0  0
   -7.2972    4.8218  -18.0716 C   0  0  0  0  0  0  0  0  0  0  0  0
   -6.8883    4.4205  -16.8390 N   0  0  0  0  0  0  0  0  0  0  0  0
   -7.4250    4.9268  -15.6941 C   0  0  0  0  0  0  0  0  0  0  0  0
   -6.9312    4.4496  -14.4297 N   0  0  0  0  0  0  0  0  0  0  0  0
   -7.4818    4.8164  -13.1248 C   0  0  0  0  0  0  0  0  0  0  0  0
   -8.8123    4.0989  -12.8817 C   0  0  0  0  0  0  0  0  0  0  0  0
   -9.3923    4.5017  -11.5604 C   0  0  0  0  0  0  0  0  0  0  0  0
   -9.1541    3.9455  -10.3207 C   0  0  0  0  0  0  0  0  0  0  0  0
   -8.3628    2.7133   -9.9945 C   0  0  0  0  0  0  0  0  0  0  0  0
   -8.0649    2.6521   -8.4879 C   0  0  0  0  0  0  0  0  0  0  0  0
   -9.3141    2.9848   -7.6547 C   0  0  0  0  0  0  0  0  0  0  0  0
   -9.8144    4.4061   -7.9613 C   0  0  0  0  0  0  0  0  0  0  0  0
   -9.8503    4.6404   -9.4037 N   0  0  0  0  0  0  0  0  0  0  0  0
  -10.4803    5.6498   -9.9842 N   0  0  0  0  0  0  0  0  0  0  0  0
  -10.2175    5.5849  -11.3070 C   0  0  0  0  0  0  0  0  0  0  0  0
   -8.4328    5.9064  -15.7845 C   0  0  0  0  0  0  0  0  0  0  0  0
   -8.6213    6.1026  -19.1815 H   0  0  0  0  0  0  0  0  0  0  0  0
   -6.8442    4.3917  -18.9548 H   0  0  0  0  0  0  0  0  0  0  0  0
   -6.1081    3.8055  -14.4410 H   0  0  0  0  0  0  0  0  0  0  0  0
   -7.5990    5.9190  -13.0535 H   0  0  0  0  0  0  0  0  0  0  0  0
   -6.7621    4.5123  -12.3333 H   0  0  0  0  0  0  0  0  0  0  0  0
   -8.6507    2.9996  -12.8984 H   0  0  0  0  0  0  0  0  0  0  0  0
   -9.5383    4.3450  -13.6847 H   0  0  0  0  0  0  0  0  0  0  0  0
   -7.4079    2.7120  -10.5617 H   0  0  0  0  0  0  0  0  0  0  0  0
   -8.9542    1.8212  -10.2925 H   0  0  0  0  0  0  0  0  0  0  0  0
   -7.2550    3.3735   -8.2406 H   0  0  0  0  0  0  0  0  0  0  0  0
   -7.7059    1.6335   -8.2263 H   0  0  0  0  0  0  0  0  0  0  0  0
   -9.0730    2.9037   -6.5730 H   0  0  0  0  0  0  0  0  0  0  0  0
  -10.1175    2.2512   -7.8854 H   0  0  0  0  0  0  0  0  0  0  0  0
   -9.1318    5.1474   -7.4926 H   0  0  0  0  0  0  0  0  0  0  0  0
  -10.8307    4.5427   -7.5334 H   0  0  0  0  0  0  0  0  0  0  0  0
  -10.5943    6.2874  -12.0385 H   0  0  0  0  0  0  0  0  0  0  0  0
   -8.8762    6.3401  -14.8984 H   0  0  0  0  0  0  0  0  0  0  0  0
  1  2  3  0
  2  3  1  0
  3  4  2  0
  4  5  1  0
  5  6  2  0
  6  7  1  0
  7  8  1  0
  8  9  1  0
  9 10  1  0
 10 11  1  0
 11 12  2  0
 12 13  1  0
 13 14  1  0
 14 15  1  0
 15 16  1  0
 16 17  1  0
 17 18  1  0
 18 19  2  0
  7 20  2  0
 20  3  1  0
 19 11  1  0
 17 12  1  0
  4 21  1  0
  5 22  1  0
  8 23  1  0
  9 24  1  0
  9 25  1  0
 10 26  1  0
 10 27  1  0
 13 28  1  0
 13 29  1  0
 14 30  1  0
 14 31  1  0
 15 32  1  0
 15 33  1  0
 16 34  1  0
 16 35  1  0
 19 36  1  0
 20 37  1  0
A    1
 N1 
A    2
 C1 
A    3
 C2 
A    4
 C3 
A    5
 C4 
A    6
 N2 
A    7
 C5 
A    8
 N3 
A    9
 C6 
A   10
 C7 
A   11
 C8 
A   12
 C9 
A   13
 C10
A   14
 C11
A   15
 C12
A   16
 C13
A   17
 N4 
A   18
 N5 
A   19
 C14
A   20
 C15
A   21
 H1 
A   22
 H2 
A   23
 H3 
A   24
 H4 
A   25
 H5 
A   26
 H6 
A   27
 H7 
A   28
 H8 
A   29
 H9 
A   30
 H10
A   31
 H11
A   32
 H12
A   33
 H13
A   34
 H14
A   35
 H15
A   36
 H16
A   37
 H17
M  END
>  <ref_pdb>  (312) 
x0051_0B

>  <ref_mols>  (312) 
x0553_0B,x0969_1B

>  <original SMILES>  (312) 
[H]c1nc(N([H])C([H])([H])C([H])([H])c2c([H])nn3c2C([H])([H])C([H])([H])C([H])([H])C3([H])[H])c([H])c(C#N)c1[H]

>  <index>  (312) 
677

>  <∆∆G>  (312) 
-6.300853

>  <∆G_bound>  (312) 
-4.968113

>  <∆G_unbound>  (312) 
1.332739

>  <comRMSD>  (312) 
0.52153

>  <N_constrained_atoms>  (312) 
18.0

>  <N_unconstrained_atoms>  (312) 
2.0

>  <runtime>  (312) 
56.498035

>  <LE>  (312) 
0.315043

>  <percent_hybrid>  (312) 
45.0

>  <dist>  (312) 
4.0

>  <ecfp4>  (312) 
0.416667

>  <daylight>  (312) 
0.282828

>  <topodist>  (312) 
1.0

>  <mces>  (312) 
22.0

>  <tdn>  (312) 
1.0

>  <tup>  (312) 
0.0

>  <rdn>  (312) 
0.0

>  <rup>  (312) 
0.0

>  <ldn>  (312) 
0.0

>  <lup>  (312) 
0.0

>  <mut>  (312) 
3.0

>  <maj>  (312) 
3.0

>  <min>  (312) 
0.0

>  <hyb>  (312) 
0.0

>  <sub>  (312) 
0.0

>  <query_index>  (312) 
375.0

>  <max_hit_Tanimoto>  (312) 
0.332978

>  <largest_ring>  (312) 
6

>  <N_interactions_kept>  (312) 
1.5

>  <N_interactions_lost>  (312) 
1.0

>  <interaction_uniqueness_metric>  (312) 
0.167935

>  <ad_hoc_penalty>  (312) 
-21.256108

>  <N_rotatable_bonds>  (312) 
4

>  <N_HA>  (312) 
20

>  <cluster>  (312) 
5597

>  <N_interactions>  (312) 
4

>  <Enamine>  (312) 
1

>  <Mcule>  (312) 
0

>  <N_PAINS>  (312) 
0

>  <UFF_Gibbs>  (312) 
38.762619

>  <strain_per_HA>  (312) 
1.938131

>  <saltbridge:HIS:51>  (312) 
0

>  <pistack:HIS:51>  (312) 
1

>  <hydroph_interaction:HIS:51>  (312) 
0

>  <hbond:ALA:132>  (312) 
0

>  <hbond:SER:135>  (312) 
0

>  <hydroph_interaction:TYR:150>  (312) 
0

>  <pistack:TYR:161>  (312) 
1

>  <hydroph_interaction:TYR:161>  (312) 
0

>  <hydroph_interaction:ASP:83>  (312) 
1

>  <hbond:TYR:130>  (312) 
0

>  <hydroph_interaction:ALA:132>  (312) 
0

>  <hbond:HIS:51>  (312) 
0

>  <hbond:ASP:129>  (312) 
0

>  <hbond:TYR:150>  (312) 
0

>  <hbond:GLY:151>  (312) 
0

>  <hbond:TYR:161>  (312) 
1

>  <hydroph_interaction:TYR:130>  (312) 
0

>  <hydroph_interaction:PRO:131>  (312) 
0

>  <hydroph_interaction:ASP:129>  (312) 
0

>  <saltbridge:ASP:75>  (312) 
0

>  <saltbridge:ASP:83>  (312) 
0

>  <hydroph_interaction:ASN:152>  (312) 
0

>  <halogenbond:TYR:150>  (312) 
0

>  <hbond:ASP:83>  (312) 
0

>  <hydroph_interaction:VAL:155>  (312) 
0

>  <pication:TYR:161>  (312) 
0

>  <hbond:PRO:131>  (312) 
0

>  <hbond:LEU:128>  (312) 
0

>  <saltbridge:ASP:129>  (312) 
0

>  <hbond:THR:134>  (312) 
0

>  <pication:HIS:51>  (312) 
0

>  <hbond:SER:81>  (312) 
0

>  <hbond:GLY:159>  (312) 
0

>  <hydroph_interaction:PRO:101>  (312) 
0

>  <hydroph_interaction:THR:134>  (312) 
0

>  <hbond:GLY:82>  (312) 
0

>  <hydroph_interaction:GLU:104>  (312) 
0

>  <hydroph_interaction:VAL:36>  (312) 
0

>  <hydroph_interaction:MET:49>  (312) 
0

>  <halogenbond:GLU:104>  (312) 
0

>  <hydroph_interaction:LYS:107>  (312) 
0

$$$$
MCULE-7168109046
     RDKit          3D

 29 30  0  0  0  0  0  0  0  0999 V2000
   -7.1378    5.3087  -17.3311 C   0  0  0  0  0  0  0  0  0  0  0  0
   -8.3466    5.1062  -16.6294 C   0  0  0  0  0  0  0  0  0  0  0  0
   -8.3315    4.7265  -15.1681 C   0  0  0  0  0  0  0  0  0  0  0  0
   -7.0297    4.0174  -14.7767 C   0  0  0  0  0  0  0  0  0  0  0  0
   -5.8212    4.8402  -15.2242 C   0  0  0  0  0  0  0  0  0  0  0  0
   -5.8832    5.0843  -16.6634 N   0  0  0  0  0  0  0  0  0  0  0  0
   -9.5704    5.3277  -17.2751 C   0  0  0  0  0  0  0  0  0  0  0  0
   -9.5989    5.7142  -18.6146 C   0  0  0  0  0  0  0  0  0  0  0  0
   -8.4081    5.8947  -19.3198 C   0  0  0  0  0  0  0  0  0  0  0  0
   -7.1662    5.6949  -18.6861 C   0  0  0  0  0  0  0  0  0  0  0  0
   -5.9509    5.8733  -19.3665 O   0  0  0  0  0  0  0  0  0  0  0  0
   -5.8361    6.2553  -20.7339 C   0  0  0  0  0  0  0  0  0  0  0  0
   -4.3899    6.3266  -21.1028 C   0  0  0  0  0  0  0  0  0  0  0  0
   -3.6443    5.1300  -21.3242 N   0  0  0  0  0  0  0  0  0  0  0  0
   -3.8162    7.4453  -21.1835 O   0  0  0  0  0  0  0  0  0  0  0  0
   -9.1855    4.0519  -14.9402 H   0  0  0  0  0  0  0  0  0  0  0  0
   -8.4483    5.6485  -14.5584 H   0  0  0  0  0  0  0  0  0  0  0  0
   -6.9927    3.0143  -15.2559 H   0  0  0  0  0  0  0  0  0  0  0  0
   -6.9986    3.8784  -13.6746 H   0  0  0  0  0  0  0  0  0  0  0  0
   -5.8116    5.8140  -14.6885 H   0  0  0  0  0  0  0  0  0  0  0  0
   -4.8852    4.2945  -14.9771 H   0  0  0  0  0  0  0  0  0  0  0  0
   -4.9854    5.1195  -17.1965 H   0  0  0  0  0  0  0  0  0  0  0  0
  -10.5033    5.1995  -16.7401 H   0  0  0  0  0  0  0  0  0  0  0  0
  -10.5483    5.8772  -19.1084 H   0  0  0  0  0  0  0  0  0  0  0  0
   -8.4647    6.1937  -20.3574 H   0  0  0  0  0  0  0  0  0  0  0  0
   -6.3131    7.2476  -20.8893 H   0  0  0  0  0  0  0  0  0  0  0  0
   -6.3398    5.5042  -21.3798 H   0  0  0  0  0  0  0  0  0  0  0  0
   -4.1017    4.1952  -21.2388 H   0  0  0  0  0  0  0  0  0  0  0  0
   -2.6306    5.1781  -21.5698 H   0  0  0  0  0  0  0  0  0  0  0  0
  1  2  2  0
  2  3  1  0
  3  4  1  0
  4  5  1  0
  5  6  1  0
  2  7  1  0
  7  8  2  0
  8  9  1  0
  9 10  2  0
 10 11  1  0
 11 12  1  0
 12 13  1  0
 13 14  1  0
 13 15  2  0
  6  1  1  0
  1 10  1  0
  3 16  1  0
  3 17  1  0
  4 18  1  0
  4 19  1  0
  5 20  1  0
  5 21  1  0
  6 22  1  0
  7 23  1  0
  8 24  1  0
  9 25  1  0
 12 26  1  0
 12 27  1  0
 14 28  1  0
 14 29  1  0
A    1
 C1 
A    2
 C2 
A    3
 C3 
A    4
 C4 
A    5
 C5 
A    6
 N1 
A    7
 C6 
A    8
 C7 
A    9
 C8 
A   10
 C9 
A   11
 O1 
A   12
 C10
A   13
 C11
A   14
 N2 
A   15
 O2 
A   16
 H1 
A   17
 H2 
A   18
 H3 
A   19
 H4 
A   20
 H5 
A   21
 H6 
A   22
 H7 
A   23
 H8 
A   24
 H9 
A   25
 H10
A   26
 H11
A   27
 H12
A   28
 H13
A   29
 H14
M  END
>  <ref_pdb>  (313) 
x0051_0B

>  <ref_mols>  (313) 
x0904_0B,x0455_0B

>  <original SMILES>  (313) 
[H]c1c([H])c(OC([H])([H])C(=O)N([H])[H])c2c(c1[H])C([H])([H])C([H])([H])C([H])([H])N2[H]

>  <index>  (313) 
453

>  <∆∆G>  (313) 
-6.231981

>  <∆G_bound>  (313) 
-5.623138

>  <∆G_unbound>  (313) 
0.608843

>  <comRMSD>  (313) 
0.697369

>  <N_constrained_atoms>  (313) 
18.0

>  <N_unconstrained_atoms>  (313) 
0.0

>  <runtime>  (313) 
32.502284

>  <LE>  (313) 
0.346221

>  <percent_hybrid>  (313) 
34.0

>  <dist>  (313) 
6.0

>  <ecfp4>  (313) 
0.138462

>  <daylight>  (313) 
0.152381

>  <topodist>  (313) 
2.0

>  <mces>  (313) 
16.0

>  <tdn>  (313) 
2.0

>  <tup>  (313) 
0.0

>  <rdn>  (313) 
0.0

>  <rup>  (313) 
0.0

>  <ldn>  (313) 
0.0

>  <lup>  (313) 
0.0

>  <mut>  (313) 
0.0

>  <maj>  (313) 
0.0

>  <min>  (313) 
0.0

>  <hyb>  (313) 
4.0

>  <sub>  (313) 
1.0

>  <query_index>  (313) 
160.0

>  <max_hit_Tanimoto>  (313) 
0.288799

>  <largest_ring>  (313) 
6

>  <N_interactions_kept>  (313) 
1.0

>  <N_interactions_lost>  (313) 
2.0

>  <interaction_uniqueness_metric>  (313) 
0.106036

>  <ad_hoc_penalty>  (313) 
-21.253805

>  <N_rotatable_bonds>  (313) 
3

>  <N_HA>  (313) 
15

>  <cluster>  (313) 
5807

>  <N_interactions>  (313) 
6

>  <Enamine>  (313) 
0

>  <Mcule>  (313) 
1

>  <N_PAINS>  (313) 
0

>  <UFF_Gibbs>  (313) 
80.129779

>  <strain_per_HA>  (313) 
4.451654

>  <saltbridge:HIS:51>  (313) 
0

>  <pistack:HIS:51>  (313) 
0

>  <hydroph_interaction:HIS:51>  (313) 
0

>  <hbond:ALA:132>  (313) 
0

>  <hbond:SER:135>  (313) 
0

>  <hydroph_interaction:TYR:150>  (313) 
1

>  <pistack:TYR:161>  (313) 
0

>  <hydroph_interaction:TYR:161>  (313) 
2

>  <hydroph_interaction:ASP:83>  (313) 
0

>  <hbond:TYR:130>  (313) 
0

>  <hydroph_interaction:ALA:132>  (313) 
1

>  <hbond:HIS:51>  (313) 
0

>  <hbond:ASP:129>  (313) 
2

>  <hbond:TYR:150>  (313) 
0

>  <hbond:GLY:151>  (313) 
0

>  <hbond:TYR:161>  (313) 
0

>  <hydroph_interaction:TYR:130>  (313) 
0

>  <hydroph_interaction:PRO:131>  (313) 
0

>  <hydroph_interaction:ASP:129>  (313) 
0

>  <saltbridge:ASP:75>  (313) 
0

>  <saltbridge:ASP:83>  (313) 
0

>  <hydroph_interaction:ASN:152>  (313) 
0

>  <halogenbond:TYR:150>  (313) 
0

>  <hbond:ASP:83>  (313) 
0

>  <hydroph_interaction:VAL:155>  (313) 
0

>  <pication:TYR:161>  (313) 
0

>  <hbond:PRO:131>  (313) 
0

>  <hbond:LEU:128>  (313) 
0

>  <saltbridge:ASP:129>  (313) 
0

>  <hbond:THR:134>  (313) 
0

>  <pication:HIS:51>  (313) 
0

>  <hbond:SER:81>  (313) 
0

>  <hbond:GLY:159>  (313) 
0

>  <hydroph_interaction:PRO:101>  (313) 
0

>  <hydroph_interaction:THR:134>  (313) 
0

>  <hbond:GLY:82>  (313) 
0

>  <hydroph_interaction:GLU:104>  (313) 
0

>  <hydroph_interaction:VAL:36>  (313) 
0

>  <hydroph_interaction:MET:49>  (313) 
0

>  <halogenbond:GLU:104>  (313) 
0

>  <hydroph_interaction:LYS:107>  (313) 
0

$$$$
AGMJXXWYKUZLMT-UHFFFAOYSA-N
     RDKit          3D

 39 40  0  0  0  0  0  0  0  0999 V2000
   -5.5098    5.5841  -17.6833 C   0  0  0  0  0  0  0  0  0  0  0  0
   -4.8207    6.0407  -16.5032 N   0  0  0  0  0  0  0  0  0  0  0  0
   -5.3428    7.1814  -15.7204 C   0  0  0  0  0  0  0  0  0  0  0  0
   -5.4392    8.4667  -16.5749 C   0  0  0  0  0  0  0  0  0  0  0  0
   -4.1416    8.8375  -17.2984 C   0  0  0  0  0  0  0  0  0  0  0  0
   -4.5172    7.4039  -14.4345 C   0  0  0  0  0  0  0  0  0  0  0  0
   -4.2576    6.0636  -13.7408 C   0  0  0  0  0  0  0  0  0  0  0  0
   -3.5124    5.0599  -14.6478 C   0  0  0  0  0  0  0  0  0  0  0  0
   -3.5323    5.4380  -16.1388 C   0  0  0  0  0  0  0  0  0  0  0  0
   -4.8490    5.3030  -18.7200 O   0  0  0  0  0  0  0  0  0  0  0  0
   -6.9820    5.4535  -17.7101 C   0  0  0  0  0  0  0  0  0  0  0  0
   -7.6772    4.8517  -16.6392 C   0  0  0  0  0  0  0  0  0  0  0  0
   -6.9465    4.3389  -15.5541 O   0  0  0  0  0  0  0  0  0  0  0  0
   -7.5240    3.7305  -14.4043 C   0  0  0  0  0  0  0  0  0  0  0  0
   -9.0828    4.7637  -16.6942 C   0  0  0  0  0  0  0  0  0  0  0  0
   -9.7784    5.2452  -17.8055 C   0  0  0  0  0  0  0  0  0  0  0  0
   -9.0849    5.8142  -18.8736 C   0  0  0  0  0  0  0  0  0  0  0  0
   -7.6933    5.9142  -18.8300 C   0  0  0  0  0  0  0  0  0  0  0  0
   -6.3741    6.9378  -15.3859 H   0  0  0  0  0  0  0  0  0  0  0  0
   -6.2364    8.3329  -17.3376 H   0  0  0  0  0  0  0  0  0  0  0  0
   -5.7492    9.3176  -15.9301 H   0  0  0  0  0  0  0  0  0  0  0  0
   -4.3153    9.7426  -17.9176 H   0  0  0  0  0  0  0  0  0  0  0  0
   -3.3317    9.0677  -16.5774 H   0  0  0  0  0  0  0  0  0  0  0  0
   -3.8153    8.0178  -17.9714 H   0  0  0  0  0  0  0  0  0  0  0  0
   -5.0727    8.0752  -13.7439 H   0  0  0  0  0  0  0  0  0  0  0  0
   -3.5400    7.8802  -14.6582 H   0  0  0  0  0  0  0  0  0  0  0  0
   -3.6675    6.2379  -12.8151 H   0  0  0  0  0  0  0  0  0  0  0  0
   -5.2330    5.6278  -13.4316 H   0  0  0  0  0  0  0  0  0  0  0  0
   -3.9740    4.0558  -14.5235 H   0  0  0  0  0  0  0  0  0  0  0  0
   -2.4537    4.9775  -14.3188 H   0  0  0  0  0  0  0  0  0  0  0  0
   -2.7202    6.1672  -16.3495 H   0  0  0  0  0  0  0  0  0  0  0  0
   -3.3309    4.5260  -16.7429 H   0  0  0  0  0  0  0  0  0  0  0  0
   -8.1843    4.4543  -13.8816 H   0  0  0  0  0  0  0  0  0  0  0  0
   -8.0996    2.8275  -14.6980 H   0  0  0  0  0  0  0  0  0  0  0  0
   -6.7136    3.4245  -13.7116 H   0  0  0  0  0  0  0  0  0  0  0  0
   -9.6467    4.3163  -15.8873 H   0  0  0  0  0  0  0  0  0  0  0  0
  -10.8577    5.1707  -17.8414 H   0  0  0  0  0  0  0  0  0  0  0  0
   -9.6267    6.1815  -19.7356 H   0  0  0  0  0  0  0  0  0  0  0  0
   -7.1708    6.3685  -19.6631 H   0  0  0  0  0  0  0  0  0  0  0  0
  1  2  1  0
  2  3  1  0
  3  4  1  0
  4  5  1  0
  3  6  1  0
  6  7  1  0
  7  8  1  0
  8  9  1  0
  1 10  2  0
  1 11  1  0
 11 12  2  0
 12 13  1  0
 13 14  1  0
 12 15  1  0
 15 16  2  0
 16 17  1  0
 17 18  2  0
  9  2  1  0
 18 11  1  0
  3 19  1  0
  4 20  1  0
  4 21  1  0
  5 22  1  0
  5 23  1  0
  5 24  1  0
  6 25  1  0
  6 26  1  0
  7 27  1  0
  7 28  1  0
  8 29  1  0
  8 30  1  0
  9 31  1  0
  9 32  1  0
 14 33  1  0
 14 34  1  0
 14 35  1  0
 15 36  1  0
 16 37  1  0
 17 38  1  0
 18 39  1  0
A    1
 C1 
A    2
 N1 
A    3
 C2 
A    4
 C3 
A    5
 C4 
A    6
 C5 
A    7
 C6 
A    8
 C7 
A    9
 C8 
A   10
 O1 
A   11
 C9 
A   12
 C10
A   13
 O2 
A   14
 C11
A   15
 C12
A   16
 C13
A   17
 C14
A   18
 C15
A   19
 H1 
A   20
 H2 
A   21
 H3 
A   22
 H4 
A   23
 H5 
A   24
 H6 
A   25
 H7 
A   26
 H8 
A   27
 H9 
A   28
 H10
A   29
 H11
A   30
 H12
A   31
 H13
A   32
 H14
A   33
 H15
A   34
 H16
A   35
 H17
A   36
 H18
A   37
 H19
A   38
 H20
A   39
 H21
M  END
>  <ref_pdb>  (314) 
x0051_0B

>  <ref_mols>  (314) 
x0429_0B,x0472_0B

>  <original SMILES>  (314) 
[H]c1c([H])c([H])c(C(=O)N2C([H])([H])C([H])([H])C([H])([H])C([H])([H])C2([H])C([H])([H])C([H])([H])[H])c(OC([H])([H])[H])c1[H]

>  <index>  (314) 
236

>  <∆∆G>  (314) 
-6.925445

>  <∆G_bound>  (314) 
-6.213284

>  <∆G_unbound>  (314) 
0.712161

>  <comRMSD>  (314) 
0.899727

>  <N_constrained_atoms>  (314) 
18.0

>  <N_unconstrained_atoms>  (314) 
3.0

>  <runtime>  (314) 
36.849491

>  <LE>  (314) 
0.329783

>  <percent_hybrid>  (314) 
38.0

>  <dist>  (314) 
6.0

>  <ecfp4>  (314) 
0.138889

>  <daylight>  (314) 
0.144231

>  <topodist>  (314) 
2.0

>  <mces>  (314) 
19.0

>  <tdn>  (314) 
0.0

>  <tup>  (314) 
0.0

>  <rdn>  (314) 
2.0

>  <rup>  (314) 
0.0

>  <ldn>  (314) 
0.0

>  <lup>  (314) 
0.0

>  <mut>  (314) 
3.0

>  <maj>  (314) 
3.0

>  <min>  (314) 
0.0

>  <hyb>  (314) 
1.0

>  <sub>  (314) 
1.0

>  <query_index>  (314) 
189.0

>  <max_hit_Tanimoto>  (314) 
0.230409

>  <largest_ring>  (314) 
6

>  <N_interactions_kept>  (314) 
3.0

>  <N_interactions_lost>  (314) 
0.5

>  <interaction_uniqueness_metric>  (314) 
0.053763

>  <ad_hoc_penalty>  (314) 
-21.23909

>  <N_rotatable_bonds>  (314) 
5

>  <N_HA>  (314) 
18

>  <cluster>  (314) 
6004

>  <N_interactions>  (314) 
5

>  <Enamine>  (314) 
0

>  <Mcule>  (314) 
1

>  <N_PAINS>  (314) 
0

>  <UFF_Gibbs>  (314) 
166.801078

>  <strain_per_HA>  (314) 
7.942908

>  <saltbridge:HIS:51>  (314) 
0

>  <pistack:HIS:51>  (314) 
0

>  <hydroph_interaction:HIS:51>  (314) 
0

>  <hbond:ALA:132>  (314) 
0

>  <hbond:SER:135>  (314) 
0

>  <hydroph_interaction:TYR:150>  (314) 
1

>  <pistack:TYR:161>  (314) 
0

>  <hydroph_interaction:TYR:161>  (314) 
3

>  <hydroph_interaction:ASP:83>  (314) 
0

>  <hbond:TYR:130>  (314) 
0

>  <hydroph_interaction:ALA:132>  (314) 
1

>  <hbond:HIS:51>  (314) 
0

>  <hbond:ASP:129>  (314) 
0

>  <hbond:TYR:150>  (314) 
0

>  <hbond:GLY:151>  (314) 
0

>  <hbond:TYR:161>  (314) 
0

>  <hydroph_interaction:TYR:130>  (314) 
0

>  <hydroph_interaction:PRO:131>  (314) 
0

>  <hydroph_interaction:ASP:129>  (314) 
0

>  <saltbridge:ASP:75>  (314) 
0

>  <saltbridge:ASP:83>  (314) 
0

>  <hydroph_interaction:ASN:152>  (314) 
0

>  <halogenbond:TYR:150>  (314) 
0

>  <hbond:ASP:83>  (314) 
0

>  <hydroph_interaction:VAL:155>  (314) 
0

>  <pication:TYR:161>  (314) 
0

>  <hbond:PRO:131>  (314) 
0

>  <hbond:LEU:128>  (314) 
0

>  <saltbridge:ASP:129>  (314) 
0

>  <hbond:THR:134>  (314) 
0

>  <pication:HIS:51>  (314) 
0

>  <hbond:SER:81>  (314) 
0

>  <hbond:GLY:159>  (314) 
0

>  <hydroph_interaction:PRO:101>  (314) 
0

>  <hydroph_interaction:THR:134>  (314) 
0

>  <hbond:GLY:82>  (314) 
0

>  <hydroph_interaction:GLU:104>  (314) 
0

>  <hydroph_interaction:VAL:36>  (314) 
0

>  <hydroph_interaction:MET:49>  (314) 
0

>  <halogenbond:GLU:104>  (314) 
0

>  <hydroph_interaction:LYS:107>  (314) 
0

$$$$
IWGCXBFYKUKGSK-UHFFFAOYSA-N
     RDKit          3D

 46 50  0  0  0  0  0  0  0  0999 V2000
   -6.8645    8.7939  -24.3524 C   0  0  0  0  0  0  0  0  0  0  0  0
   -6.8412    8.1965  -25.6586 N   0  0  0  0  0  0  0  0  0  0  0  0
   -7.7741    8.5230  -26.6977 C   0  0  0  0  0  0  0  0  0  0  0  0
   -7.5194    8.2611  -28.0074 N   0  0  0  0  0  0  0  0  0  0  0  0
   -8.6402    8.6884  -28.6159 C   0  0  0  0  0  0  0  0  0  0  0  0
   -9.5246    9.1750  -27.6984 C   0  0  0  0  0  0  0  0  0  0  0  0
  -10.7637    9.6959  -28.0649 C   0  0  0  0  0  0  0  0  0  0  0  0
  -11.0809    9.7132  -29.4361 C   0  0  0  0  0  0  0  0  0  0  0  0
  -10.1634    9.2132  -30.3893 C   0  0  0  0  0  0  0  0  0  0  0  0
   -8.9225    8.6894  -29.9795 C   0  0  0  0  0  0  0  0  0  0  0  0
   -8.9940    9.0767  -26.4729 N   0  0  0  0  0  0  0  0  0  0  0  0
   -7.4159    9.9166  -24.1874 O   0  0  0  0  0  0  0  0  0  0  0  0
   -6.1984    8.1322  -23.2043 C   0  0  0  0  0  0  0  0  0  0  0  0
   -5.9402    6.7497  -23.2186 C   0  0  0  0  0  0  0  0  0  0  0  0
   -5.3162    6.1335  -22.1295 C   0  0  0  0  0  0  0  0  0  0  0  0
   -4.9328    6.8876  -21.0108 C   0  0  0  0  0  0  0  0  0  0  0  0
   -4.2947    6.2181  -19.8243 C   0  0  0  0  0  0  0  0  0  0  0  0
   -5.3028    5.9271  -18.8079 N   0  0  0  0  0  0  0  0  0  0  0  0
   -5.7670    6.8220  -17.7925 C   0  0  0  0  0  0  0  0  0  0  0  0
   -5.1672    7.8743  -17.4451 O   0  0  0  0  0  0  0  0  0  0  0  0
   -7.0240    6.3373  -17.2335 C   0  0  0  0  0  0  0  0  0  0  0  0
   -7.3548    5.1742  -17.8970 C   0  0  0  0  0  0  0  0  0  0  0  0
   -8.5197    4.4705  -17.5974 C   0  0  0  0  0  0  0  0  0  0  0  0
   -9.3582    4.9804  -16.5885 C   0  0  0  0  0  0  0  0  0  0  0  0
   -9.0184    6.1701  -15.9086 C   0  0  0  0  0  0  0  0  0  0  0  0
   -7.8388    6.8642  -16.2320 C   0  0  0  0  0  0  0  0  0  0  0  0
   -6.3104    4.9143  -18.8819 C   0  0  0  0  0  0  0  0  0  0  0  0
   -6.2928    3.9541  -19.6968 O   0  0  0  0  0  0  0  0  0  0  0  0
   -5.2084    8.2621  -20.9827 C   0  0  0  0  0  0  0  0  0  0  0  0
   -5.8354    8.8793  -22.0688 C   0  0  0  0  0  0  0  0  0  0  0  0
   -6.0582    7.5484  -25.9001 H   0  0  0  0  0  0  0  0  0  0  0  0
  -11.4511   10.0871  -27.3252 H   0  0  0  0  0  0  0  0  0  0  0  0
  -12.0282   10.1211  -29.7633 H   0  0  0  0  0  0  0  0  0  0  0  0
  -10.4126    9.2415  -31.4419 H   0  0  0  0  0  0  0  0  0  0  0  0
   -8.2074    8.3160  -30.7007 H   0  0  0  0  0  0  0  0  0  0  0  0
   -9.4383    9.3422  -25.5657 H   0  0  0  0  0  0  0  0  0  0  0  0
   -6.2390    6.1362  -24.0597 H   0  0  0  0  0  0  0  0  0  0  0  0
   -5.1372    5.0660  -22.1583 H   0  0  0  0  0  0  0  0  0  0  0  0
   -3.5070    6.8744  -19.3949 H   0  0  0  0  0  0  0  0  0  0  0  0
   -3.7964    5.2730  -20.1318 H   0  0  0  0  0  0  0  0  0  0  0  0
   -8.7763    3.5633  -18.1303 H   0  0  0  0  0  0  0  0  0  0  0  0
  -10.2706    4.4574  -16.3334 H   0  0  0  0  0  0  0  0  0  0  0  0
   -9.6717    6.5536  -15.1365 H   0  0  0  0  0  0  0  0  0  0  0  0
   -7.5736    7.7794  -15.7201 H   0  0  0  0  0  0  0  0  0  0  0  0
   -4.9380    8.8564  -20.1194 H   0  0  0  0  0  0  0  0  0  0  0  0
   -6.0289    9.9437  -22.0231 H   0  0  0  0  0  0  0  0  0  0  0  0
  1  2  1  0
  2  3  1  0
  3  4  2  0
  4  5  1  0
  5  6  2  0
  6  7  1  0
  7  8  2  0
  8  9  1  0
  9 10  2  0
  6 11  1  0
  1 12  2  0
  1 13  1  0
 13 14  2  0
 14 15  1  0
 15 16  2  0
 16 17  1  0
 17 18  1  0
 18 19  1  0
 19 20  2  0
 19 21  1  0
 21 22  2  0
 22 23  1  0
 23 24  2  0
 24 25  1  0
 25 26  2  0
 22 27  1  0
 27 28  2  0
 16 29  1  0
 29 30  2  0
 11  3  1  0
 10  5  1  0
 30 13  1  0
 27 18  1  0
 26 21  1  0
  2 31  1  0
  7 32  1  0
  8 33  1  0
  9 34  1  0
 10 35  1  0
 11 36  1  0
 14 37  1  0
 15 38  1  0
 17 39  1  0
 17 40  1  0
 23 41  1  0
 24 42  1  0
 25 43  1  0
 26 44  1  0
 29 45  1  0
 30 46  1  0
A    1
 C1 
A    2
 N1 
A    3
 C2 
A    4
 N2 
A    5
 C3 
A    6
 C4 
A    7
 C5 
A    8
 C6 
A    9
 C7 
A   10
 C8 
A   11
 N3 
A   12
 O1 
A   13
 C9 
A   14
 C10
A   15
 C11
A   16
 C12
A   17
 C13
A   18
 N4 
A   19
 C14
A   20
 O2 
A   21
 C15
A   22
 C16
A   23
 C17
A   24
 C18
A   25
 C19
A   26
 C20
A   27
 C21
A   28
 O3 
A   29
 C22
A   30
 C23
A   31
 H1 
A   32
 H2 
A   33
 H3 
A   34
 H4 
A   35
 H5 
A   36
 H6 
A   37
 H7 
A   38
 H8 
A   39
 H9 
A   40
 H10
A   41
 H11
A   42
 H12
A   43
 H13
A   44
 H14
A   45
 H15
A   46
 H16
M  END
>  <ref_pdb>  (315) 
x0051_0B

>  <ref_mols>  (315) 
x0727_0B,x0846_1B

>  <original SMILES>  (315) 
[H]c1c([H])c([H])c2c(c1[H])C(=O)N(C([H])([H])c1c([H])c([H])c(C(=O)N([H])c3nc4c([H])c([H])c([H])c([H])c4n3[H])c([H])c1[H])C2=O

>  <index>  (315) 
459

>  <∆∆G>  (315) 
-9.911236

>  <∆G_bound>  (315) 
-9.138984

>  <∆G_unbound>  (315) 
0.772252

>  <comRMSD>  (315) 
0.590801

>  <N_constrained_atoms>  (315) 
29.0

>  <N_unconstrained_atoms>  (315) 
2.0

>  <runtime>  (315) 
48.536735

>  <LE>  (315) 
0.319717

>  <percent_hybrid>  (315) 
38.0

>  <dist>  (315) 
9.0

>  <ecfp4>  (315) 
0.268293

>  <daylight>  (315) 
0.368421

>  <topodist>  (315) 
6.0

>  <mces>  (315) 
32.0

>  <tdn>  (315) 
2.0

>  <tup>  (315) 
2.0

>  <rdn>  (315) 
0.0

>  <rup>  (315) 
0.0

>  <ldn>  (315) 
2.0

>  <lup>  (315) 
0.0

>  <mut>  (315) 
2.0

>  <maj>  (315) 
2.0

>  <min>  (315) 
0.0

>  <hyb>  (315) 
1.0

>  <sub>  (315) 
2.0

>  <query_index>  (315) 
15.0

>  <max_hit_Tanimoto>  (315) 
0.472803

>  <largest_ring>  (315) 
6

>  <N_interactions_kept>  (315) 
0.5

>  <N_interactions_lost>  (315) 
2.5

>  <interaction_uniqueness_metric>  (315) 
0.1581

>  <ad_hoc_penalty>  (315) 
-21.204419

>  <N_rotatable_bonds>  (315) 
4

>  <N_HA>  (315) 
30

>  <cluster>  (315) 
5801

>  <N_interactions>  (315) 
5

>  <Enamine>  (315) 
0

>  <Mcule>  (315) 
1

>  <N_PAINS>  (315) 
0

>  <UFF_Gibbs>  (315) 
153.887031

>  <strain_per_HA>  (315) 
4.964098

>  <saltbridge:HIS:51>  (315) 
0

>  <pistack:HIS:51>  (315) 
0

>  <hydroph_interaction:HIS:51>  (315) 
0

>  <hbond:ALA:132>  (315) 
0

>  <hbond:SER:135>  (315) 
0

>  <hydroph_interaction:TYR:150>  (315) 
1

>  <pistack:TYR:161>  (315) 
1

>  <hydroph_interaction:TYR:161>  (315) 
0

>  <hydroph_interaction:ASP:83>  (315) 
0

>  <hbond:TYR:130>  (315) 
1

>  <hydroph_interaction:ALA:132>  (315) 
0

>  <hbond:HIS:51>  (315) 
0

>  <hbond:ASP:129>  (315) 
0

>  <hbond:TYR:150>  (315) 
0

>  <hbond:GLY:151>  (315) 
0

>  <hbond:TYR:161>  (315) 
0

>  <hydroph_interaction:TYR:130>  (315) 
1

>  <hydroph_interaction:PRO:131>  (315) 
1

>  <hydroph_interaction:ASP:129>  (315) 
0

>  <saltbridge:ASP:75>  (315) 
0

>  <saltbridge:ASP:83>  (315) 
0

>  <hydroph_interaction:ASN:152>  (315) 
0

>  <halogenbond:TYR:150>  (315) 
0

>  <hbond:ASP:83>  (315) 
0

>  <hydroph_interaction:VAL:155>  (315) 
0

>  <pication:TYR:161>  (315) 
0

>  <hbond:PRO:131>  (315) 
0

>  <hbond:LEU:128>  (315) 
0

>  <saltbridge:ASP:129>  (315) 
0

>  <hbond:THR:134>  (315) 
0

>  <pication:HIS:51>  (315) 
0

>  <hbond:SER:81>  (315) 
0

>  <hbond:GLY:159>  (315) 
0

>  <hydroph_interaction:PRO:101>  (315) 
0

>  <hydroph_interaction:THR:134>  (315) 
0

>  <hbond:GLY:82>  (315) 
0

>  <hydroph_interaction:GLU:104>  (315) 
0

>  <hydroph_interaction:VAL:36>  (315) 
0

>  <hydroph_interaction:MET:49>  (315) 
0

>  <halogenbond:GLU:104>  (315) 
0

>  <hydroph_interaction:LYS:107>  (315) 
0

$$$$
MCULE-2971795523
     RDKit          3D

 44 46  0  0  0  0  0  0  0  0999 V2000
   -8.4809    5.6728  -14.4152 C   0  0  0  0  0  0  0  0  0  0  0  0
   -8.5687    5.3867  -12.9625 C   0  0  0  0  0  0  0  0  0  0  0  0
   -9.0612    6.3628  -12.0784 C   0  0  0  0  0  0  0  0  0  0  0  0
   -9.1434    6.1033  -10.7077 C   0  0  0  0  0  0  0  0  0  0  0  0
   -8.7257    4.8670  -10.1913 C   0  0  0  0  0  0  0  0  0  0  0  0
   -8.8231    4.5953   -8.7810 N   0  0  0  0  0  0  0  0  0  0  0  0
   -9.5361    3.4003   -8.3156 C   0  0  0  0  0  0  0  0  0  0  0  0
   -9.5888    3.3494   -6.7798 C   0  0  0  0  0  0  0  0  0  0  0  0
  -10.0289    4.6320   -6.1795 N   0  0  0  0  0  0  0  0  0  0  0  0
  -11.4969    4.7251   -6.1257 C   0  0  0  0  0  0  0  0  0  0  0  0
   -9.4293    5.8537   -6.7834 C   0  0  0  0  0  0  0  0  0  0  0  0
   -8.3169    5.5497   -7.7915 C   0  0  0  0  0  0  0  0  0  0  0  0
   -8.2283    3.8930  -11.0699 C   0  0  0  0  0  0  0  0  0  0  0  0
   -8.1453    4.1510  -12.4412 C   0  0  0  0  0  0  0  0  0  0  0  0
   -8.5050    6.8698  -14.8138 O   0  0  0  0  0  0  0  0  0  0  0  0
   -8.4151    4.6047  -15.3756 N   0  0  0  0  0  0  0  0  0  0  0  0
   -7.9610    4.7872  -16.7307 C   0  0  0  0  0  0  0  0  0  0  0  0
   -6.9001    5.6685  -17.0129 C   0  0  0  0  0  0  0  0  0  0  0  0
   -6.4395    5.8288  -18.3221 C   0  0  0  0  0  0  0  0  0  0  0  0
   -7.0229    5.1059  -19.3631 C   0  0  0  0  0  0  0  0  0  0  0  0
   -8.0659    4.2163  -19.0982 C   0  0  0  0  0  0  0  0  0  0  0  0
   -8.5362    4.0471  -17.7882 C   0  0  0  0  0  0  0  0  0  0  0  0
   -9.6256    3.1311  -17.5538 C   0  0  0  0  0  0  0  0  0  0  0  0
  -10.4996    2.3962  -17.3659 N   0  0  0  0  0  0  0  0  0  0  0  0
   -9.3974    7.3235  -12.4483 H   0  0  0  0  0  0  0  0  0  0  0  0
   -9.5508    6.8613  -10.0509 H   0  0  0  0  0  0  0  0  0  0  0  0
  -10.5708    3.4091   -8.7206 H   0  0  0  0  0  0  0  0  0  0  0  0
   -9.0250    2.4855   -8.6827 H   0  0  0  0  0  0  0  0  0  0  0  0
   -8.5741    3.1094   -6.3945 H   0  0  0  0  0  0  0  0  0  0  0  0
  -10.2433    2.5086   -6.4591 H   0  0  0  0  0  0  0  0  0  0  0  0
  -11.9164    3.8750   -5.5463 H   0  0  0  0  0  0  0  0  0  0  0  0
  -11.9345    4.7227   -7.1481 H   0  0  0  0  0  0  0  0  0  0  0  0
  -11.8006    5.6580   -5.6034 H   0  0  0  0  0  0  0  0  0  0  0  0
   -9.0097    6.4810   -5.9687 H   0  0  0  0  0  0  0  0  0  0  0  0
  -10.1944    6.4701   -7.3095 H   0  0  0  0  0  0  0  0  0  0  0  0
   -7.4428    5.1075   -7.2666 H   0  0  0  0  0  0  0  0  0  0  0  0
   -7.9732    6.4923   -8.2696 H   0  0  0  0  0  0  0  0  0  0  0  0
   -7.8834    2.9393  -10.6927 H   0  0  0  0  0  0  0  0  0  0  0  0
   -7.7284    3.3881  -13.0854 H   0  0  0  0  0  0  0  0  0  0  0  0
   -8.8030    3.6746  -15.1021 H   0  0  0  0  0  0  0  0  0  0  0  0
   -6.4131    6.2175  -16.2176 H   0  0  0  0  0  0  0  0  0  0  0  0
   -5.6232    6.5090  -18.5283 H   0  0  0  0  0  0  0  0  0  0  0  0
   -6.6630    5.2313  -20.3763 H   0  0  0  0  0  0  0  0  0  0  0  0
   -8.5075    3.6596  -19.9163 H   0  0  0  0  0  0  0  0  0  0  0  0
  1  2  1  0
  2  3  2  0
  3  4  1  0
  4  5  2  0
  5  6  1  0
  6  7  1  0
  7  8  1  0
  8  9  1  0
  9 10  1  0
  9 11  1  0
 11 12  1  0
  5 13  1  0
 13 14  2  0
  1 15  2  0
  1 16  1  0
 16 17  1  0
 17 18  2  0
 18 19  1  0
 19 20  2  0
 20 21  1  0
 21 22  2  0
 22 23  1  0
 23 24  3  0
  2 14  1  0
 12  6  1  0
 17 22  1  0
  3 25  1  0
  4 26  1  0
  7 27  1  0
  7 28  1  0
  8 29  1  0
  8 30  1  0
 10 31  1  0
 10 32  1  0
 10 33  1  0
 11 34  1  0
 11 35  1  0
 12 36  1  0
 12 37  1  0
 13 38  1  0
 14 39  1  0
 16 40  1  0
 18 41  1  0
 19 42  1  0
 20 43  1  0
 21 44  1  0
A    1
 C1 
A    2
 C2 
A    3
 C3 
A    4
 C4 
A    5
 C5 
A    6
 N1 
A    7
 C6 
A    8
 C7 
A    9
 N2 
A   10
 C8 
A   11
 C9 
A   12
 C10
A   13
 C11
A   14
 C12
A   15
 O1 
A   16
 N3 
A   17
 C13
A   18
 C14
A   19
 C15
A   20
 C16
A   21
 C17
A   22
 C18
A   23
 C19
A   24
 N4 
A   25
 H1 
A   26
 H2 
A   27
 H3 
A   28
 H4 
A   29
 H5 
A   30
 H6 
A   31
 H7 
A   32
 H8 
A   33
 H9 
A   34
 H10
A   35
 H11
A   36
 H12
A   37
 H13
A   38
 H14
A   39
 H15
A   40
 H16
A   41
 H17
A   42
 H18
A   43
 H19
A   44
 H20
M  END
>  <ref_pdb>  (316) 
x0051_0B

>  <ref_mols>  (316) 
x0605_0B,x0404_0B

>  <original SMILES>  (316) 
[H]c1c([H])c([H])c(N([H])C(=O)c2c([H])c([H])c(N3C([H])([H])C([H])([H])N(C([H])([H])[H])C([H])([H])C3([H])[H])c([H])c2[H])c(C#N)c1[H]

>  <index>  (316) 
514

>  <∆∆G>  (316) 
-5.908171

>  <∆G_bound>  (316) 
-5.375887

>  <∆G_unbound>  (316) 
0.532284

>  <comRMSD>  (316) 
0.673544

>  <N_constrained_atoms>  (316) 
24.0

>  <N_unconstrained_atoms>  (316) 
1.0

>  <runtime>  (316) 
104.077845

>  <LE>  (316) 
0.236327

>  <percent_hybrid>  (316) 
38.0

>  <dist>  (316) 
8.0

>  <ecfp4>  (316) 
0.182927

>  <daylight>  (316) 
0.258427

>  <topodist>  (316) 
4.0

>  <mces>  (316) 
25.0

>  <tdn>  (316) 
2.0

>  <tup>  (316) 
1.0

>  <rdn>  (316) 
0.0

>  <rup>  (316) 
0.0

>  <ldn>  (316) 
1.0

>  <lup>  (316) 
0.0

>  <mut>  (316) 
2.0

>  <maj>  (316) 
2.0

>  <min>  (316) 
0.0

>  <hyb>  (316) 
2.0

>  <sub>  (316) 
2.0

>  <query_index>  (316) 
27.0

>  <max_hit_Tanimoto>  (316) 
0.310078

>  <largest_ring>  (316) 
6

>  <N_interactions_kept>  (316) 
1.5

>  <N_interactions_lost>  (316) 
2.5

>  <interaction_uniqueness_metric>  (316) 
0.362563

>  <ad_hoc_penalty>  (316) 
-21.195409

>  <N_rotatable_bonds>  (316) 
4

>  <N_HA>  (316) 
24

>  <cluster>  (316) 
5750

>  <N_interactions>  (316) 
7

>  <Enamine>  (316) 
0

>  <Mcule>  (316) 
1

>  <N_PAINS>  (316) 
0

>  <UFF_Gibbs>  (316) 
159.760895

>  <strain_per_HA>  (316) 
6.390436

>  <saltbridge:HIS:51>  (316) 
0

>  <pistack:HIS:51>  (316) 
1

>  <hydroph_interaction:HIS:51>  (316) 
1

>  <hbond:ALA:132>  (316) 
0

>  <hbond:SER:135>  (316) 
0

>  <hydroph_interaction:TYR:150>  (316) 
0

>  <pistack:TYR:161>  (316) 
1

>  <hydroph_interaction:TYR:161>  (316) 
1

>  <hydroph_interaction:ASP:83>  (316) 
0

>  <hbond:TYR:130>  (316) 
0

>  <hydroph_interaction:ALA:132>  (316) 
0

>  <hbond:HIS:51>  (316) 
0

>  <hbond:ASP:129>  (316) 
0

>  <hbond:TYR:150>  (316) 
0

>  <hbond:GLY:151>  (316) 
1

>  <hbond:TYR:161>  (316) 
0

>  <hydroph_interaction:TYR:130>  (316) 
0

>  <hydroph_interaction:PRO:131>  (316) 
0

>  <hydroph_interaction:ASP:129>  (316) 
0

>  <saltbridge:ASP:75>  (316) 
1

>  <saltbridge:ASP:83>  (316) 
1

>  <hydroph_interaction:ASN:152>  (316) 
0

>  <halogenbond:TYR:150>  (316) 
0

>  <hbond:ASP:83>  (316) 
0

>  <hydroph_interaction:VAL:155>  (316) 
0

>  <pication:TYR:161>  (316) 
0

>  <hbond:PRO:131>  (316) 
0

>  <hbond:LEU:128>  (316) 
0

>  <saltbridge:ASP:129>  (316) 
0

>  <hbond:THR:134>  (316) 
0

>  <pication:HIS:51>  (316) 
0

>  <hbond:SER:81>  (316) 
0

>  <hbond:GLY:159>  (316) 
0

>  <hydroph_interaction:PRO:101>  (316) 
0

>  <hydroph_interaction:THR:134>  (316) 
0

>  <hbond:GLY:82>  (316) 
0

>  <hydroph_interaction:GLU:104>  (316) 
0

>  <hydroph_interaction:VAL:36>  (316) 
0

>  <hydroph_interaction:MET:49>  (316) 
0

>  <halogenbond:GLU:104>  (316) 
0

>  <hydroph_interaction:LYS:107>  (316) 
0

$$$$
MCULE-1964690009
     RDKit          3D

 49 52  0  0  0  0  0  0  0  0999 V2000
   -9.6678    4.4343  -20.0389 C   0  0  0  0  0  0  0  0  0  0  0  0
  -10.9295    4.1132  -19.8515 O   0  0  0  0  0  0  0  0  0  0  0  0
  -11.4831    3.8881  -21.0197 C   0  0  0  0  0  0  0  0  0  0  0  0
  -12.9063    3.4840  -21.2083 C   0  0  0  0  0  0  0  0  0  0  0  0
  -10.5568    4.0603  -22.0266 C   0  0  0  0  0  0  0  0  0  0  0  0
   -9.3828    4.4151  -21.3969 C   0  0  0  0  0  0  0  0  0  0  0  0
   -8.7344    4.7575  -18.9341 C   0  0  0  0  0  0  0  0  0  0  0  0
   -9.1953    4.7281  -17.6058 C   0  0  0  0  0  0  0  0  0  0  0  0
   -8.3393    5.0411  -16.5382 C   0  0  0  0  0  0  0  0  0  0  0  0
   -8.8390    4.9797  -15.1908 N   0  0  0  0  0  0  0  0  0  0  0  0
   -8.3488    5.8035  -14.1191 C   0  0  0  0  0  0  0  0  0  0  0  0
   -8.5711    5.4211  -12.7031 C   0  0  0  0  0  0  0  0  0  0  0  0
   -8.4736    6.3829  -11.6873 C   0  0  0  0  0  0  0  0  0  0  0  0
   -8.6757    6.0329  -10.3498 C   0  0  0  0  0  0  0  0  0  0  0  0
   -8.9730    4.7011   -9.9786 C   0  0  0  0  0  0  0  0  0  0  0  0
   -9.1840    4.3321   -8.5801 N   0  0  0  0  0  0  0  0  0  0  0  0
   -9.5688    2.9437   -8.2475 C   0  0  0  0  0  0  0  0  0  0  0  0
   -9.6804    2.6814   -6.7431 C   0  0  0  0  0  0  0  0  0  0  0  0
  -10.2413    3.7876   -6.0780 O   0  0  0  0  0  0  0  0  0  0  0  0
   -9.3132    4.8449   -6.1171 C   0  0  0  0  0  0  0  0  0  0  0  0
   -9.1550    5.3842   -7.5414 C   0  0  0  0  0  0  0  0  0  0  0  0
   -9.0640    3.7410  -11.0131 C   0  0  0  0  0  0  0  0  0  0  0  0
   -8.8622    4.0955  -12.3497 C   0  0  0  0  0  0  0  0  0  0  0  0
   -7.7598    6.8874  -14.3840 O   0  0  0  0  0  0  0  0  0  0  0  0
   -6.9958    5.3536  -16.8062 C   0  0  0  0  0  0  0  0  0  0  0  0
   -6.5295    5.3844  -18.1215 C   0  0  0  0  0  0  0  0  0  0  0  0
   -7.3910    5.0931  -19.1814 C   0  0  0  0  0  0  0  0  0  0  0  0
  -13.3841    4.1340  -21.9709 H   0  0  0  0  0  0  0  0  0  0  0  0
  -12.9510    2.4275  -21.5451 H   0  0  0  0  0  0  0  0  0  0  0  0
  -13.4590    3.5843  -20.2507 H   0  0  0  0  0  0  0  0  0  0  0  0
  -10.7151    3.9405  -23.0902 H   0  0  0  0  0  0  0  0  0  0  0  0
   -8.4416    4.6286  -21.8836 H   0  0  0  0  0  0  0  0  0  0  0  0
  -10.2264    4.4704  -17.3956 H   0  0  0  0  0  0  0  0  0  0  0  0
   -9.6797    4.3865  -15.0084 H   0  0  0  0  0  0  0  0  0  0  0  0
   -8.2510    7.4155  -11.9269 H   0  0  0  0  0  0  0  0  0  0  0  0
   -8.6006    6.8237   -9.6183 H   0  0  0  0  0  0  0  0  0  0  0  0
  -10.5508    2.7215   -8.7195 H   0  0  0  0  0  0  0  0  0  0  0  0
   -8.8101    2.2379   -8.6494 H   0  0  0  0  0  0  0  0  0  0  0  0
  -10.3411    1.8030   -6.5830 H   0  0  0  0  0  0  0  0  0  0  0  0
   -8.6879    2.4028   -6.3172 H   0  0  0  0  0  0  0  0  0  0  0  0
   -8.3247    4.5428   -5.6983 H   0  0  0  0  0  0  0  0  0  0  0  0
   -9.6858    5.6638   -5.4658 H   0  0  0  0  0  0  0  0  0  0  0  0
   -9.9772    6.1061   -7.7399 H   0  0  0  0  0  0  0  0  0  0  0  0
   -8.1851    5.9253   -7.5829 H   0  0  0  0  0  0  0  0  0  0  0  0
   -9.2920    2.7055  -10.8088 H   0  0  0  0  0  0  0  0  0  0  0  0
   -8.9183    3.3201  -13.1025 H   0  0  0  0  0  0  0  0  0  0  0  0
   -6.3008    5.5515  -16.0010 H   0  0  0  0  0  0  0  0  0  0  0  0
   -5.4936    5.6274  -18.3202 H   0  0  0  0  0  0  0  0  0  0  0  0
   -6.9974    5.1253  -20.1875 H   0  0  0  0  0  0  0  0  0  0  0  0
  1  2  1  0
  2  3  1  0
  3  4  1  0
  3  5  2  0
  5  6  1  0
  1  7  1  0
  7  8  2  0
  8  9  1  0
  9 10  1  0
 10 11  1  0
 11 12  1  0
 12 13  2  0
 13 14  1  0
 14 15  2  0
 15 16  1  0
 16 17  1  0
 17 18  1  0
 18 19  1  0
 19 20  1  0
 20 21  1  0
 15 22  1  0
 22 23  2  0
 11 24  2  0
  9 25  2  0
 25 26  1  0
 26 27  2  0
  1  6  2  0
  7 27  1  0
 12 23  1  0
 21 16  1  0
  4 28  1  0
  4 29  1  0
  4 30  1  0
  5 31  1  0
  6 32  1  0
  8 33  1  0
 10 34  1  0
 13 35  1  0
 14 36  1  0
 17 37  1  0
 17 38  1  0
 18 39  1  0
 18 40  1  0
 20 41  1  0
 20 42  1  0
 21 43  1  0
 21 44  1  0
 22 45  1  0
 23 46  1  0
 25 47  1  0
 26 48  1  0
 27 49  1  0
A    1
 C1 
A    2
 O1 
A    3
 C2 
A    4
 C3 
A    5
 C4 
A    6
 C5 
A    7
 C6 
A    8
 C7 
A    9
 C8 
A   10
 N1 
A   11
 C9 
A   12
 C10
A   13
 C11
A   14
 C12
A   15
 C13
A   16
 N2 
A   17
 C14
A   18
 C15
A   19
 O2 
A   20
 C16
A   21
 C17
A   22
 C18
A   23
 C19
A   24
 O3 
A   25
 C20
A   26
 C21
A   27
 C22
A   28
 H1 
A   29
 H2 
A   30
 H3 
A   31
 H4 
A   32
 H5 
A   33
 H6 
A   34
 H7 
A   35
 H8 
A   36
 H9 
A   37
 H10
A   38
 H11
A   39
 H12
A   40
 H13
A   41
 H14
A   42
 H15
A   43
 H16
A   44
 H17
A   45
 H18
A   46
 H19
A   47
 H20
A   48
 H21
A   49
 H22
M  END
>  <ref_pdb>  (317) 
x0051_0B

>  <ref_mols>  (317) 
x0089_0B,x0404_0B

>  <original SMILES>  (317) 
[H]c1c(-c2c([H])c([H])c([H])c(N([H])C(=O)c3c([H])c([H])c(N4C([H])([H])C([H])([H])OC([H])([H])C4([H])[H])c([H])c3[H])c2[H])oc(C([H])([H])[H])c1[H]

>  <index>  (317) 
838

>  <∆∆G>  (317) 
-6.618441

>  <∆G_bound>  (317) 
-6.399808

>  <∆G_unbound>  (317) 
0.218633

>  <comRMSD>  (317) 
0.693407

>  <N_constrained_atoms>  (317) 
22.0

>  <N_unconstrained_atoms>  (317) 
7.0

>  <runtime>  (317) 
175.598868

>  <LE>  (317) 
0.228222

>  <percent_hybrid>  (317) 
37.0

>  <dist>  (317) 
12.0

>  <ecfp4>  (317) 
0.229885

>  <daylight>  (317) 
0.164875

>  <topodist>  (317) 
5.0

>  <mces>  (317) 
29.0

>  <tdn>  (317) 
2.0

>  <tup>  (317) 
0.0

>  <rdn>  (317) 
1.0

>  <rup>  (317) 
1.0

>  <ldn>  (317) 
1.0

>  <lup>  (317) 
0.0

>  <mut>  (317) 
5.0

>  <maj>  (317) 
5.0

>  <min>  (317) 
0.0

>  <hyb>  (317) 
2.0

>  <sub>  (317) 
2.0

>  <query_index>  (317) 
3.0

>  <max_hit_Tanimoto>  (317) 
0.211864

>  <largest_ring>  (317) 
6

>  <N_interactions_kept>  (317) 
1.0

>  <N_interactions_lost>  (317) 
3.5

>  <interaction_uniqueness_metric>  (317) 
0.522112

>  <ad_hoc_penalty>  (317) 
-21.189128

>  <N_rotatable_bonds>  (317) 
5

>  <N_HA>  (317) 
27

>  <cluster>  (317) 
5451

>  <N_interactions>  (317) 
9

>  <Enamine>  (317) 
0

>  <Mcule>  (317) 
1

>  <N_PAINS>  (317) 
0

>  <UFF_Gibbs>  (317) 
151.388852

>  <strain_per_HA>  (317) 
5.220305

>  <saltbridge:HIS:51>  (317) 
0

>  <pistack:HIS:51>  (317) 
1

>  <hydroph_interaction:HIS:51>  (317) 
1

>  <hbond:ALA:132>  (317) 
0

>  <hbond:SER:135>  (317) 
0

>  <hydroph_interaction:TYR:150>  (317) 
2

>  <pistack:TYR:161>  (317) 
1

>  <hydroph_interaction:TYR:161>  (317) 
1

>  <hydroph_interaction:ASP:83>  (317) 
0

>  <hbond:TYR:130>  (317) 
0

>  <hydroph_interaction:ALA:132>  (317) 
1

>  <hbond:HIS:51>  (317) 
1

>  <hbond:ASP:129>  (317) 
0

>  <hbond:TYR:150>  (317) 
0

>  <hbond:GLY:151>  (317) 
0

>  <hbond:TYR:161>  (317) 
0

>  <hydroph_interaction:TYR:130>  (317) 
0

>  <hydroph_interaction:PRO:131>  (317) 
0

>  <hydroph_interaction:ASP:129>  (317) 
0

>  <saltbridge:ASP:75>  (317) 
0

>  <saltbridge:ASP:83>  (317) 
0

>  <hydroph_interaction:ASN:152>  (317) 
0

>  <halogenbond:TYR:150>  (317) 
0

>  <hbond:ASP:83>  (317) 
0

>  <hydroph_interaction:VAL:155>  (317) 
0

>  <pication:TYR:161>  (317) 
0

>  <hbond:PRO:131>  (317) 
0

>  <hbond:LEU:128>  (317) 
0

>  <saltbridge:ASP:129>  (317) 
0

>  <hbond:THR:134>  (317) 
0

>  <pication:HIS:51>  (317) 
0

>  <hbond:SER:81>  (317) 
0

>  <hbond:GLY:159>  (317) 
0

>  <hydroph_interaction:PRO:101>  (317) 
0

>  <hydroph_interaction:THR:134>  (317) 
1

>  <hbond:GLY:82>  (317) 
0

>  <hydroph_interaction:GLU:104>  (317) 
0

>  <hydroph_interaction:VAL:36>  (317) 
0

>  <hydroph_interaction:MET:49>  (317) 
0

>  <halogenbond:GLU:104>  (317) 
0

>  <hydroph_interaction:LYS:107>  (317) 
0

$$$$
QTXARSARJQRVQD-UHFFFAOYSA-N
     RDKit          3D

 24 25  0  0  0  0  0  0  0  0999 V2000
   -5.2605    5.9405  -17.9074 N   0  0  0  0  0  0  0  0  0  0  0  0
   -4.5195    4.7404  -17.4807 C   0  0  0  0  0  0  0  0  0  0  0  0
   -6.3156    5.6075  -18.9035 C   0  0  0  0  0  0  0  0  0  0  0  0
   -6.5955    6.8176  -19.8004 C   0  0  0  0  0  0  0  0  0  0  0  0
   -7.5885    5.1370  -18.2439 C   0  0  0  0  0  0  0  0  0  0  0  0
   -7.8522    5.3816  -16.9088 C   0  0  0  0  0  0  0  0  0  0  0  0
   -9.3494    4.7303  -16.5171 S   0  0  0  0  0  0  0  0  0  0  0  0
   -9.6989    4.1621  -18.0651 C   0  0  0  0  0  0  0  0  0  0  0  0
   -8.6294    4.4656  -18.9005 C   0  0  0  0  0  0  0  0  0  0  0  0
   -6.8722    5.9909  -15.9649 C   0  0  0  0  0  0  0  0  0  0  0  0
   -5.7622    6.7192  -16.7459 C   0  0  0  0  0  0  0  0  0  0  0  0
   -3.9767    4.3063  -18.3472 H   0  0  0  0  0  0  0  0  0  0  0  0
   -3.7569    5.0031  -16.7164 H   0  0  0  0  0  0  0  0  0  0  0  0
   -5.2027    3.9686  -17.0648 H   0  0  0  0  0  0  0  0  0  0  0  0
   -5.9554    4.7954  -19.5760 H   0  0  0  0  0  0  0  0  0  0  0  0
   -7.0853    7.6355  -19.2317 H   0  0  0  0  0  0  0  0  0  0  0  0
   -7.2640    6.5247  -20.6382 H   0  0  0  0  0  0  0  0  0  0  0  0
   -5.6443    7.1969  -20.2305 H   0  0  0  0  0  0  0  0  0  0  0  0
  -10.6001    3.6421  -18.3602 H   0  0  0  0  0  0  0  0  0  0  0  0
   -8.6048    4.2044  -19.9503 H   0  0  0  0  0  0  0  0  0  0  0  0
   -7.3935    6.7105  -15.2985 H   0  0  0  0  0  0  0  0  0  0  0  0
   -6.4296    5.1900  -15.3359 H   0  0  0  0  0  0  0  0  0  0  0  0
   -6.1514    7.6977  -17.0990 H   0  0  0  0  0  0  0  0  0  0  0  0
   -4.9243    6.9580  -16.0550 H   0  0  0  0  0  0  0  0  0  0  0  0
  1  2  1  0
  1  3  1  0
  3  4  1  0
  3  5  1  0
  5  6  2  0
  6  7  1  0
  7  8  1  0
  8  9  2  0
  6 10  1  0
 10 11  1  0
 11  1  1  0
  9  5  1  0
  2 12  1  0
  2 13  1  0
  2 14  1  0
  3 15  1  0
  4 16  1  0
  4 17  1  0
  4 18  1  0
  8 19  1  0
  9 20  1  0
 10 21  1  0
 10 22  1  0
 11 23  1  0
 11 24  1  0
A    1
 N1 
A    2
 C1 
A    3
 C2 
A    4
 C3 
A    5
 C4 
A    6
 C5 
A    7
 S1 
A    8
 C6 
A    9
 C7 
A   10
 C8 
A   11
 C9 
A   12
 H1 
A   13
 H2 
A   14
 H3 
A   15
 H4 
A   16
 H5 
A   17
 H6 
A   18
 H7 
A   19
 H8 
A   20
 H9 
A   21
 H10
A   22
 H11
A   23
 H12
A   24
 H13
M  END
>  <ref_pdb>  (318) 
x0051_0B

>  <ref_mols>  (318) 
x0472_0B,x0386_0B

>  <original SMILES>  (318) 
[H]c1sc2c(c1[H])C([H])(C([H])([H])[H])N(C([H])([H])[H])C([H])([H])C2([H])[H]

>  <index>  (318) 
537

>  <∆∆G>  (318) 
-7.025105

>  <∆G_bound>  (318) 
-7.056081

>  <∆G_unbound>  (318) 
-0.030976

>  <comRMSD>  (318) 
0.750314

>  <N_constrained_atoms>  (318) 
13.0

>  <N_unconstrained_atoms>  (318) 
0.0

>  <runtime>  (318) 
21.089239

>  <LE>  (318) 
0.540393

>  <percent_hybrid>  (318) 
15.0

>  <dist>  (318) 
4.0

>  <ecfp4>  (318) 
0.444444

>  <daylight>  (318) 
0.745902

>  <topodist>  (318) 
3.0

>  <mces>  (318) 
12.0

>  <tdn>  (318) 
3.0

>  <tup>  (318) 
0.0

>  <rdn>  (318) 
0.0

>  <rup>  (318) 
0.0

>  <ldn>  (318) 
0.0

>  <lup>  (318) 
0.0

>  <mut>  (318) 
1.0

>  <maj>  (318) 
1.0

>  <min>  (318) 
0.0

>  <hyb>  (318) 
0.0

>  <sub>  (318) 
1.0

>  <query_index>  (318) 
75.0

>  <max_hit_Tanimoto>  (318) 
0.672052

>  <largest_ring>  (318) 
6

>  <N_interactions_kept>  (318) 
3.0

>  <N_interactions_lost>  (318) 
0.0

>  <interaction_uniqueness_metric>  (318) 
0.009391

>  <ad_hoc_penalty>  (318) 
-21.187457

>  <N_rotatable_bonds>  (318) 
2

>  <N_HA>  (318) 
11

>  <cluster>  (318) 
5727

>  <N_interactions>  (318) 
1

>  <Enamine>  (318) 
0

>  <Mcule>  (318) 
1

>  <N_PAINS>  (318) 
0

>  <UFF_Gibbs>  (318) 
30.520497

>  <strain_per_HA>  (318) 
2.347731

>  <saltbridge:HIS:51>  (318) 
0

>  <pistack:HIS:51>  (318) 
0

>  <hydroph_interaction:HIS:51>  (318) 
0

>  <hbond:ALA:132>  (318) 
0

>  <hbond:SER:135>  (318) 
0

>  <hydroph_interaction:TYR:150>  (318) 
0

>  <pistack:TYR:161>  (318) 
0

>  <hydroph_interaction:TYR:161>  (318) 
1

>  <hydroph_interaction:ASP:83>  (318) 
0

>  <hbond:TYR:130>  (318) 
0

>  <hydroph_interaction:ALA:132>  (318) 
0

>  <hbond:HIS:51>  (318) 
0

>  <hbond:ASP:129>  (318) 
0

>  <hbond:TYR:150>  (318) 
0

>  <hbond:GLY:151>  (318) 
0

>  <hbond:TYR:161>  (318) 
0

>  <hydroph_interaction:TYR:130>  (318) 
0

>  <hydroph_interaction:PRO:131>  (318) 
0

>  <hydroph_interaction:ASP:129>  (318) 
0

>  <saltbridge:ASP:75>  (318) 
0

>  <saltbridge:ASP:83>  (318) 
0

>  <hydroph_interaction:ASN:152>  (318) 
0

>  <halogenbond:TYR:150>  (318) 
0

>  <hbond:ASP:83>  (318) 
0

>  <hydroph_interaction:VAL:155>  (318) 
0

>  <pication:TYR:161>  (318) 
0

>  <hbond:PRO:131>  (318) 
0

>  <hbond:LEU:128>  (318) 
0

>  <saltbridge:ASP:129>  (318) 
0

>  <hbond:THR:134>  (318) 
0

>  <pication:HIS:51>  (318) 
0

>  <hbond:SER:81>  (318) 
0

>  <hbond:GLY:159>  (318) 
0

>  <hydroph_interaction:PRO:101>  (318) 
0

>  <hydroph_interaction:THR:134>  (318) 
0

>  <hbond:GLY:82>  (318) 
0

>  <hydroph_interaction:GLU:104>  (318) 
0

>  <hydroph_interaction:VAL:36>  (318) 
0

>  <hydroph_interaction:MET:49>  (318) 
0

>  <halogenbond:GLU:104>  (318) 
0

>  <hydroph_interaction:LYS:107>  (318) 
0

$$$$
Z3242205644
     RDKit          3D

 34 36  0  0  0  0  0  0  0  0999 V2000
   -7.5944    4.9624  -15.2120 C   0  0  0  0  0  0  0  0  0  0  0  0
   -8.0333    4.8791  -16.6507 C   0  0  0  0  0  0  0  0  0  0  0  0
   -9.3138    4.3460  -16.8916 C   0  0  0  0  0  0  0  0  0  0  0  0
   -9.8212    4.2441  -18.1814 C   0  0  0  0  0  0  0  0  0  0  0  0
   -9.0662    4.6725  -19.2639 C   0  0  0  0  0  0  0  0  0  0  0  0
   -7.7843    5.2026  -19.0697 C   0  0  0  0  0  0  0  0  0  0  0  0
   -7.0539    5.6262  -20.1857 C   0  0  0  0  0  0  0  0  0  0  0  0
   -5.7820    6.1502  -20.0150 C   0  0  0  0  0  0  0  0  0  0  0  0
   -5.2492    6.2424  -18.7748 N   0  0  0  0  0  0  0  0  0  0  0  0
   -5.9099    5.8482  -17.6517 C   0  0  0  0  0  0  0  0  0  0  0  0
   -5.2105    5.9742  -16.4063 N   0  0  0  0  0  0  0  0  0  0  0  0
   -4.9927    7.3331  -15.8919 C   0  0  0  0  0  0  0  0  0  0  0  0
   -4.0347    7.3281  -14.6944 C   0  0  0  0  0  0  0  0  0  0  0  0
   -4.2752    6.1565  -13.8472 N   0  0  0  0  0  0  0  0  0  0  0  0
   -3.9372    4.9020  -14.5416 C   0  0  0  0  0  0  0  0  0  0  0  0
   -4.2571    4.9152  -16.0546 C   0  0  0  0  0  0  0  0  0  0  0  0
   -7.2312    5.3096  -17.7578 C   0  0  0  0  0  0  0  0  0  0  0  0
   -7.3496    6.0075  -14.9456 H   0  0  0  0  0  0  0  0  0  0  0  0
   -8.3968    4.6433  -14.5131 H   0  0  0  0  0  0  0  0  0  0  0  0
   -6.7365    4.2865  -15.0382 H   0  0  0  0  0  0  0  0  0  0  0  0
   -9.9351    4.0064  -16.0716 H   0  0  0  0  0  0  0  0  0  0  0  0
  -10.8100    3.8336  -18.3418 H   0  0  0  0  0  0  0  0  0  0  0  0
   -9.4861    4.5878  -20.2597 H   0  0  0  0  0  0  0  0  0  0  0  0
   -7.4656    5.5526  -21.1857 H   0  0  0  0  0  0  0  0  0  0  0  0
   -5.2103    6.4804  -20.8719 H   0  0  0  0  0  0  0  0  0  0  0  0
   -4.5713    7.9823  -16.6903 H   0  0  0  0  0  0  0  0  0  0  0  0
   -5.9658    7.7670  -15.5789 H   0  0  0  0  0  0  0  0  0  0  0  0
   -4.1832    8.2528  -14.0965 H   0  0  0  0  0  0  0  0  0  0  0  0
   -2.9801    7.3259  -15.0501 H   0  0  0  0  0  0  0  0  0  0  0  0
   -5.2861    6.1363  -13.5746 H   0  0  0  0  0  0  0  0  0  0  0  0
   -4.4823    4.0623  -14.0571 H   0  0  0  0  0  0  0  0  0  0  0  0
   -2.8541    4.6961  -14.4016 H   0  0  0  0  0  0  0  0  0  0  0  0
   -3.3166    5.0822  -16.6242 H   0  0  0  0  0  0  0  0  0  0  0  0
   -4.6566    3.9215  -16.3555 H   0  0  0  0  0  0  0  0  0  0  0  0
  1  2  1  0
  2  3  2  0
  3  4  1  0
  4  5  2  0
  5  6  1  0
  6  7  2  0
  7  8  1  0
  8  9  2  0
  9 10  1  0
 10 11  1  0
 11 12  1  0
 12 13  1  0
 13 14  1  0
 14 15  1  0
 15 16  1  0
 10 17  2  0
 17  2  1  0
 17  6  1  0
 16 11  1  0
  1 18  1  0
  1 19  1  0
  1 20  1  0
  3 21  1  0
  4 22  1  0
  5 23  1  0
  7 24  1  0
  8 25  1  0
 12 26  1  0
 12 27  1  0
 13 28  1  0
 13 29  1  0
 14 30  1  0
 15 31  1  0
 15 32  1  0
 16 33  1  0
 16 34  1  0
A    1
 C1 
A    2
 C2 
A    3
 C3 
A    4
 C4 
A    5
 C5 
A    6
 C6 
A    7
 C7 
A    8
 C8 
A    9
 N1 
A   10
 C9 
A   11
 N2 
A   12
 C10
A   13
 C11
A   14
 N3 
A   15
 C12
A   16
 C13
A   17
 C14
A   18
 H1 
A   19
 H2 
A   20
 H3 
A   21
 H4 
A   22
 H5 
A   23
 H6 
A   24
 H7 
A   25
 H8 
A   26
 H9 
A   27
 H10
A   28
 H11
A   29
 H12
A   30
 H13
A   31
 H14
A   32
 H15
A   33
 H16
A   34
 H17
M  END
>  <ref_pdb>  (319) 
x0051_0B

>  <ref_mols>  (319) 
x0429_0B,x0693_0B

>  <original SMILES>  (319) 
[H]c1nc(N2C([H])([H])C([H])([H])N([H])C([H])([H])C2([H])[H])c2c(C([H])([H])[H])c([H])c([H])c([H])c2c1[H]

>  <index>  (319) 
509

>  <∆∆G>  (319) 
-8.475934

>  <∆G_bound>  (319) 
-7.426042

>  <∆G_unbound>  (319) 
1.049892

>  <comRMSD>  (319) 
0.574276

>  <N_constrained_atoms>  (319) 
18.0

>  <N_unconstrained_atoms>  (319) 
0.0

>  <runtime>  (319) 
24.694709

>  <LE>  (319) 
0.470885

>  <percent_hybrid>  (319) 
20.0

>  <dist>  (319) 
2.0

>  <ecfp4>  (319) 
0.604651

>  <daylight>  (319) 
0.72

>  <topodist>  (319) 
0.0

>  <mces>  (319) 
19.0

>  <tdn>  (319) 
0.0

>  <tup>  (319) 
0.0

>  <rdn>  (319) 
0.0

>  <rup>  (319) 
0.0

>  <ldn>  (319) 
0.0

>  <lup>  (319) 
0.0

>  <mut>  (319) 
2.0

>  <maj>  (319) 
2.0

>  <min>  (319) 
0.0

>  <hyb>  (319) 
0.0

>  <sub>  (319) 
0.0

>  <query_index>  (319) 
179.0

>  <max_hit_Tanimoto>  (319) 
0.387755

>  <largest_ring>  (319) 
6

>  <N_interactions_kept>  (319) 
2.5

>  <N_interactions_lost>  (319) 
2.0

>  <interaction_uniqueness_metric>  (319) 
0.04341

>  <ad_hoc_penalty>  (319) 
-21.176596

>  <N_rotatable_bonds>  (319) 
2

>  <N_HA>  (319) 
17

>  <cluster>  (319) 
5754

>  <N_interactions>  (319) 
4

>  <Enamine>  (319) 
1

>  <Mcule>  (319) 
0

>  <N_PAINS>  (319) 
0

>  <UFF_Gibbs>  (319) 
55.929025

>  <strain_per_HA>  (319) 
3.107168

>  <saltbridge:HIS:51>  (319) 
0

>  <pistack:HIS:51>  (319) 
0

>  <hydroph_interaction:HIS:51>  (319) 
0

>  <hbond:ALA:132>  (319) 
0

>  <hbond:SER:135>  (319) 
0

>  <hydroph_interaction:TYR:150>  (319) 
1

>  <pistack:TYR:161>  (319) 
2

>  <hydroph_interaction:TYR:161>  (319) 
1

>  <hydroph_interaction:ASP:83>  (319) 
0

>  <hbond:TYR:130>  (319) 
0

>  <hydroph_interaction:ALA:132>  (319) 
0

>  <hbond:HIS:51>  (319) 
0

>  <hbond:ASP:129>  (319) 
0

>  <hbond:TYR:150>  (319) 
0

>  <hbond:GLY:151>  (319) 
0

>  <hbond:TYR:161>  (319) 
0

>  <hydroph_interaction:TYR:130>  (319) 
0

>  <hydroph_interaction:PRO:131>  (319) 
0

>  <hydroph_interaction:ASP:129>  (319) 
0

>  <saltbridge:ASP:75>  (319) 
0

>  <saltbridge:ASP:83>  (319) 
0

>  <hydroph_interaction:ASN:152>  (319) 
0

>  <halogenbond:TYR:150>  (319) 
0

>  <hbond:ASP:83>  (319) 
0

>  <hydroph_interaction:VAL:155>  (319) 
0

>  <pication:TYR:161>  (319) 
0

>  <hbond:PRO:131>  (319) 
0

>  <hbond:LEU:128>  (319) 
0

>  <saltbridge:ASP:129>  (319) 
0

>  <hbond:THR:134>  (319) 
0

>  <pication:HIS:51>  (319) 
0

>  <hbond:SER:81>  (319) 
0

>  <hbond:GLY:159>  (319) 
0

>  <hydroph_interaction:PRO:101>  (319) 
0

>  <hydroph_interaction:THR:134>  (319) 
0

>  <hbond:GLY:82>  (319) 
0

>  <hydroph_interaction:GLU:104>  (319) 
0

>  <hydroph_interaction:VAL:36>  (319) 
0

>  <hydroph_interaction:MET:49>  (319) 
0

>  <halogenbond:GLU:104>  (319) 
0

>  <hydroph_interaction:LYS:107>  (319) 
0

$$$$
CSSS00020620909
     RDKit          3D

 23 24  0  0  0  0  0  0  0  0999 V2000
   -8.7730    4.6872  -14.2131 N   0  0  0  0  0  0  0  0  0  0  0  0
   -7.9975    5.5251  -15.1313 C   0  0  1  0  0  0  0  0  0  0  0  0
   -6.4997    5.2444  -14.9291 C   0  0  0  0  0  0  0  0  0  0  0  0
   -5.6709    5.9412  -16.0079 C   0  0  0  0  0  0  0  0  0  0  0  0
   -6.0132    5.3755  -17.3884 C   0  0  0  0  0  0  0  0  0  0  0  0
   -7.5015    5.3248  -17.6354 C   0  0  0  0  0  0  0  0  0  0  0  0
   -7.9743    5.1861  -18.9480 C   0  0  0  0  0  0  0  0  0  0  0  0
   -9.3433    5.0887  -19.1943 C   0  0  0  0  0  0  0  0  0  0  0  0
  -10.2338    5.1231  -18.1226 C   0  0  0  0  0  0  0  0  0  0  0  0
   -9.7660    5.2432  -16.8529 N   0  0  0  0  0  0  0  0  0  0  0  0
   -8.4345    5.3202  -16.5716 C   0  0  0  0  0  0  0  0  0  0  0  0
   -8.7682    3.6987  -14.5575 H   0  0  0  0  0  0  0  0  0  0  0  0
   -9.7660    5.0160  -14.2077 H   0  0  0  0  0  0  0  0  0  0  0  0
   -8.1811    6.5926  -14.8752 H   0  0  0  0  0  0  0  0  0  0  0  0
   -6.3051    4.1491  -14.9640 H   0  0  0  0  0  0  0  0  0  0  0  0
   -6.1867    5.6160  -13.9292 H   0  0  0  0  0  0  0  0  0  0  0  0
   -5.8693    7.0357  -15.9886 H   0  0  0  0  0  0  0  0  0  0  0  0
   -4.5898    5.7835  -15.8043 H   0  0  0  0  0  0  0  0  0  0  0  0
   -5.6052    4.3449  -17.4738 H   0  0  0  0  0  0  0  0  0  0  0  0
   -5.5218    6.0044  -18.1624 H   0  0  0  0  0  0  0  0  0  0  0  0
   -7.2816    5.1539  -19.7800 H   0  0  0  0  0  0  0  0  0  0  0  0
   -9.7108    4.9879  -20.2073 H   0  0  0  0  0  0  0  0  0  0  0  0
  -11.2989    5.0568  -18.2995 H   0  0  0  0  0  0  0  0  0  0  0  0
  1  2  1  0
  2  3  1  0
  3  4  1  0
  4  5  1  0
  5  6  1  0
  6  7  2  0
  7  8  1  0
  8  9  2  0
  9 10  1  0
 10 11  2  0
 11  2  1  0
 11  6  1  0
  1 12  1  0
  1 13  1  0
  2 14  1  1
  3 15  1  0
  3 16  1  0
  4 17  1  0
  4 18  1  0
  5 19  1  0
  5 20  1  0
  7 21  1  0
  8 22  1  0
  9 23  1  0
A    1
 N1 
A    2
 C1 
A    3
 C2 
A    4
 C3 
A    5
 C4 
A    6
 C5 
A    7
 C6 
A    8
 C7 
A    9
 C8 
A   10
 N2 
A   11
 C9 
A   12
 H1 
A   13
 H2 
A   14
 H3 
A   15
 H4 
A   16
 H5 
A   17
 H6 
A   18
 H7 
A   19
 H8 
A   20
 H9 
A   21
 H10
A   22
 H11
A   23
 H12
M  END
>  <ref_pdb>  (320) 
x0051_0B

>  <ref_mols>  (320) 
x0455_0B,x0951_0B

>  <original SMILES>  (320) 
[H]c1nc2c(c([H])c1[H])C([H])([H])C([H])([H])C([H])([H])[C@]2([H])N([H])[H]

>  <index>  (320) 
606

>  <∆∆G>  (320) 
-5.59474

>  <∆G_bound>  (320) 
-5.51831

>  <∆G_unbound>  (320) 
0.07643

>  <comRMSD>  (320) 
0.71721

>  <N_constrained_atoms>  (320) 
13.0

>  <N_unconstrained_atoms>  (320) 
0.0

>  <runtime>  (320) 
18.720231

>  <LE>  (320) 
0.430365

>  <percent_hybrid>  (320) 
40.0

>  <dist>  (320) 
3.0

>  <ecfp4>  (320) 
0.297872

>  <daylight>  (320) 
0.329412

>  <topodist>  (320) 
2.0

>  <mces>  (320) 
12.0

>  <tdn>  (320) 
1.0

>  <tup>  (320) 
0.0

>  <rdn>  (320) 
0.0

>  <rup>  (320) 
0.0

>  <ldn>  (320) 
1.0

>  <lup>  (320) 
0.0

>  <mut>  (320) 
1.0

>  <maj>  (320) 
1.0

>  <min>  (320) 
0.0

>  <hyb>  (320) 
0.0

>  <sub>  (320) 
1.0

>  <query_index>  (320) 
288.0

>  <max_hit_Tanimoto>  (320) 
0.313814

>  <largest_ring>  (320) 
6

>  <N_interactions_kept>  (320) 
1.0

>  <N_interactions_lost>  (320) 
1.5

>  <interaction_uniqueness_metric>  (320) 
0.071024

>  <ad_hoc_penalty>  (320) 
-21.121013

>  <N_rotatable_bonds>  (320) 
1

>  <N_HA>  (320) 
11

>  <cluster>  (320) 
5664

>  <N_interactions>  (320) 
4

>  <Enamine>  (320) 
1

>  <Mcule>  (320) 
0

>  <N_PAINS>  (320) 
0

>  <UFF_Gibbs>  (320) 
25.967511

>  <strain_per_HA>  (320) 
1.997501

>  <saltbridge:HIS:51>  (320) 
0

>  <pistack:HIS:51>  (320) 
0

>  <hydroph_interaction:HIS:51>  (320) 
0

>  <hbond:ALA:132>  (320) 
0

>  <hbond:SER:135>  (320) 
0

>  <hydroph_interaction:TYR:150>  (320) 
1

>  <pistack:TYR:161>  (320) 
0

>  <hydroph_interaction:TYR:161>  (320) 
2

>  <hydroph_interaction:ASP:83>  (320) 
0

>  <hbond:TYR:130>  (320) 
0

>  <hydroph_interaction:ALA:132>  (320) 
0

>  <hbond:HIS:51>  (320) 
0

>  <hbond:ASP:129>  (320) 
0

>  <hbond:TYR:150>  (320) 
0

>  <hbond:GLY:151>  (320) 
0

>  <hbond:TYR:161>  (320) 
1

>  <hydroph_interaction:TYR:130>  (320) 
0

>  <hydroph_interaction:PRO:131>  (320) 
0

>  <hydroph_interaction:ASP:129>  (320) 
0

>  <saltbridge:ASP:75>  (320) 
0

>  <saltbridge:ASP:83>  (320) 
0

>  <hydroph_interaction:ASN:152>  (320) 
0

>  <halogenbond:TYR:150>  (320) 
0

>  <hbond:ASP:83>  (320) 
0

>  <hydroph_interaction:VAL:155>  (320) 
0

>  <pication:TYR:161>  (320) 
0

>  <hbond:PRO:131>  (320) 
0

>  <hbond:LEU:128>  (320) 
0

>  <saltbridge:ASP:129>  (320) 
0

>  <hbond:THR:134>  (320) 
0

>  <pication:HIS:51>  (320) 
0

>  <hbond:SER:81>  (320) 
0

>  <hbond:GLY:159>  (320) 
0

>  <hydroph_interaction:PRO:101>  (320) 
0

>  <hydroph_interaction:THR:134>  (320) 
0

>  <hbond:GLY:82>  (320) 
0

>  <hydroph_interaction:GLU:104>  (320) 
0

>  <hydroph_interaction:VAL:36>  (320) 
0

>  <hydroph_interaction:MET:49>  (320) 
0

>  <halogenbond:GLU:104>  (320) 
0

>  <hydroph_interaction:LYS:107>  (320) 
0

$$$$
CSSB00000720401
     RDKit          3D

 19 20  0  0  0  0  0  0  0  0999 V2000
  -10.1188    5.1858  -14.9260 S   0  0  0  0  0  0  0  0  0  0  0  0
   -9.2873    5.1095  -16.5048 C   0  0  0  0  0  0  0  0  0  0  0  0
   -7.9559    5.2594  -16.6484 N   0  0  0  0  0  0  0  0  0  0  0  0
   -7.7714    5.1301  -17.9784 C   0  0  0  0  0  0  0  0  0  0  0  0
   -8.9958    4.9080  -18.5831 C   0  0  0  0  0  0  0  0  0  0  0  0
   -9.9069    4.9020  -17.6426 O   0  0  0  0  0  0  0  0  0  0  0  0
   -6.4461    5.2197  -18.6390 C   0  0  0  0  0  0  0  0  0  0  0  0
   -5.2920    5.4516  -17.8668 C   0  0  0  0  0  0  0  0  0  0  0  0
   -4.0361    5.5385  -18.4753 C   0  0  0  0  0  0  0  0  0  0  0  0
   -3.9164    5.3954  -19.8588 C   0  0  0  0  0  0  0  0  0  0  0  0
   -5.0526    5.1651  -20.6369 C   0  0  0  0  0  0  0  0  0  0  0  0
   -6.3115    5.0772  -20.0342 C   0  0  0  0  0  0  0  0  0  0  0  0
   -9.9698    3.8012  -14.7229 H   0  0  0  0  0  0  0  0  0  0  0  0
   -9.2027    4.7618  -19.6339 H   0  0  0  0  0  0  0  0  0  0  0  0
   -5.3588    5.5660  -16.7921 H   0  0  0  0  0  0  0  0  0  0  0  0
   -3.1548    5.7171  -17.8728 H   0  0  0  0  0  0  0  0  0  0  0  0
   -2.9434    5.4630  -20.3280 H   0  0  0  0  0  0  0  0  0  0  0  0
   -4.9583    5.0544  -21.7096 H   0  0  0  0  0  0  0  0  0  0  0  0
   -7.1712    4.8982  -20.6644 H   0  0  0  0  0  0  0  0  0  0  0  0
  1  2  1  0
  2  3  2  0
  3  4  1  0
  4  5  2  0
  5  6  1  0
  4  7  1  0
  7  8  2  0
  8  9  1  0
  9 10  2  0
 10 11  1  0
 11 12  2  0
  6  2  1  0
 12  7  1  0
  1 13  1  0
  5 14  1  0
  8 15  1  0
  9 16  1  0
 10 17  1  0
 11 18  1  0
 12 19  1  0
A    1
 S1 
A    2
 C1 
A    3
 N1 
A    4
 C2 
A    5
 C3 
A    6
 O1 
A    7
 C4 
A    8
 C5 
A    9
 C6 
A   10
 C7 
A   11
 C8 
A   12
 C9 
A   13
 H1 
A   14
 H2 
A   15
 H3 
A   16
 H4 
A   17
 H5 
A   18
 H6 
A   19
 H7 
M  END
>  <ref_pdb>  (321) 
x0051_0B

>  <ref_mols>  (321) 
x0680_0B,x0386_0B

>  <original SMILES>  (321) 
[H]Sc1nc(-c2c([H])c([H])c([H])c([H])c2[H])c([H])o1

>  <index>  (321) 
387

>  <∆∆G>  (321) 
-6.475655

>  <∆G_bound>  (321) 
-6.449221

>  <∆G_unbound>  (321) 
0.026434

>  <comRMSD>  (321) 
0.719151

>  <N_constrained_atoms>  (321) 
12.0

>  <N_unconstrained_atoms>  (321) 
1.0

>  <runtime>  (321) 
30.362976

>  <LE>  (321) 
0.498127

>  <percent_hybrid>  (321) 
17.0

>  <dist>  (321) 
3.0

>  <ecfp4>  (321) 
0.183673

>  <daylight>  (321) 
0.471074

>  <topodist>  (321) 
2.0

>  <mces>  (321) 
12.0

>  <tdn>  (321) 
1.0

>  <tup>  (321) 
1.0

>  <rdn>  (321) 
0.0

>  <rup>  (321) 
0.0

>  <ldn>  (321) 
0.0

>  <lup>  (321) 
0.0

>  <mut>  (321) 
1.0

>  <maj>  (321) 
1.0

>  <min>  (321) 
0.0

>  <hyb>  (321) 
0.0

>  <sub>  (321) 
2.0

>  <query_index>  (321) 
296.0

>  <max_hit_Tanimoto>  (321) 
0.125326

>  <largest_ring>  (321) 
6

>  <N_interactions_kept>  (321) 
3.5

>  <N_interactions_lost>  (321) 
0.5

>  <interaction_uniqueness_metric>  (321) 
0.016266

>  <ad_hoc_penalty>  (321) 
-21.093343

>  <N_rotatable_bonds>  (321) 
2

>  <N_HA>  (321) 
12

>  <cluster>  (321) 
5863

>  <N_interactions>  (321) 
3

>  <Enamine>  (321) 
1

>  <Mcule>  (321) 
0

>  <N_PAINS>  (321) 
0

>  <UFF_Gibbs>  (321) 
60.895395

>  <strain_per_HA>  (321) 
4.684261

>  <saltbridge:HIS:51>  (321) 
0

>  <pistack:HIS:51>  (321) 
0

>  <hydroph_interaction:HIS:51>  (321) 
0

>  <hbond:ALA:132>  (321) 
0

>  <hbond:SER:135>  (321) 
0

>  <hydroph_interaction:TYR:150>  (321) 
0

>  <pistack:TYR:161>  (321) 
0

>  <hydroph_interaction:TYR:161>  (321) 
3

>  <hydroph_interaction:ASP:83>  (321) 
0

>  <hbond:TYR:130>  (321) 
0

>  <hydroph_interaction:ALA:132>  (321) 
0

>  <hbond:HIS:51>  (321) 
0

>  <hbond:ASP:129>  (321) 
0

>  <hbond:TYR:150>  (321) 
0

>  <hbond:GLY:151>  (321) 
0

>  <hbond:TYR:161>  (321) 
0

>  <hydroph_interaction:TYR:130>  (321) 
0

>  <hydroph_interaction:PRO:131>  (321) 
0

>  <hydroph_interaction:ASP:129>  (321) 
0

>  <saltbridge:ASP:75>  (321) 
0

>  <saltbridge:ASP:83>  (321) 
0

>  <hydroph_interaction:ASN:152>  (321) 
0

>  <halogenbond:TYR:150>  (321) 
0

>  <hbond:ASP:83>  (321) 
0

>  <hydroph_interaction:VAL:155>  (321) 
0

>  <pication:TYR:161>  (321) 
0

>  <hbond:PRO:131>  (321) 
0

>  <hbond:LEU:128>  (321) 
0

>  <saltbridge:ASP:129>  (321) 
0

>  <hbond:THR:134>  (321) 
0

>  <pication:HIS:51>  (321) 
0

>  <hbond:SER:81>  (321) 
0

>  <hbond:GLY:159>  (321) 
0

>  <hydroph_interaction:PRO:101>  (321) 
0

>  <hydroph_interaction:THR:134>  (321) 
0

>  <hbond:GLY:82>  (321) 
0

>  <hydroph_interaction:GLU:104>  (321) 
0

>  <hydroph_interaction:VAL:36>  (321) 
0

>  <hydroph_interaction:MET:49>  (321) 
0

>  <halogenbond:GLU:104>  (321) 
0

>  <hydroph_interaction:LYS:107>  (321) 
0

$$$$
MCULE-9868049077
     RDKit          3D

 31 33  0  0  0  0  0  0  0  0999 V2000
   -7.3365    4.8726  -14.9794 Cl  0  0  0  0  0  0  0  0  0  0  0  0
   -7.9372    4.8448  -16.6338 C   0  0  0  0  0  0  0  0  0  0  0  0
   -7.1907    5.2650  -17.7736 C   0  0  0  0  0  0  0  0  0  0  0  0
   -5.8608    5.7745  -17.7220 C   0  0  0  0  0  0  0  0  0  0  0  0
   -5.2321    6.1404  -18.8725 N   0  0  0  0  0  0  0  0  0  0  0  0
   -5.8173    6.0479  -20.0903 C   0  0  0  0  0  0  0  0  0  0  0  0
   -7.1137    5.5644  -20.2040 C   0  0  0  0  0  0  0  0  0  0  0  0
   -7.8083    5.1709  -19.0545 C   0  0  0  0  0  0  0  0  0  0  0  0
   -9.1168    4.6827  -19.1787 C   0  0  0  0  0  0  0  0  0  0  0  0
   -9.8274    4.2824  -18.0525 C   0  0  0  0  0  0  0  0  0  0  0  0
   -9.2423    4.3621  -16.7926 C   0  0  0  0  0  0  0  0  0  0  0  0
   -5.1367    5.9265  -16.4955 N   0  0  0  0  0  0  0  0  0  0  0  0
   -5.0474    7.2723  -15.9184 C   0  0  0  0  0  0  0  0  0  0  0  0
   -3.9803    7.3287  -14.8207 C   0  0  0  0  0  0  0  0  0  0  0  0
   -4.0857    6.1579  -13.9449 N   0  0  0  0  0  0  0  0  0  0  0  0
   -3.8127    4.8912  -14.6518 C   0  0  0  0  0  0  0  0  0  0  0  0
   -4.1197    4.9230  -16.1662 C   0  0  0  0  0  0  0  0  0  0  0  0
   -5.2720    6.3533  -20.9733 H   0  0  0  0  0  0  0  0  0  0  0  0
   -7.5706    5.4972  -21.1845 H   0  0  0  0  0  0  0  0  0  0  0  0
   -9.5910    4.6102  -20.1506 H   0  0  0  0  0  0  0  0  0  0  0  0
  -10.8372    3.9064  -18.1563 H   0  0  0  0  0  0  0  0  0  0  0  0
   -9.8120    4.0424  -15.9287 H   0  0  0  0  0  0  0  0  0  0  0  0
   -6.0332    7.5473  -15.4857 H   0  0  0  0  0  0  0  0  0  0  0  0
   -4.7949    8.0130  -16.7085 H   0  0  0  0  0  0  0  0  0  0  0  0
   -2.9653    7.3698  -15.2748 H   0  0  0  0  0  0  0  0  0  0  0  0
   -4.1165    8.2532  -14.2195 H   0  0  0  0  0  0  0  0  0  0  0  0
   -5.0530    6.1262  -13.5447 H   0  0  0  0  0  0  0  0  0  0  0  0
   -4.4059    4.0765  -14.1801 H   0  0  0  0  0  0  0  0  0  0  0  0
   -2.7433    4.6267  -14.5081 H   0  0  0  0  0  0  0  0  0  0  0  0
   -3.1885    5.1646  -16.7238 H   0  0  0  0  0  0  0  0  0  0  0  0
   -4.4561    3.9138  -16.4920 H   0  0  0  0  0  0  0  0  0  0  0  0
  1  2  1  0
  2  3  2  0
  3  4  1  0
  4  5  2  0
  5  6  1  0
  6  7  2  0
  7  8  1  0
  8  9  2  0
  9 10  1  0
 10 11  2  0
  4 12  1  0
 12 13  1  0
 13 14  1  0
 14 15  1  0
 15 16  1  0
 16 17  1  0
  2 11  1  0
  3  8  1  0
 17 12  1  0
  6 18  1  0
  7 19  1  0
  9 20  1  0
 10 21  1  0
 11 22  1  0
 13 23  1  0
 13 24  1  0
 14 25  1  0
 14 26  1  0
 15 27  1  0
 16 28  1  0
 16 29  1  0
 17 30  1  0
 17 31  1  0
A    1
CL1 
A    2
 C1 
A    3
 C2 
A    4
 C3 
A    5
 N1 
A    6
 C4 
A    7
 C5 
A    8
 C6 
A    9
 C7 
A   10
 C8 
A   11
 C9 
A   12
 N2 
A   13
 C10
A   14
 C11
A   15
 N3 
A   16
 C12
A   17
 C13
A   18
 H1 
A   19
 H2 
A   20
 H3 
A   21
 H4 
A   22
 H5 
A   23
 H6 
A   24
 H7 
A   25
 H8 
A   26
 H9 
A   27
 H10
A   28
 H11
A   29
 H12
A   30
 H13
A   31
 H14
M  END
>  <ref_pdb>  (322) 
x0051_0B

>  <ref_mols>  (322) 
x0429_0B,x0693_0B

>  <original SMILES>  (322) 
[H]c1nc(N2C([H])([H])C([H])([H])N([H])C([H])([H])C2([H])[H])c2c(Cl)c([H])c([H])c([H])c2c1[H]

>  <index>  (322) 
526

>  <∆∆G>  (322) 
-7.381938

>  <∆G_bound>  (322) 
-5.468597

>  <∆G_unbound>  (322) 
1.913341

>  <comRMSD>  (322) 
0.572996

>  <N_constrained_atoms>  (322) 
18.0

>  <N_unconstrained_atoms>  (322) 
0.0

>  <runtime>  (322) 
23.704426

>  <LE>  (322) 
0.410108

>  <percent_hybrid>  (322) 
20.0

>  <dist>  (322) 
3.0

>  <ecfp4>  (322) 
0.408163

>  <daylight>  (322) 
0.512821

>  <topodist>  (322) 
0.0

>  <mces>  (322) 
19.0

>  <tdn>  (322) 
0.0

>  <tup>  (322) 
0.0

>  <rdn>  (322) 
0.0

>  <rup>  (322) 
0.0

>  <ldn>  (322) 
0.0

>  <lup>  (322) 
0.0

>  <mut>  (322) 
3.0

>  <maj>  (322) 
3.0

>  <min>  (322) 
0.0

>  <hyb>  (322) 
0.0

>  <sub>  (322) 
0.0

>  <query_index>  (322) 
179.0

>  <max_hit_Tanimoto>  (322) 
0.377837

>  <largest_ring>  (322) 
6

>  <N_interactions_kept>  (322) 
2.5

>  <N_interactions_lost>  (322) 
2.0

>  <interaction_uniqueness_metric>  (322) 
0.041883

>  <ad_hoc_penalty>  (322) 
-21.080551

>  <N_rotatable_bonds>  (322) 
1

>  <N_HA>  (322) 
17

>  <cluster>  (322) 
5738

>  <N_interactions>  (322) 
4

>  <Enamine>  (322) 
0

>  <Mcule>  (322) 
1

>  <N_PAINS>  (322) 
0

>  <UFF_Gibbs>  (322) 
51.853618

>  <strain_per_HA>  (322) 
2.880757

>  <saltbridge:HIS:51>  (322) 
0

>  <pistack:HIS:51>  (322) 
0

>  <hydroph_interaction:HIS:51>  (322) 
0

>  <hbond:ALA:132>  (322) 
0

>  <hbond:SER:135>  (322) 
0

>  <hydroph_interaction:TYR:150>  (322) 
1

>  <pistack:TYR:161>  (322) 
1

>  <hydroph_interaction:TYR:161>  (322) 
2

>  <hydroph_interaction:ASP:83>  (322) 
0

>  <hbond:TYR:130>  (322) 
0

>  <hydroph_interaction:ALA:132>  (322) 
0

>  <hbond:HIS:51>  (322) 
0

>  <hbond:ASP:129>  (322) 
0

>  <hbond:TYR:150>  (322) 
0

>  <hbond:GLY:151>  (322) 
0

>  <hbond:TYR:161>  (322) 
0

>  <hydroph_interaction:TYR:130>  (322) 
0

>  <hydroph_interaction:PRO:131>  (322) 
0

>  <hydroph_interaction:ASP:129>  (322) 
0

>  <saltbridge:ASP:75>  (322) 
0

>  <saltbridge:ASP:83>  (322) 
0

>  <hydroph_interaction:ASN:152>  (322) 
0

>  <halogenbond:TYR:150>  (322) 
0

>  <hbond:ASP:83>  (322) 
0

>  <hydroph_interaction:VAL:155>  (322) 
0

>  <pication:TYR:161>  (322) 
0

>  <hbond:PRO:131>  (322) 
0

>  <hbond:LEU:128>  (322) 
0

>  <saltbridge:ASP:129>  (322) 
0

>  <hbond:THR:134>  (322) 
0

>  <pication:HIS:51>  (322) 
0

>  <hbond:SER:81>  (322) 
0

>  <hbond:GLY:159>  (322) 
0

>  <hydroph_interaction:PRO:101>  (322) 
0

>  <hydroph_interaction:THR:134>  (322) 
0

>  <hbond:GLY:82>  (322) 
0

>  <hydroph_interaction:GLU:104>  (322) 
0

>  <hydroph_interaction:VAL:36>  (322) 
0

>  <hydroph_interaction:MET:49>  (322) 
0

>  <halogenbond:GLU:104>  (322) 
0

>  <hydroph_interaction:LYS:107>  (322) 
0

$$$$
Z4489435526
     RDKit          3D

 41 44  0  0  0  0  0  0  0  0999 V2000
   -6.5025    6.8128  -19.3882 C   0  0  0  0  0  0  0  0  0  0  0  0
   -6.5245    6.0921  -18.0781 C   0  0  0  0  0  0  0  0  0  0  0  0
   -5.5110    6.1179  -17.1834 N   0  0  0  0  0  0  0  0  0  0  0  0
   -5.8573    5.3324  -16.1670 N   0  0  0  0  0  0  0  0  0  0  0  0
   -7.0738    4.8354  -16.4676 C   0  0  0  0  0  0  0  0  0  0  0  0
   -7.8523    3.9674  -15.6888 C   0  0  0  0  0  0  0  0  0  0  0  0
   -7.3752    3.4348  -14.3921 C   0  0  0  0  0  0  0  0  0  0  0  0
   -6.1416    3.2460  -14.2147 O   0  0  0  0  0  0  0  0  0  0  0  0
   -8.2886    3.0834  -13.3433 N   0  0  0  0  0  0  0  0  0  0  0  0
   -9.4009    3.9481  -12.9519 C   0  0  0  0  0  0  0  0  0  0  0  0
   -9.0083    4.7642  -11.7604 C   0  0  0  0  0  0  0  0  0  0  0  0
   -9.1334    4.4340  -10.4271 C   0  0  0  0  0  0  0  0  0  0  0  0
   -9.8433    3.2569   -9.8271 C   0  0  0  0  0  0  0  0  0  0  0  0
   -9.4504    3.0898   -8.3502 C   0  0  0  0  0  0  0  0  0  0  0  0
   -9.4712    4.4366   -7.6073 C   0  0  0  0  0  0  0  0  0  0  0  0
   -8.4751    5.4255   -8.2362 C   0  0  0  0  0  0  0  0  0  0  0  0
   -8.5983    5.4259   -9.6932 N   0  0  0  0  0  0  0  0  0  0  0  0
   -8.0850    6.3516  -10.4892 N   0  0  0  0  0  0  0  0  0  0  0  0
   -8.3248    5.9692  -11.7624 C   0  0  0  0  0  0  0  0  0  0  0  0
   -9.1046    3.5862  -16.2213 C   0  0  0  0  0  0  0  0  0  0  0  0
   -9.5349    4.0764  -17.4704 C   0  0  0  0  0  0  0  0  0  0  0  0
   -8.7083    4.9465  -18.1949 C   0  0  0  0  0  0  0  0  0  0  0  0
   -7.5119    5.2865  -17.6514 N   0  0  0  0  0  0  0  0  0  0  0  0
   -7.4863    7.2891  -19.5772 H   0  0  0  0  0  0  0  0  0  0  0  0
   -5.7227    7.6028  -19.3740 H   0  0  0  0  0  0  0  0  0  0  0  0
   -6.2767    6.0942  -20.2027 H   0  0  0  0  0  0  0  0  0  0  0  0
   -7.9822    2.3584  -12.6551 H   0  0  0  0  0  0  0  0  0  0  0  0
  -10.2833    3.3198  -12.7055 H   0  0  0  0  0  0  0  0  0  0  0  0
   -9.6932    4.6305  -13.7766 H   0  0  0  0  0  0  0  0  0  0  0  0
   -9.5895    2.3314  -10.3864 H   0  0  0  0  0  0  0  0  0  0  0  0
  -10.9386    3.4274   -9.9005 H   0  0  0  0  0  0  0  0  0  0  0  0
   -8.4312    2.6479   -8.2845 H   0  0  0  0  0  0  0  0  0  0  0  0
  -10.1590    2.3866   -7.8614 H   0  0  0  0  0  0  0  0  0  0  0  0
   -9.2085    4.2761   -6.5393 H   0  0  0  0  0  0  0  0  0  0  0  0
  -10.4964    4.8657   -7.6504 H   0  0  0  0  0  0  0  0  0  0  0  0
   -7.4388    5.1311   -7.9624 H   0  0  0  0  0  0  0  0  0  0  0  0
   -8.6671    6.4468   -7.8429 H   0  0  0  0  0  0  0  0  0  0  0  0
   -8.0093    6.5248  -12.6358 H   0  0  0  0  0  0  0  0  0  0  0  0
   -9.7454    2.9011  -15.6785 H   0  0  0  0  0  0  0  0  0  0  0  0
  -10.4956    3.7785  -17.8707 H   0  0  0  0  0  0  0  0  0  0  0  0
   -9.0189    5.3341  -19.1570 H   0  0  0  0  0  0  0  0  0  0  0  0
  1  2  1  0
  2  3  2  0
  3  4  1  0
  4  5  2  0
  5  6  1  0
  6  7  1  0
  7  8  2  0
  7  9  1  0
  9 10  1  0
 10 11  1  0
 11 12  2  0
 12 13  1  0
 13 14  1  0
 14 15  1  0
 15 16  1  0
 16 17  1  0
 17 18  1  0
 18 19  2  0
  6 20  2  0
 20 21  1  0
 21 22  2  0
 22 23  1  0
 23  2  1  0
 23  5  1  0
 19 11  1  0
 17 12  1  0
  1 24  1  0
  1 25  1  0
  1 26  1  0
  9 27  1  0
 10 28  1  0
 10 29  1  0
 13 30  1  0
 13 31  1  0
 14 32  1  0
 14 33  1  0
 15 34  1  0
 15 35  1  0
 16 36  1  0
 16 37  1  0
 19 38  1  0
 20 39  1  0
 21 40  1  0
 22 41  1  0
A    1
 C1 
A    2
 C2 
A    3
 N1 
A    4
 N2 
A    5
 C3 
A    6
 C4 
A    7
 C5 
A    8
 O1 
A    9
 N3 
A   10
 C6 
A   11
 C7 
A   12
 C8 
A   13
 C9 
A   14
 C10
A   15
 C11
A   16
 C12
A   17
 N4 
A   18
 N5 
A   19
 C13
A   20
 C14
A   21
 C15
A   22
 C16
A   23
 N6 
A   24
 H1 
A   25
 H2 
A   26
 H3 
A   27
 H4 
A   28
 H5 
A   29
 H6 
A   30
 H7 
A   31
 H8 
A   32
 H9 
A   33
 H10
A   34
 H11
A   35
 H12
A   36
 H13
A   37
 H14
A   38
 H15
A   39
 H16
A   40
 H17
A   41
 H18
M  END
>  <ref_pdb>  (323) 
x0051_0B

>  <ref_mols>  (323) 
x0435_0B,x0969_1B

>  <original SMILES>  (323) 
[H]c1nn2c(c1C([H])([H])N([H])C(=O)c1c([H])c([H])c([H])n3c(C([H])([H])[H])nnc13)C([H])([H])C([H])([H])C([H])([H])C2([H])[H]

>  <index>  (323) 
471

>  <∆∆G>  (323) 
-5.884573

>  <∆G_bound>  (323) 
-4.447278

>  <∆G_unbound>  (323) 
1.437295

>  <comRMSD>  (323) 
0.472691

>  <N_constrained_atoms>  (323) 
20.0

>  <N_unconstrained_atoms>  (323) 
3.0

>  <runtime>  (323) 
41.046507

>  <LE>  (323) 
0.255851

>  <percent_hybrid>  (323) 
50.0

>  <dist>  (323) 
5.0

>  <ecfp4>  (323) 
0.337662

>  <daylight>  (323) 
0.350877

>  <topodist>  (323) 
1.0

>  <mces>  (323) 
25.0

>  <tdn>  (323) 
0.0

>  <tup>  (323) 
1.0

>  <rdn>  (323) 
0.0

>  <rup>  (323) 
0.0

>  <ldn>  (323) 
0.0

>  <lup>  (323) 
0.0

>  <mut>  (323) 
4.0

>  <maj>  (323) 
4.0

>  <min>  (323) 
0.0

>  <hyb>  (323) 
0.0

>  <sub>  (323) 
0.0

>  <query_index>  (323) 
311.0

>  <max_hit_Tanimoto>  (323) 
0.293233

>  <largest_ring>  (323) 
6

>  <N_interactions_kept>  (323) 
2.5

>  <N_interactions_lost>  (323) 
1.0

>  <interaction_uniqueness_metric>  (323) 
0.098528

>  <ad_hoc_penalty>  (323) 
-21.076637

>  <N_rotatable_bonds>  (323) 
4

>  <N_HA>  (323) 
23

>  <cluster>  (323) 
5790

>  <N_interactions>  (323) 
5

>  <Enamine>  (323) 
1

>  <Mcule>  (323) 
0

>  <N_PAINS>  (323) 
0

>  <UFF_Gibbs>  (323) 
99.840333

>  <strain_per_HA>  (323) 
4.340884

>  <saltbridge:HIS:51>  (323) 
0

>  <pistack:HIS:51>  (323) 
1

>  <hydroph_interaction:HIS:51>  (323) 
0

>  <hbond:ALA:132>  (323) 
0

>  <hbond:SER:135>  (323) 
0

>  <hydroph_interaction:TYR:150>  (323) 
0

>  <pistack:TYR:161>  (323) 
2

>  <hydroph_interaction:TYR:161>  (323) 
1

>  <hydroph_interaction:ASP:83>  (323) 
0

>  <hbond:TYR:130>  (323) 
0

>  <hydroph_interaction:ALA:132>  (323) 
0

>  <hbond:HIS:51>  (323) 
0

>  <hbond:ASP:129>  (323) 
0

>  <hbond:TYR:150>  (323) 
0

>  <hbond:GLY:151>  (323) 
0

>  <hbond:TYR:161>  (323) 
1

>  <hydroph_interaction:TYR:130>  (323) 
0

>  <hydroph_interaction:PRO:131>  (323) 
0

>  <hydroph_interaction:ASP:129>  (323) 
0

>  <saltbridge:ASP:75>  (323) 
0

>  <saltbridge:ASP:83>  (323) 
0

>  <hydroph_interaction:ASN:152>  (323) 
0

>  <halogenbond:TYR:150>  (323) 
0

>  <hbond:ASP:83>  (323) 
0

>  <hydroph_interaction:VAL:155>  (323) 
0

>  <pication:TYR:161>  (323) 
0

>  <hbond:PRO:131>  (323) 
0

>  <hbond:LEU:128>  (323) 
0

>  <saltbridge:ASP:129>  (323) 
0

>  <hbond:THR:134>  (323) 
0

>  <pication:HIS:51>  (323) 
0

>  <hbond:SER:81>  (323) 
0

>  <hbond:GLY:159>  (323) 
0

>  <hydroph_interaction:PRO:101>  (323) 
0

>  <hydroph_interaction:THR:134>  (323) 
0

>  <hbond:GLY:82>  (323) 
0

>  <hydroph_interaction:GLU:104>  (323) 
0

>  <hydroph_interaction:VAL:36>  (323) 
0

>  <hydroph_interaction:MET:49>  (323) 
0

>  <halogenbond:GLU:104>  (323) 
0

>  <hydroph_interaction:LYS:107>  (323) 
0

$$$$
KUVSOKOYVGEETM-UHFFFAOYSA-N
     RDKit          3D

 45 49  0  0  0  0  0  0  0  0999 V2000
   -7.0649    8.8438  -24.2059 C   0  0  0  0  0  0  0  0  0  0  0  0
   -6.9785    8.3279  -25.5446 N   0  0  0  0  0  0  0  0  0  0  0  0
   -7.8717    8.7237  -26.5919 C   0  0  0  0  0  0  0  0  0  0  0  0
   -8.9195    9.5109  -26.4054 O   0  0  0  0  0  0  0  0  0  0  0  0
   -9.4797    9.6284  -27.5780 C   0  0  0  0  0  0  0  0  0  0  0  0
   -8.7622    8.9039  -28.4817 C   0  0  0  0  0  0  0  0  0  0  0  0
   -9.1234    8.8404  -29.8253 C   0  0  0  0  0  0  0  0  0  0  0  0
  -10.2692    9.5544  -30.2276 C   0  0  0  0  0  0  0  0  0  0  0  0
  -11.0125   10.3052  -29.2868 C   0  0  0  0  0  0  0  0  0  0  0  0
  -10.6159   10.3481  -27.9364 C   0  0  0  0  0  0  0  0  0  0  0  0
   -7.7197    8.3084  -27.8772 N   0  0  0  0  0  0  0  0  0  0  0  0
   -7.7626    9.8686  -23.9723 O   0  0  0  0  0  0  0  0  0  0  0  0
   -6.3218    8.2043  -23.0938 C   0  0  0  0  0  0  0  0  0  0  0  0
   -5.9646    6.8450  -23.1480 C   0  0  0  0  0  0  0  0  0  0  0  0
   -5.2805    6.2484  -22.0850 C   0  0  0  0  0  0  0  0  0  0  0  0
   -4.9363    6.9994  -20.9515 C   0  0  0  0  0  0  0  0  0  0  0  0
   -4.2479    6.3436  -19.7852 C   0  0  0  0  0  0  0  0  0  0  0  0
   -5.2362    5.8597  -18.8247 N   0  0  0  0  0  0  0  0  0  0  0  0
   -6.0372    4.6817  -18.9593 C   0  0  0  0  0  0  0  0  0  0  0  0
   -5.7981    3.7507  -19.7735 O   0  0  0  0  0  0  0  0  0  0  0  0
   -7.1727    4.7396  -18.0462 C   0  0  0  0  0  0  0  0  0  0  0  0
   -7.1045    5.9396  -17.3711 C   0  0  0  0  0  0  0  0  0  0  0  0
   -8.0678    6.3045  -16.4323 C   0  0  0  0  0  0  0  0  0  0  0  0
   -9.1200    5.4049  -16.1832 C   0  0  0  0  0  0  0  0  0  0  0  0
   -9.1896    4.1756  -16.8742 C   0  0  0  0  0  0  0  0  0  0  0  0
   -8.2074    3.8333  -17.8210 C   0  0  0  0  0  0  0  0  0  0  0  0
   -5.9244    6.6495  -17.8504 C   0  0  0  0  0  0  0  0  0  0  0  0
   -5.5617    7.7990  -17.4845 O   0  0  0  0  0  0  0  0  0  0  0  0
   -5.3043    8.3510  -20.8866 C   0  0  0  0  0  0  0  0  0  0  0  0
   -5.9918    8.9481  -21.9471 C   0  0  0  0  0  0  0  0  0  0  0  0
   -6.2131    7.6605  -25.7887 H   0  0  0  0  0  0  0  0  0  0  0  0
   -8.5465    8.2618  -30.5350 H   0  0  0  0  0  0  0  0  0  0  0  0
  -10.5832    9.5272  -31.2632 H   0  0  0  0  0  0  0  0  0  0  0  0
  -11.8915   10.8497  -29.6063 H   0  0  0  0  0  0  0  0  0  0  0  0
  -11.1740   10.9175  -27.2046 H   0  0  0  0  0  0  0  0  0  0  0  0
   -6.2378    6.2310  -23.9956 H   0  0  0  0  0  0  0  0  0  0  0  0
   -5.0277    5.1969  -22.1423 H   0  0  0  0  0  0  0  0  0  0  0  0
   -3.5655    7.0656  -19.2866 H   0  0  0  0  0  0  0  0  0  0  0  0
   -3.6213    5.4939  -20.1330 H   0  0  0  0  0  0  0  0  0  0  0  0
   -8.0090    7.2509  -15.9106 H   0  0  0  0  0  0  0  0  0  0  0  0
   -9.8829    5.6584  -15.4583 H   0  0  0  0  0  0  0  0  0  0  0  0
  -10.0051    3.4924  -16.6755 H   0  0  0  0  0  0  0  0  0  0  0  0
   -8.2551    2.8952  -18.3581 H   0  0  0  0  0  0  0  0  0  0  0  0
   -5.0631    8.9428  -20.0126 H   0  0  0  0  0  0  0  0  0  0  0  0
   -6.2603    9.9947  -21.8722 H   0  0  0  0  0  0  0  0  0  0  0  0
  1  2  1  0
  2  3  1  0
  3  4  1  0
  4  5  1  0
  5  6  2  0
  6  7  1  0
  7  8  2  0
  8  9  1  0
  9 10  2  0
  6 11  1  0
  1 12  2  0
  1 13  1  0
 13 14  2  0
 14 15  1  0
 15 16  2  0
 16 17  1  0
 17 18  1  0
 18 19  1  0
 19 20  2  0
 19 21  1  0
 21 22  2  0
 22 23  1  0
 23 24  2  0
 24 25  1  0
 25 26  2  0
 22 27  1  0
 27 28  2  0
 16 29  1  0
 29 30  2  0
  3 11  2  0
 10  5  1  0
 30 13  1  0
 27 18  1  0
 26 21  1  0
  2 31  1  0
  7 32  1  0
  8 33  1  0
  9 34  1  0
 10 35  1  0
 14 36  1  0
 15 37  1  0
 17 38  1  0
 17 39  1  0
 23 40  1  0
 24 41  1  0
 25 42  1  0
 26 43  1  0
 29 44  1  0
 30 45  1  0
A    1
 C1 
A    2
 N1 
A    3
 C2 
A    4
 O1 
A    5
 C3 
A    6
 C4 
A    7
 C5 
A    8
 C6 
A    9
 C7 
A   10
 C8 
A   11
 N2 
A   12
 O2 
A   13
 C9 
A   14
 C10
A   15
 C11
A   16
 C12
A   17
 C13
A   18
 N3 
A   19
 C14
A   20
 O3 
A   21
 C15
A   22
 C16
A   23
 C17
A   24
 C18
A   25
 C19
A   26
 C20
A   27
 C21
A   28
 O4 
A   29
 C22
A   30
 C23
A   31
 H1 
A   32
 H2 
A   33
 H3 
A   34
 H4 
A   35
 H5 
A   36
 H6 
A   37
 H7 
A   38
 H8 
A   39
 H9 
A   40
 H10
A   41
 H11
A   42
 H12
A   43
 H13
A   44
 H14
A   45
 H15
M  END
>  <ref_pdb>  (324) 
x0051_0B

>  <ref_mols>  (324) 
x0727_0B,x0846_1B

>  <original SMILES>  (324) 
[H]c1c([H])c([H])c2c(c1[H])C(=O)N(C([H])([H])c1c([H])c([H])c(C(=O)N([H])c3nc4c([H])c([H])c([H])c([H])c4o3)c([H])c1[H])C2=O

>  <index>  (324) 
463

>  <∆∆G>  (324) 
-10.13041

>  <∆G_bound>  (324) 
-9.40924

>  <∆G_unbound>  (324) 
0.72117

>  <comRMSD>  (324) 
0.605165

>  <N_constrained_atoms>  (324) 
29.0

>  <N_unconstrained_atoms>  (324) 
2.0

>  <runtime>  (324) 
48.537613

>  <LE>  (324) 
0.326787

>  <percent_hybrid>  (324) 
38.0

>  <dist>  (324) 
10.0

>  <ecfp4>  (324) 
0.166667

>  <daylight>  (324) 
0.253846

>  <topodist>  (324) 
6.0

>  <mces>  (324) 
32.0

>  <tdn>  (324) 
2.0

>  <tup>  (324) 
2.0

>  <rdn>  (324) 
0.0

>  <rup>  (324) 
0.0

>  <ldn>  (324) 
2.0

>  <lup>  (324) 
0.0

>  <mut>  (324) 
3.0

>  <maj>  (324) 
3.0

>  <min>  (324) 
0.0

>  <hyb>  (324) 
1.0

>  <sub>  (324) 
2.0

>  <query_index>  (324) 
15.0

>  <max_hit_Tanimoto>  (324) 
0.264249

>  <largest_ring>  (324) 
6

>  <N_interactions_kept>  (324) 
1.0

>  <N_interactions_lost>  (324) 
2.0

>  <interaction_uniqueness_metric>  (324) 
0.106801

>  <ad_hoc_penalty>  (324) 
-21.047101

>  <N_rotatable_bonds>  (324) 
4

>  <N_HA>  (324) 
30

>  <cluster>  (324) 
5797

>  <N_interactions>  (324) 
4

>  <Enamine>  (324) 
0

>  <Mcule>  (324) 
1

>  <N_PAINS>  (324) 
0

>  <UFF_Gibbs>  (324) 
140.876577

>  <strain_per_HA>  (324) 
4.544406

>  <saltbridge:HIS:51>  (324) 
0

>  <pistack:HIS:51>  (324) 
0

>  <hydroph_interaction:HIS:51>  (324) 
0

>  <hbond:ALA:132>  (324) 
0

>  <hbond:SER:135>  (324) 
0

>  <hydroph_interaction:TYR:150>  (324) 
1

>  <pistack:TYR:161>  (324) 
1

>  <hydroph_interaction:TYR:161>  (324) 
0

>  <hydroph_interaction:ASP:83>  (324) 
0

>  <hbond:TYR:130>  (324) 
1

>  <hydroph_interaction:ALA:132>  (324) 
0

>  <hbond:HIS:51>  (324) 
0

>  <hbond:ASP:129>  (324) 
0

>  <hbond:TYR:150>  (324) 
0

>  <hbond:GLY:151>  (324) 
0

>  <hbond:TYR:161>  (324) 
0

>  <hydroph_interaction:TYR:130>  (324) 
0

>  <hydroph_interaction:PRO:131>  (324) 
1

>  <hydroph_interaction:ASP:129>  (324) 
0

>  <saltbridge:ASP:75>  (324) 
0

>  <saltbridge:ASP:83>  (324) 
0

>  <hydroph_interaction:ASN:152>  (324) 
0

>  <halogenbond:TYR:150>  (324) 
0

>  <hbond:ASP:83>  (324) 
0

>  <hydroph_interaction:VAL:155>  (324) 
0

>  <pication:TYR:161>  (324) 
0

>  <hbond:PRO:131>  (324) 
0

>  <hbond:LEU:128>  (324) 
0

>  <saltbridge:ASP:129>  (324) 
0

>  <hbond:THR:134>  (324) 
0

>  <pication:HIS:51>  (324) 
0

>  <hbond:SER:81>  (324) 
0

>  <hbond:GLY:159>  (324) 
0

>  <hydroph_interaction:PRO:101>  (324) 
0

>  <hydroph_interaction:THR:134>  (324) 
0

>  <hbond:GLY:82>  (324) 
0

>  <hydroph_interaction:GLU:104>  (324) 
0

>  <hydroph_interaction:VAL:36>  (324) 
0

>  <hydroph_interaction:MET:49>  (324) 
0

>  <halogenbond:GLU:104>  (324) 
0

>  <hydroph_interaction:LYS:107>  (324) 
0

$$$$
CSSS00121685199
     RDKit          3D

 47 49  0  0  0  0  0  0  0  0999 V2000
   -5.6203    4.4316  -21.3044 O   0  0  0  0  0  0  0  0  0  0  0  0
   -5.5235    5.0082  -20.1874 C   0  0  0  0  0  0  0  0  0  0  0  0
   -5.4071    4.1828  -18.9422 C   0  0  0  0  0  0  0  0  0  0  0  0
   -6.6779    4.2696  -18.1417 C   0  0  0  0  0  0  0  0  0  0  0  0
   -7.7648    3.4310  -18.4456 C   0  0  0  0  0  0  0  0  0  0  0  0
   -8.9555    3.5297  -17.7181 C   0  0  0  0  0  0  0  0  0  0  0  0
   -9.0737    4.4720  -16.6924 C   0  0  0  0  0  0  0  0  0  0  0  0
   -8.0012    5.3184  -16.3926 C   0  0  0  0  0  0  0  0  0  0  0  0
   -6.8082    5.2212  -17.1160 C   0  0  0  0  0  0  0  0  0  0  0  0
   -5.5032    6.4421  -20.1012 N   0  0  0  0  0  0  0  0  0  0  0  0
   -5.8381    7.3240  -21.1870 C   0  0  0  0  0  0  0  0  0  0  0  0
   -6.8215    6.9867  -22.1326 C   0  0  0  0  0  0  0  0  0  0  0  0
   -7.1411    7.8706  -23.1678 C   0  0  0  0  0  0  0  0  0  0  0  0
   -6.4934    9.1142  -23.2704 C   0  0  0  0  0  0  0  0  0  0  0  0
   -5.5393    9.4643  -22.3004 C   0  0  0  0  0  0  0  0  0  0  0  0
   -5.2174    8.5778  -21.2689 C   0  0  0  0  0  0  0  0  0  0  0  0
   -6.8293   10.0637  -24.3577 C   0  0  0  0  0  0  0  0  0  0  0  0
   -6.6467   11.2997  -24.1793 O   0  0  0  0  0  0  0  0  0  0  0  0
   -7.3423    9.5978  -25.6151 N   0  0  0  0  0  0  0  0  0  0  0  0
   -7.8419   10.5333  -26.6234 C   0  0  0  0  0  0  0  0  0  0  0  0
   -8.3416    9.7989  -27.8769 C   0  0  0  0  0  0  0  0  0  0  0  0
   -9.5320    8.8957  -27.5876 C   0  0  0  0  0  0  0  0  0  0  0  0
  -10.2789    8.9181  -28.8837 C   0  0  0  0  0  0  0  0  0  0  0  0
   -9.8903   10.2568  -29.4838 C   0  0  0  0  0  0  0  0  0  0  0  0
   -8.7227   10.7398  -28.8562 O   0  0  0  0  0  0  0  0  0  0  0  0
   -4.5428    4.5418  -18.3427 H   0  0  0  0  0  0  0  0  0  0  0  0
   -5.1989    3.1224  -19.2057 H   0  0  0  0  0  0  0  0  0  0  0  0
   -7.6894    2.7048  -19.2456 H   0  0  0  0  0  0  0  0  0  0  0  0
   -9.7880    2.8780  -17.9524 H   0  0  0  0  0  0  0  0  0  0  0  0
   -9.9965    4.5487  -16.1320 H   0  0  0  0  0  0  0  0  0  0  0  0
   -8.0951    6.0514  -15.6010 H   0  0  0  0  0  0  0  0  0  0  0  0
   -5.9874    5.8878  -16.8769 H   0  0  0  0  0  0  0  0  0  0  0  0
   -5.1489    6.8688  -19.2150 H   0  0  0  0  0  0  0  0  0  0  0  0
   -7.3671    6.0560  -22.0568 H   0  0  0  0  0  0  0  0  0  0  0  0
   -7.9188    7.5892  -23.8653 H   0  0  0  0  0  0  0  0  0  0  0  0
   -5.0323   10.4202  -22.3459 H   0  0  0  0  0  0  0  0  0  0  0  0
   -4.4741    8.8650  -20.5363 H   0  0  0  0  0  0  0  0  0  0  0  0
   -7.3105    8.5764  -25.8314 H   0  0  0  0  0  0  0  0  0  0  0  0
   -7.0202   11.2227  -26.9158 H   0  0  0  0  0  0  0  0  0  0  0  0
   -8.6664   11.1420  -26.1906 H   0  0  0  0  0  0  0  0  0  0  0  0
   -7.5082    9.1869  -28.2913 H   0  0  0  0  0  0  0  0  0  0  0  0
   -9.2158    7.8650  -27.3159 H   0  0  0  0  0  0  0  0  0  0  0  0
  -10.1739    9.3192  -26.7822 H   0  0  0  0  0  0  0  0  0  0  0  0
   -9.9276    8.0902  -29.5397 H   0  0  0  0  0  0  0  0  0  0  0  0
  -11.3771    8.8361  -28.7285 H   0  0  0  0  0  0  0  0  0  0  0  0
   -9.7121   10.1562  -30.5760 H   0  0  0  0  0  0  0  0  0  0  0  0
  -10.7092   10.9918  -29.3258 H   0  0  0  0  0  0  0  0  0  0  0  0
  1  2  2  0
  2  3  1  0
  3  4  1  0
  4  5  2  0
  5  6  1  0
  6  7  2  0
  7  8  1  0
  8  9  2  0
  2 10  1  0
 10 11  1  0
 11 12  2  0
 12 13  1  0
 13 14  2  0
 14 15  1  0
 15 16  2  0
 14 17  1  0
 17 18  2  0
 17 19  1  0
 19 20  1  0
 20 21  1  0
 21 22  1  0
 22 23  1  0
 23 24  1  0
 24 25  1  0
  9  4  1  0
 16 11  1  0
 25 21  1  0
  3 26  1  0
  3 27  1  0
  5 28  1  0
  6 29  1  0
  7 30  1  0
  8 31  1  0
  9 32  1  0
 10 33  1  0
 12 34  1  0
 13 35  1  0
 15 36  1  0
 16 37  1  0
 19 38  1  0
 20 39  1  0
 20 40  1  0
 21 41  1  0
 22 42  1  0
 22 43  1  0
 23 44  1  0
 23 45  1  0
 24 46  1  0
 24 47  1  0
A    1
 O1 
A    2
 C1 
A    3
 C2 
A    4
 C3 
A    5
 C4 
A    6
 C5 
A    7
 C6 
A    8
 C7 
A    9
 C8 
A   10
 N1 
A   11
 C9 
A   12
 C10
A   13
 C11
A   14
 C12
A   15
 C13
A   16
 C14
A   17
 C15
A   18
 O2 
A   19
 N2 
A   20
 C16
A   21
 C17
A   22
 C18
A   23
 C19
A   24
 C20
A   25
 O3 
A   26
 H1 
A   27
 H2 
A   28
 H3 
A   29
 H4 
A   30
 H5 
A   31
 H6 
A   32
 H7 
A   33
 H8 
A   34
 H9 
A   35
 H10
A   36
 H11
A   37
 H12
A   38
 H13
A   39
 H14
A   40
 H15
A   41
 H16
A   42
 H17
A   43
 H18
A   44
 H19
A   45
 H20
A   46
 H21
A   47
 H22
M  END
>  <ref_pdb>  (325) 
x0051_0B

>  <ref_mols>  (325) 
x0846_1B,x0382_0B

>  <original SMILES>  (325) 
[H]c1c([H])c([H])c(C([H])([H])C(=O)N([H])c2c([H])c([H])c(C(=O)N([H])C([H])([H])C3([H])OC([H])([H])C([H])([H])C3([H])[H])c([H])c2[H])c([H])c1[H]

>  <index>  (325) 
448

>  <∆∆G>  (325) 
-8.026231

>  <∆G_bound>  (325) 
-7.073555

>  <∆G_unbound>  (325) 
0.952676

>  <comRMSD>  (325) 
0.923718

>  <N_constrained_atoms>  (325) 
24.0

>  <N_unconstrained_atoms>  (325) 
4.0

>  <runtime>  (325) 
60.809838

>  <LE>  (325) 
0.286651

>  <percent_hybrid>  (325) 
30.0

>  <dist>  (325) 
10.0

>  <ecfp4>  (325) 
0.2

>  <daylight>  (325) 
0.263393

>  <topodist>  (325) 
5.0

>  <mces>  (325) 
26.0

>  <tdn>  (325) 
1.0

>  <tup>  (325) 
1.0

>  <rdn>  (325) 
1.0

>  <rup>  (325) 
0.0

>  <ldn>  (325) 
2.0

>  <lup>  (325) 
0.0

>  <mut>  (325) 
4.0

>  <maj>  (325) 
4.0

>  <min>  (325) 
0.0

>  <hyb>  (325) 
1.0

>  <sub>  (325) 
2.0

>  <query_index>  (325) 
353.0

>  <max_hit_Tanimoto>  (325) 
0.18509

>  <largest_ring>  (325) 
6

>  <N_interactions_kept>  (325) 
1.0

>  <N_interactions_lost>  (325) 
0.5

>  <interaction_uniqueness_metric>  (325) 
0.062354

>  <ad_hoc_penalty>  (325) 
-21.046773

>  <N_rotatable_bonds>  (325) 
6

>  <N_HA>  (325) 
25

>  <cluster>  (325) 
5812

>  <N_interactions>  (325) 
4

>  <Enamine>  (325) 
1

>  <Mcule>  (325) 
0

>  <N_PAINS>  (325) 
0

>  <UFF_Gibbs>  (325) 
119.39463

>  <strain_per_HA>  (325) 
4.264094

>  <saltbridge:HIS:51>  (325) 
0

>  <pistack:HIS:51>  (325) 
0

>  <hydroph_interaction:HIS:51>  (325) 
0

>  <hbond:ALA:132>  (325) 
0

>  <hbond:SER:135>  (325) 
0

>  <hydroph_interaction:TYR:150>  (325) 
1

>  <pistack:TYR:161>  (325) 
1

>  <hydroph_interaction:TYR:161>  (325) 
1

>  <hydroph_interaction:ASP:83>  (325) 
0

>  <hbond:TYR:130>  (325) 
1

>  <hydroph_interaction:ALA:132>  (325) 
0

>  <hbond:HIS:51>  (325) 
0

>  <hbond:ASP:129>  (325) 
0

>  <hbond:TYR:150>  (325) 
0

>  <hbond:GLY:151>  (325) 
0

>  <hbond:TYR:161>  (325) 
0

>  <hydroph_interaction:TYR:130>  (325) 
0

>  <hydroph_interaction:PRO:131>  (325) 
0

>  <hydroph_interaction:ASP:129>  (325) 
0

>  <saltbridge:ASP:75>  (325) 
0

>  <saltbridge:ASP:83>  (325) 
0

>  <hydroph_interaction:ASN:152>  (325) 
0

>  <halogenbond:TYR:150>  (325) 
0

>  <hbond:ASP:83>  (325) 
0

>  <hydroph_interaction:VAL:155>  (325) 
0

>  <pication:TYR:161>  (325) 
0

>  <hbond:PRO:131>  (325) 
0

>  <hbond:LEU:128>  (325) 
0

>  <saltbridge:ASP:129>  (325) 
0

>  <hbond:THR:134>  (325) 
0

>  <pication:HIS:51>  (325) 
0

>  <hbond:SER:81>  (325) 
0

>  <hbond:GLY:159>  (325) 
0

>  <hydroph_interaction:PRO:101>  (325) 
0

>  <hydroph_interaction:THR:134>  (325) 
0

>  <hbond:GLY:82>  (325) 
0

>  <hydroph_interaction:GLU:104>  (325) 
0

>  <hydroph_interaction:VAL:36>  (325) 
0

>  <hydroph_interaction:MET:49>  (325) 
0

>  <halogenbond:GLU:104>  (325) 
0

>  <hydroph_interaction:LYS:107>  (325) 
0

$$$$
MCULE-2965083674
     RDKit          3D

 39 41  0  0  0  0  0  0  0  0999 V2000
   -9.6574    4.4344  -17.2671 C   0  0  0  0  0  0  0  0  0  0  0  0
  -10.1588    5.2075  -16.2181 C   0  0  0  0  0  0  0  0  0  0  0  0
   -9.3347    6.1309  -15.5686 C   0  0  0  0  0  0  0  0  0  0  0  0
   -7.9912    6.2860  -15.9624 C   0  0  0  0  0  0  0  0  0  0  0  0
   -7.4999    5.5078  -17.0237 C   0  0  0  0  0  0  0  0  0  0  0  0
   -8.3288    4.5826  -17.6741 C   0  0  0  0  0  0  0  0  0  0  0  0
   -7.8411    3.8073  -18.7237 O   0  0  0  0  0  0  0  0  0  0  0  0
   -7.1106    7.2208  -15.3130 N   0  0  0  0  0  0  0  0  0  0  0  0
   -7.4928    8.0473  -13.8353 S   0  0  0  0  0  6  0  0  0  0  0  0
   -6.2823    8.8009  -13.3618 O   0  0  0  0  0  0  0  0  0  0  0  0
   -8.6068    9.0234  -14.0928 O   0  0  0  0  0  0  0  0  0  0  0  0
   -7.9556    6.8848  -12.5963 C   0  0  0  0  0  0  0  0  0  0  0  0
   -8.9827    7.1814  -11.6922 C   0  0  0  0  0  0  0  0  0  0  0  0
   -9.3557    6.2491  -10.7199 C   0  0  0  0  0  0  0  0  0  0  0  0
   -8.6991    5.0083  -10.6313 C   0  0  0  0  0  0  0  0  0  0  0  0
   -9.0901    4.0355   -9.6417 N   0  0  0  0  0  0  0  0  0  0  0  0
   -9.0373    2.5943   -9.8333 C   0  0  0  0  0  0  0  0  0  0  0  0
   -9.7646    1.9762   -8.6250 C   0  0  0  0  0  0  0  0  0  0  0  0
   -9.9501    3.0945   -7.5906 C   0  0  0  0  0  0  0  0  0  0  0  0
   -9.5672    4.3105   -8.3346 C   0  0  0  0  0  0  0  0  0  0  0  0
   -9.5930    5.4658   -7.8327 O   0  0  0  0  0  0  0  0  0  0  0  0
   -7.6750    4.7151  -11.5488 C   0  0  0  0  0  0  0  0  0  0  0  0
   -7.3022    5.6495  -12.5187 C   0  0  0  0  0  0  0  0  0  0  0  0
  -10.3018    3.7215  -17.7658 H   0  0  0  0  0  0  0  0  0  0  0  0
  -11.1897    5.0928  -15.9086 H   0  0  0  0  0  0  0  0  0  0  0  0
   -9.7576    6.7196  -14.7678 H   0  0  0  0  0  0  0  0  0  0  0  0
   -6.4703    5.6168  -17.3414 H   0  0  0  0  0  0  0  0  0  0  0  0
   -6.8829    3.8903  -19.0429 H   0  0  0  0  0  0  0  0  0  0  0  0
   -6.1513    7.3662  -15.7001 H   0  0  0  0  0  0  0  0  0  0  0  0
   -9.5025    8.1294  -11.7443 H   0  0  0  0  0  0  0  0  0  0  0  0
  -10.1756    6.4897  -10.0571 H   0  0  0  0  0  0  0  0  0  0  0  0
   -9.5383    2.3115  -10.7845 H   0  0  0  0  0  0  0  0  0  0  0  0
   -7.9786    2.2567   -9.8479 H   0  0  0  0  0  0  0  0  0  0  0  0
  -10.7594    1.5945   -8.9439 H   0  0  0  0  0  0  0  0  0  0  0  0
   -9.1783    1.1338   -8.1976 H   0  0  0  0  0  0  0  0  0  0  0  0
  -11.0051    3.1590   -7.2480 H   0  0  0  0  0  0  0  0  0  0  0  0
   -9.2667    2.9503   -6.7264 H   0  0  0  0  0  0  0  0  0  0  0  0
   -7.1535    3.7682  -11.5093 H   0  0  0  0  0  0  0  0  0  0  0  0
   -6.5064    5.4076  -13.2119 H   0  0  0  0  0  0  0  0  0  0  0  0
  1  2  2  0
  2  3  1  0
  3  4  2  0
  4  5  1  0
  5  6  2  0
  6  7  1  0
  4  8  1  0
  8  9  1  0
  9 10  2  0
  9 11  2  0
  9 12  1  0
 12 13  2  0
 13 14  1  0
 14 15  2  0
 15 16  1  0
 16 17  1  0
 17 18  1  0
 18 19  1  0
 19 20  1  0
 20 21  2  0
 15 22  1  0
 22 23  2  0
  6  1  1  0
 12 23  1  0
 20 16  1  0
  1 24  1  0
  2 25  1  0
  3 26  1  0
  5 27  1  0
  7 28  1  0
  8 29  1  0
 13 30  1  0
 14 31  1  0
 17 32  1  0
 17 33  1  0
 18 34  1  0
 18 35  1  0
 19 36  1  0
 19 37  1  0
 22 38  1  0
 23 39  1  0
A    1
 C1 
A    2
 C2 
A    3
 C3 
A    4
 C4 
A    5
 C5 
A    6
 C6 
A    7
 O1 
A    8
 N1 
A    9
 S1 
A   10
 O2 
A   11
 O3 
A   12
 C7 
A   13
 C8 
A   14
 C9 
A   15
 C10
A   16
 N2 
A   17
 C11
A   18
 C12
A   19
 C13
A   20
 C14
A   21
 O4 
A   22
 C15
A   23
 C16
A   24
 H1 
A   25
 H2 
A   26
 H3 
A   27
 H4 
A   28
 H5 
A   29
 H6 
A   30
 H7 
A   31
 H8 
A   32
 H9 
A   33
 H10
A   34
 H11
A   35
 H12
A   36
 H13
A   37
 H14
A   38
 H15
A   39
 H16
M  END
>  <ref_pdb>  (326) 
x0051_0B

>  <ref_mols>  (326) 
x0589_0B,x0404_0B

>  <original SMILES>  (326) 
[H]Oc1c([H])c([H])c([H])c(N([H])S(=O)(=O)c2c([H])c([H])c(N3C(=O)C([H])([H])C([H])([H])C3([H])[H])c([H])c2[H])c1[H]

>  <index>  (326) 
474

>  <∆∆G>  (326) 
-6.402224

>  <∆G_bound>  (326) 
-6.305118

>  <∆G_unbound>  (326) 
0.097106

>  <comRMSD>  (326) 
0.584002

>  <N_constrained_atoms>  (326) 
23.0

>  <N_unconstrained_atoms>  (326) 
2.0

>  <runtime>  (326) 
61.819807

>  <LE>  (326) 
0.256089

>  <percent_hybrid>  (326) 
35.0

>  <dist>  (326) 
8.0

>  <ecfp4>  (326) 
0.1875

>  <daylight>  (326) 
0.28866

>  <topodist>  (326) 
4.0

>  <mces>  (326) 
24.0

>  <tdn>  (326) 
1.0

>  <tup>  (326) 
1.0

>  <rdn>  (326) 
0.0

>  <rup>  (326) 
0.0

>  <ldn>  (326) 
2.0

>  <lup>  (326) 
0.0

>  <mut>  (326) 
2.0

>  <maj>  (326) 
2.0

>  <min>  (326) 
0.0

>  <hyb>  (326) 
2.0

>  <sub>  (326) 
1.0

>  <query_index>  (326) 
29.0

>  <max_hit_Tanimoto>  (326) 
0.350224

>  <largest_ring>  (326) 
6

>  <N_interactions_kept>  (326) 
2.0

>  <N_interactions_lost>  (326) 
1.5

>  <interaction_uniqueness_metric>  (326) 
0.125383

>  <ad_hoc_penalty>  (326) 
-21.005556

>  <N_rotatable_bonds>  (326) 
5

>  <N_HA>  (326) 
23

>  <cluster>  (326) 
5787

>  <N_interactions>  (326) 
6

>  <Enamine>  (326) 
0

>  <Mcule>  (326) 
1

>  <N_PAINS>  (326) 
0

>  <UFF_Gibbs>  (326) 
116.474982

>  <strain_per_HA>  (326) 
4.658999

>  <saltbridge:HIS:51>  (326) 
0

>  <pistack:HIS:51>  (326) 
1

>  <hydroph_interaction:HIS:51>  (326) 
1

>  <hbond:ALA:132>  (326) 
0

>  <hbond:SER:135>  (326) 
0

>  <hydroph_interaction:TYR:150>  (326) 
0

>  <pistack:TYR:161>  (326) 
0

>  <hydroph_interaction:TYR:161>  (326) 
2

>  <hydroph_interaction:ASP:83>  (326) 
0

>  <hbond:TYR:130>  (326) 
1

>  <hydroph_interaction:ALA:132>  (326) 
1

>  <hbond:HIS:51>  (326) 
0

>  <hbond:ASP:129>  (326) 
0

>  <hbond:TYR:150>  (326) 
0

>  <hbond:GLY:151>  (326) 
0

>  <hbond:TYR:161>  (326) 
0

>  <hydroph_interaction:TYR:130>  (326) 
0

>  <hydroph_interaction:PRO:131>  (326) 
0

>  <hydroph_interaction:ASP:129>  (326) 
0

>  <saltbridge:ASP:75>  (326) 
0

>  <saltbridge:ASP:83>  (326) 
0

>  <hydroph_interaction:ASN:152>  (326) 
0

>  <halogenbond:TYR:150>  (326) 
0

>  <hbond:ASP:83>  (326) 
0

>  <hydroph_interaction:VAL:155>  (326) 
0

>  <pication:TYR:161>  (326) 
0

>  <hbond:PRO:131>  (326) 
0

>  <hbond:LEU:128>  (326) 
0

>  <saltbridge:ASP:129>  (326) 
0

>  <hbond:THR:134>  (326) 
0

>  <pication:HIS:51>  (326) 
0

>  <hbond:SER:81>  (326) 
0

>  <hbond:GLY:159>  (326) 
0

>  <hydroph_interaction:PRO:101>  (326) 
0

>  <hydroph_interaction:THR:134>  (326) 
0

>  <hbond:GLY:82>  (326) 
0

>  <hydroph_interaction:GLU:104>  (326) 
0

>  <hydroph_interaction:VAL:36>  (326) 
0

>  <hydroph_interaction:MET:49>  (326) 
0

>  <halogenbond:GLU:104>  (326) 
0

>  <hydroph_interaction:LYS:107>  (326) 
0

$$$$
MCULE-1782747924
     RDKit          3D

 40 42  0  0  0  0  0  0  0  0999 V2000
   -8.4218    2.2961   -7.2611 O   0  0  0  0  0  0  0  0  0  0  0  0
   -9.7494    2.4214   -7.7356 C   0  0  0  0  0  0  0  0  0  0  0  0
   -9.7650    2.7212   -9.2377 C   0  0  0  0  0  0  0  0  0  0  0  0
   -8.9072    3.8764   -9.5189 N   0  0  0  0  0  0  0  0  0  0  0  0
   -7.5986    3.9264   -8.8590 C   0  0  0  0  0  0  0  0  0  0  0  0
   -7.7495    3.5354   -7.3859 C   0  0  0  0  0  0  0  0  0  0  0  0
   -9.1716    4.7199  -10.6565 C   0  0  0  0  0  0  0  0  0  0  0  0
   -9.0267    6.1107  -10.5526 C   0  0  0  0  0  0  0  0  0  0  0  0
   -9.2849    6.9348  -11.6511 C   0  0  0  0  0  0  0  0  0  0  0  0
   -9.6942    6.3871  -12.8814 C   0  0  0  0  0  0  0  0  0  0  0  0
   -9.8489    4.9908  -12.9769 C   0  0  0  0  0  0  0  0  0  0  0  0
   -9.5910    4.1682  -11.8770 C   0  0  0  0  0  0  0  0  0  0  0  0
   -9.9539    7.2852  -14.0413 C   0  0  0  0  0  0  0  0  0  0  0  0
  -10.1416    6.7697  -15.4452 C   0  0  0  0  0  0  0  0  0  0  0  0
   -8.8464    6.2400  -16.0059 C   0  0  0  0  0  0  0  0  0  0  0  0
   -7.7478    7.1000  -16.1806 C   0  0  0  0  0  0  0  0  0  0  0  0
   -6.5453    6.6120  -16.7009 C   0  0  0  0  0  0  0  0  0  0  0  0
   -6.4314    5.2658  -17.0572 C   0  0  0  0  0  0  0  0  0  0  0  0
   -7.5214    4.4061  -16.8976 C   0  0  0  0  0  0  0  0  0  0  0  0
   -8.7261    4.8897  -16.3779 C   0  0  0  0  0  0  0  0  0  0  0  0
   -9.9869    8.5333  -13.8607 O   0  0  0  0  0  0  0  0  0  0  0  0
  -10.2801    1.4623   -7.5586 H   0  0  0  0  0  0  0  0  0  0  0  0
  -10.3033    3.2094   -7.1758 H   0  0  0  0  0  0  0  0  0  0  0  0
   -9.3879    1.8373   -9.7963 H   0  0  0  0  0  0  0  0  0  0  0  0
  -10.8108    2.9282   -9.5541 H   0  0  0  0  0  0  0  0  0  0  0  0
   -7.1531    4.9417   -8.9207 H   0  0  0  0  0  0  0  0  0  0  0  0
   -6.9105    3.2135   -9.3627 H   0  0  0  0  0  0  0  0  0  0  0  0
   -6.7382    3.4354   -6.9386 H   0  0  0  0  0  0  0  0  0  0  0  0
   -8.2783    4.3383   -6.8227 H   0  0  0  0  0  0  0  0  0  0  0  0
   -8.7290    6.5610   -9.6144 H   0  0  0  0  0  0  0  0  0  0  0  0
   -9.1596    8.0042  -11.5357 H   0  0  0  0  0  0  0  0  0  0  0  0
  -10.1761    4.5231  -13.8930 H   0  0  0  0  0  0  0  0  0  0  0  0
   -9.7085    3.0974  -11.9831 H   0  0  0  0  0  0  0  0  0  0  0  0
  -10.4960    7.5947  -16.1011 H   0  0  0  0  0  0  0  0  0  0  0  0
  -10.9419    5.9999  -15.4610 H   0  0  0  0  0  0  0  0  0  0  0  0
   -7.8233    8.1462  -15.9110 H   0  0  0  0  0  0  0  0  0  0  0  0
   -5.7018    7.2781  -16.8288 H   0  0  0  0  0  0  0  0  0  0  0  0
   -5.5000    4.8896  -17.4600 H   0  0  0  0  0  0  0  0  0  0  0  0
   -7.4335    3.3646  -17.1788 H   0  0  0  0  0  0  0  0  0  0  0  0
   -9.5624    4.2109  -16.2685 H   0  0  0  0  0  0  0  0  0  0  0  0
  1  2  1  0
  2  3  1  0
  3  4  1  0
  4  5  1  0
  5  6  1  0
  4  7  1  0
  7  8  2  0
  8  9  1  0
  9 10  2  0
 10 11  1  0
 11 12  2  0
 10 13  1  0
 13 14  1  0
 14 15  1  0
 15 16  2  0
 16 17  1  0
 17 18  2  0
 18 19  1  0
 19 20  2  0
 13 21  2  0
  6  1  1  0
 12  7  1  0
 20 15  1  0
  2 22  1  0
  2 23  1  0
  3 24  1  0
  3 25  1  0
  5 26  1  0
  5 27  1  0
  6 28  1  0
  6 29  1  0
  8 30  1  0
  9 31  1  0
 11 32  1  0
 12 33  1  0
 14 34  1  0
 14 35  1  0
 16 36  1  0
 17 37  1  0
 18 38  1  0
 19 39  1  0
 20 40  1  0
A    1
 O1 
A    2
 C1 
A    3
 C2 
A    4
 N1 
A    5
 C3 
A    6
 C4 
A    7
 C5 
A    8
 C6 
A    9
 C7 
A   10
 C8 
A   11
 C9 
A   12
 C10
A   13
 C11
A   14
 C12
A   15
 C13
A   16
 C14
A   17
 C15
A   18
 C16
A   19
 C17
A   20
 C18
A   21
 O2 
A   22
 H1 
A   23
 H2 
A   24
 H3 
A   25
 H4 
A   26
 H5 
A   27
 H6 
A   28
 H7 
A   29
 H8 
A   30
 H9 
A   31
 H10
A   32
 H11
A   33
 H12
A   34
 H13
A   35
 H14
A   36
 H15
A   37
 H16
A   38
 H17
A   39
 H18
A   40
 H19
M  END
>  <ref_pdb>  (327) 
x0051_0B

>  <ref_mols>  (327) 
x0589_0B,x0404_0B

>  <original SMILES>  (327) 
[H]c1c([H])c([H])c(C([H])([H])C(=O)c2c([H])c([H])c(N3C([H])([H])C([H])([H])OC([H])([H])C3([H])[H])c([H])c2[H])c([H])c1[H]

>  <index>  (327) 
221

>  <∆∆G>  (327) 
-6.734488

>  <∆G_bound>  (327) 
-6.32188

>  <∆G_unbound>  (327) 
0.412608

>  <comRMSD>  (327) 
0.646607

>  <N_constrained_atoms>  (327) 
23.0

>  <N_unconstrained_atoms>  (327) 
0.0

>  <runtime>  (327) 
90.848674

>  <LE>  (327) 
0.292804

>  <percent_hybrid>  (327) 
35.0

>  <dist>  (327) 
7.0

>  <ecfp4>  (327) 
0.202899

>  <daylight>  (327) 
0.231638

>  <topodist>  (327) 
4.0

>  <mces>  (327) 
23.0

>  <tdn>  (327) 
3.0

>  <tup>  (327) 
0.0

>  <rdn>  (327) 
0.0

>  <rup>  (327) 
0.0

>  <ldn>  (327) 
1.0

>  <lup>  (327) 
0.0

>  <mut>  (327) 
3.0

>  <maj>  (327) 
3.0

>  <min>  (327) 
0.0

>  <hyb>  (327) 
0.0

>  <sub>  (327) 
2.0

>  <query_index>  (327) 
29.0

>  <max_hit_Tanimoto>  (327) 
0.265568

>  <largest_ring>  (327) 
6

>  <N_interactions_kept>  (327) 
2.0

>  <N_interactions_lost>  (327) 
1.5

>  <interaction_uniqueness_metric>  (327) 
0.116545

>  <ad_hoc_penalty>  (327) 
-20.959881

>  <N_rotatable_bonds>  (327) 
4

>  <N_HA>  (327) 
21

>  <cluster>  (327) 
6017

>  <N_interactions>  (327) 
6

>  <Enamine>  (327) 
0

>  <Mcule>  (327) 
1

>  <N_PAINS>  (327) 
0

>  <UFF_Gibbs>  (327) 
217.121008

>  <strain_per_HA>  (327) 
9.440044

>  <saltbridge:HIS:51>  (327) 
0

>  <pistack:HIS:51>  (327) 
1

>  <hydroph_interaction:HIS:51>  (327) 
1

>  <hbond:ALA:132>  (327) 
0

>  <hbond:SER:135>  (327) 
0

>  <hydroph_interaction:TYR:150>  (327) 
1

>  <pistack:TYR:161>  (327) 
0

>  <hydroph_interaction:TYR:161>  (327) 
2

>  <hydroph_interaction:ASP:83>  (327) 
0

>  <hbond:TYR:130>  (327) 
0

>  <hydroph_interaction:ALA:132>  (327) 
1

>  <hbond:HIS:51>  (327) 
0

>  <hbond:ASP:129>  (327) 
0

>  <hbond:TYR:150>  (327) 
0

>  <hbond:GLY:151>  (327) 
0

>  <hbond:TYR:161>  (327) 
0

>  <hydroph_interaction:TYR:130>  (327) 
0

>  <hydroph_interaction:PRO:131>  (327) 
0

>  <hydroph_interaction:ASP:129>  (327) 
0

>  <saltbridge:ASP:75>  (327) 
0

>  <saltbridge:ASP:83>  (327) 
0

>  <hydroph_interaction:ASN:152>  (327) 
0

>  <halogenbond:TYR:150>  (327) 
0

>  <hbond:ASP:83>  (327) 
0

>  <hydroph_interaction:VAL:155>  (327) 
0

>  <pication:TYR:161>  (327) 
0

>  <hbond:PRO:131>  (327) 
0

>  <hbond:LEU:128>  (327) 
0

>  <saltbridge:ASP:129>  (327) 
0

>  <hbond:THR:134>  (327) 
0

>  <pication:HIS:51>  (327) 
0

>  <hbond:SER:81>  (327) 
0

>  <hbond:GLY:159>  (327) 
0

>  <hydroph_interaction:PRO:101>  (327) 
0

>  <hydroph_interaction:THR:134>  (327) 
0

>  <hbond:GLY:82>  (327) 
0

>  <hydroph_interaction:GLU:104>  (327) 
0

>  <hydroph_interaction:VAL:36>  (327) 
0

>  <hydroph_interaction:MET:49>  (327) 
0

>  <halogenbond:GLU:104>  (327) 
0

>  <hydroph_interaction:LYS:107>  (327) 
0

$$$$
LZNNYKQNRIPHRB-UHFFFAOYSA-N
     RDKit          3D

 34 37  0  0  0  0  0  0  0  0999 V2000
   -8.6959    6.2497  -12.6992 C   0  0  0  0  0  0  0  0  0  0  0  0
   -8.0340    5.3570  -13.6053 N   0  0  0  0  0  0  0  0  0  0  0  0
   -8.3830    5.2340  -14.9963 C   0  0  0  0  0  0  0  0  0  0  0  0
   -7.4202    4.8337  -15.9372 C   0  0  0  0  0  0  0  0  0  0  0  0
   -7.7706    4.6863  -17.3101 C   0  0  0  0  0  0  0  0  0  0  0  0
   -6.7834    4.3047  -18.1588 N   0  0  0  0  0  0  0  0  0  0  0  0
   -5.5200    4.1806  -17.0993 S   0  0  0  0  0  0  0  0  0  0  0  0
   -6.1263    4.5790  -15.6134 N   0  0  0  0  0  0  0  0  0  0  0  0
   -9.0759    4.9281  -17.7352 C   0  0  0  0  0  0  0  0  0  0  0  0
  -10.0404    5.3112  -16.7965 C   0  0  0  0  0  0  0  0  0  0  0  0
   -9.7025    5.4579  -15.4420 C   0  0  0  0  0  0  0  0  0  0  0  0
   -9.2126    7.3155  -13.1317 O   0  0  0  0  0  0  0  0  0  0  0  0
   -8.7191    5.9766  -11.2516 C   0  0  0  0  0  0  0  0  0  0  0  0
   -8.7162    4.7586  -10.5894 C   0  0  0  0  0  0  0  0  0  0  0  0
   -8.8696    5.0006   -9.2734 N   0  0  0  0  0  0  0  0  0  0  0  0
   -8.9219    3.9828   -8.2261 C   0  0  0  0  0  0  0  0  0  0  0  0
   -9.3736    2.6354   -8.8080 C   0  0  0  0  0  0  0  0  0  0  0  0
   -8.5915    2.3092  -10.0892 C   0  0  0  0  0  0  0  0  0  0  0  0
   -8.8142    3.3754  -11.1740 C   0  0  0  0  0  0  0  0  0  0  0  0
   -8.9327    6.3033   -9.0512 N   0  0  0  0  0  0  0  0  0  0  0  0
   -8.8540    6.9217  -10.2468 C   0  0  0  0  0  0  0  0  0  0  0  0
   -7.1850    4.8599  -13.2553 H   0  0  0  0  0  0  0  0  0  0  0  0
   -9.3456    4.8156  -18.7778 H   0  0  0  0  0  0  0  0  0  0  0  0
  -11.0588    5.4885  -17.1172 H   0  0  0  0  0  0  0  0  0  0  0  0
  -10.4813    5.7265  -14.7406 H   0  0  0  0  0  0  0  0  0  0  0  0
   -9.6302    4.2976   -7.4297 H   0  0  0  0  0  0  0  0  0  0  0  0
   -7.9114    3.8745   -7.7765 H   0  0  0  0  0  0  0  0  0  0  0  0
   -9.2083    1.8342   -8.0559 H   0  0  0  0  0  0  0  0  0  0  0  0
  -10.4609    2.6758   -9.0382 H   0  0  0  0  0  0  0  0  0  0  0  0
   -8.9141    1.3190  -10.4770 H   0  0  0  0  0  0  0  0  0  0  0  0
   -7.5068    2.2444   -9.8507 H   0  0  0  0  0  0  0  0  0  0  0  0
   -9.8254    3.2473  -11.6164 H   0  0  0  0  0  0  0  0  0  0  0  0
   -8.0591    3.2282  -11.9701 H   0  0  0  0  0  0  0  0  0  0  0  0
   -8.9047    7.9944  -10.3789 H   0  0  0  0  0  0  0  0  0  0  0  0
  1  2  1  0
  2  3  1  0
  3  4  1  0
  4  5  1  0
  5  6  2  0
  6  7  1  0
  7  8  1  0
  5  9  1  0
  9 10  2  0
 10 11  1  0
  1 12  2  0
  1 13  1  0
 13 14  2  0
 14 15  1  0
 15 16  1  0
 16 17  1  0
 17 18  1  0
 18 19  1  0
 15 20  1  0
 20 21  2  0
  3 11  2  0
  4  8  2  0
 21 13  1  0
 19 14  1  0
  2 22  1  0
  9 23  1  0
 10 24  1  0
 11 25  1  0
 16 26  1  0
 16 27  1  0
 17 28  1  0
 17 29  1  0
 18 30  1  0
 18 31  1  0
 19 32  1  0
 19 33  1  0
 21 34  1  0
A    1
 C1 
A    2
 N1 
A    3
 C2 
A    4
 C3 
A    5
 C4 
A    6
 N2 
A    7
 S1 
A    8
 N3 
A    9
 C5 
A   10
 C6 
A   11
 C7 
A   12
 O1 
A   13
 C8 
A   14
 C9 
A   15
 N4 
A   16
 C10
A   17
 C11
A   18
 C12
A   19
 C13
A   20
 N5 
A   21
 C14
A   22
 H1 
A   23
 H2 
A   24
 H3 
A   25
 H4 
A   26
 H5 
A   27
 H6 
A   28
 H7 
A   29
 H8 
A   30
 H9 
A   31
 H10
A   32
 H11
A   33
 H12
A   34
 H13
M  END
>  <ref_pdb>  (328) 
x0051_0B

>  <ref_mols>  (328) 
x0435_0B,x0969_1B

>  <original SMILES>  (328) 
[H]c1nn2c(c1C(=O)N([H])c1c([H])c([H])c([H])c3nsnc13)C([H])([H])C([H])([H])C([H])([H])C2([H])[H]

>  <index>  (328) 
416

>  <∆∆G>  (328) 
-5.637618

>  <∆G_bound>  (328) 
-4.75247

>  <∆G_unbound>  (328) 
0.885148

>  <comRMSD>  (328) 
0.741126

>  <N_constrained_atoms>  (328) 
19.0

>  <N_unconstrained_atoms>  (328) 
2.0

>  <runtime>  (328) 
36.290642

>  <LE>  (328) 
0.268458

>  <percent_hybrid>  (328) 
48.0

>  <dist>  (328) 
9.0

>  <ecfp4>  (328) 
0.162791

>  <daylight>  (328) 
0.25419

>  <topodist>  (328) 
3.0

>  <mces>  (328) 
23.0

>  <tdn>  (328) 
1.0

>  <tup>  (328) 
1.0

>  <rdn>  (328) 
0.0

>  <rup>  (328) 
0.0

>  <ldn>  (328) 
1.0

>  <lup>  (328) 
0.0

>  <mut>  (328) 
5.0

>  <maj>  (328) 
5.0

>  <min>  (328) 
0.0

>  <hyb>  (328) 
1.0

>  <sub>  (328) 
0.0

>  <query_index>  (328) 
311.0

>  <max_hit_Tanimoto>  (328) 
0.310917

>  <largest_ring>  (328) 
6

>  <N_interactions_kept>  (328) 
2.0

>  <N_interactions_lost>  (328) 
1.5

>  <interaction_uniqueness_metric>  (328) 
0.130457

>  <ad_hoc_penalty>  (328) 
-20.934964

>  <N_rotatable_bonds>  (328) 
2

>  <N_HA>  (328) 
21

>  <cluster>  (328) 
5839

>  <N_interactions>  (328) 
5

>  <Enamine>  (328) 
0

>  <Mcule>  (328) 
1

>  <N_PAINS>  (328) 
0

>  <UFF_Gibbs>  (328) 
119.656737

>  <strain_per_HA>  (328) 
5.69794

>  <saltbridge:HIS:51>  (328) 
0

>  <pistack:HIS:51>  (328) 
1

>  <hydroph_interaction:HIS:51>  (328) 
1

>  <hbond:ALA:132>  (328) 
0

>  <hbond:SER:135>  (328) 
0

>  <hydroph_interaction:TYR:150>  (328) 
0

>  <pistack:TYR:161>  (328) 
1

>  <hydroph_interaction:TYR:161>  (328) 
1

>  <hydroph_interaction:ASP:83>  (328) 
0

>  <hbond:TYR:130>  (328) 
0

>  <hydroph_interaction:ALA:132>  (328) 
0

>  <hbond:HIS:51>  (328) 
0

>  <hbond:ASP:129>  (328) 
0

>  <hbond:TYR:150>  (328) 
0

>  <hbond:GLY:151>  (328) 
0

>  <hbond:TYR:161>  (328) 
1

>  <hydroph_interaction:TYR:130>  (328) 
0

>  <hydroph_interaction:PRO:131>  (328) 
0

>  <hydroph_interaction:ASP:129>  (328) 
0

>  <saltbridge:ASP:75>  (328) 
0

>  <saltbridge:ASP:83>  (328) 
0

>  <hydroph_interaction:ASN:152>  (328) 
0

>  <halogenbond:TYR:150>  (328) 
0

>  <hbond:ASP:83>  (328) 
0

>  <hydroph_interaction:VAL:155>  (328) 
0

>  <pication:TYR:161>  (328) 
0

>  <hbond:PRO:131>  (328) 
0

>  <hbond:LEU:128>  (328) 
0

>  <saltbridge:ASP:129>  (328) 
0

>  <hbond:THR:134>  (328) 
0

>  <pication:HIS:51>  (328) 
0

>  <hbond:SER:81>  (328) 
0

>  <hbond:GLY:159>  (328) 
0

>  <hydroph_interaction:PRO:101>  (328) 
0

>  <hydroph_interaction:THR:134>  (328) 
0

>  <hbond:GLY:82>  (328) 
0

>  <hydroph_interaction:GLU:104>  (328) 
0

>  <hydroph_interaction:VAL:36>  (328) 
0

>  <hydroph_interaction:MET:49>  (328) 
0

>  <halogenbond:GLU:104>  (328) 
0

>  <hydroph_interaction:LYS:107>  (328) 
0

$$$$
PV-002199476813
     RDKit          3D

 44 46  0  0  0  0  0  0  0  0999 V2000
  -10.5853    3.0737  -17.8772 C   0  0  0  0  0  0  0  0  0  0  0  0
   -9.0990    2.8266  -18.1313 C   0  0  0  0  0  0  0  0  0  0  0  0
   -8.2876    4.0408  -17.7631 C   0  0  0  0  0  0  0  0  0  0  0  0
   -8.1164    5.0852  -18.6898 C   0  0  0  0  0  0  0  0  0  0  0  0
   -7.4103    6.2363  -18.3314 C   0  0  0  0  0  0  0  0  0  0  0  0
   -6.8776    6.3615  -17.0454 C   0  0  0  0  0  0  0  0  0  0  0  0
   -7.0368    5.3268  -16.1094 C   0  0  0  0  0  0  0  0  0  0  0  0
   -6.5161    5.4914  -14.7114 C   0  0  0  0  0  0  0  0  0  0  0  0
   -7.5397    6.0541  -13.8991 O   0  0  0  0  0  0  0  0  0  0  0  0
   -7.3174    6.4744  -12.5840 C   0  0  0  0  0  0  0  0  0  0  0  0
   -6.1547    6.4490  -12.0863 O   0  0  0  0  0  0  0  0  0  0  0  0
   -8.4654    7.0090  -11.7841 C   0  0  0  0  0  0  0  0  0  0  0  0
   -8.5007    6.3853  -10.4209 C   0  0  0  0  0  0  0  0  0  0  0  0
   -8.8669    5.0974  -10.0839 C   0  0  0  0  0  0  0  0  0  0  0  0
   -9.4320    4.0291  -10.9763 C   0  0  0  0  0  0  0  0  0  0  0  0
   -9.3571    2.6585  -10.2817 C   0  0  0  0  0  0  0  0  0  0  0  0
   -9.8309    2.7411   -8.8206 C   0  0  0  0  0  0  0  0  0  0  0  0
   -8.9473    3.7097   -8.0119 C   0  0  0  0  0  0  0  0  0  0  0  0
   -8.7314    4.9530   -8.7525 N   0  0  0  0  0  0  0  0  0  0  0  0
   -8.2460    6.0672   -8.2235 N   0  0  0  0  0  0  0  0  0  0  0  0
   -8.1021    6.9623   -9.2251 C   0  0  0  0  0  0  0  0  0  0  0  0
   -7.7583    4.1756  -16.4672 C   0  0  0  0  0  0  0  0  0  0  0  0
  -10.7634    3.2596  -16.7944 H   0  0  0  0  0  0  0  0  0  0  0  0
  -10.9382    3.9530  -18.4661 H   0  0  0  0  0  0  0  0  0  0  0  0
  -11.1733    2.1782  -18.1880 H   0  0  0  0  0  0  0  0  0  0  0  0
   -8.9470    2.5771  -19.2057 H   0  0  0  0  0  0  0  0  0  0  0  0
   -8.7668    1.9452  -17.5351 H   0  0  0  0  0  0  0  0  0  0  0  0
   -8.5368    5.0080  -19.6858 H   0  0  0  0  0  0  0  0  0  0  0  0
   -7.2790    7.0369  -19.0492 H   0  0  0  0  0  0  0  0  0  0  0  0
   -6.3430    7.2660  -16.7784 H   0  0  0  0  0  0  0  0  0  0  0  0
   -5.6253    6.1581  -14.7139 H   0  0  0  0  0  0  0  0  0  0  0  0
   -6.2084    4.5065  -14.2940 H   0  0  0  0  0  0  0  0  0  0  0  0
   -9.4225    6.7883  -12.3086 H   0  0  0  0  0  0  0  0  0  0  0  0
   -8.3640    8.1127  -11.6947 H   0  0  0  0  0  0  0  0  0  0  0  0
  -10.4929    4.2735  -11.2003 H   0  0  0  0  0  0  0  0  0  0  0  0
   -8.8665    3.9939  -11.9324 H   0  0  0  0  0  0  0  0  0  0  0  0
   -8.3088    2.2868  -10.3080 H   0  0  0  0  0  0  0  0  0  0  0  0
   -9.9926    1.9319  -10.8353 H   0  0  0  0  0  0  0  0  0  0  0  0
  -10.8870    3.0905   -8.7960 H   0  0  0  0  0  0  0  0  0  0  0  0
   -9.7918    1.7300   -8.3564 H   0  0  0  0  0  0  0  0  0  0  0  0
   -7.9627    3.2345   -7.8109 H   0  0  0  0  0  0  0  0  0  0  0  0
   -9.4359    3.9324   -7.0391 H   0  0  0  0  0  0  0  0  0  0  0  0
   -7.7201    7.9674   -9.0935 H   0  0  0  0  0  0  0  0  0  0  0  0
   -7.9099    3.3866  -15.7383 H   0  0  0  0  0  0  0  0  0  0  0  0
  1  2  1  0
  2  3  1  0
  3  4  2  0
  4  5  1  0
  5  6  2  0
  6  7  1  0
  7  8  1  0
  8  9  1  0
  9 10  1  0
 10 11  2  0
 10 12  1  0
 12 13  1  0
 13 14  2  0
 14 15  1  0
 15 16  1  0
 16 17  1  0
 17 18  1  0
 18 19  1  0
 19 20  1  0
 20 21  2  0
  7 22  2  0
 22  3  1  0
 21 13  1  0
 19 14  1  0
  1 23  1  0
  1 24  1  0
  1 25  1  0
  2 26  1  0
  2 27  1  0
  4 28  1  0
  5 29  1  0
  6 30  1  0
  8 31  1  0
  8 32  1  0
 12 33  1  0
 12 34  1  0
 15 35  1  0
 15 36  1  0
 16 37  1  0
 16 38  1  0
 17 39  1  0
 17 40  1  0
 18 41  1  0
 18 42  1  0
 21 43  1  0
 22 44  1  0
A    1
 C1 
A    2
 C2 
A    3
 C3 
A    4
 C4 
A    5
 C5 
A    6
 C6 
A    7
 C7 
A    8
 C8 
A    9
 O1 
A   10
 C9 
A   11
 O2 
A   12
 C10
A   13
 C11
A   14
 C12
A   15
 C13
A   16
 C14
A   17
 C15
A   18
 C16
A   19
 N1 
A   20
 N2 
A   21
 C17
A   22
 C18
A   23
 H1 
A   24
 H2 
A   25
 H3 
A   26
 H4 
A   27
 H5 
A   28
 H6 
A   29
 H7 
A   30
 H8 
A   31
 H9 
A   32
 H10
A   33
 H11
A   34
 H12
A   35
 H13
A   36
 H14
A   37
 H15
A   38
 H16
A   39
 H17
A   40
 H18
A   41
 H19
A   42
 H20
A   43
 H21
A   44
 H22
M  END
>  <ref_pdb>  (329) 
x0051_0B

>  <ref_mols>  (329) 
x0605_0B,x0969_1B

>  <original SMILES>  (329) 
[H]c1nn2c(c1C([H])([H])C(=O)OC([H])([H])c1c([H])c([H])c([H])c(C([H])([H])C([H])([H])[H])c1[H])C([H])([H])C([H])([H])C([H])([H])C2([H])[H]

>  <index>  (329) 
501

>  <∆∆G>  (329) 
-9.242672

>  <∆G_bound>  (329) 
-8.42517

>  <∆G_unbound>  (329) 
0.817503

>  <comRMSD>  (329) 
0.668356

>  <N_constrained_atoms>  (329) 
19.0

>  <N_unconstrained_atoms>  (329) 
3.0

>  <runtime>  (329) 
50.758898

>  <LE>  (329) 
0.420121

>  <percent_hybrid>  (329) 
48.0

>  <dist>  (329) 
5.0

>  <ecfp4>  (329) 
0.352113

>  <daylight>  (329) 
0.462151

>  <topodist>  (329) 
1.0

>  <mces>  (329) 
23.0

>  <tdn>  (329) 
0.0

>  <tup>  (329) 
1.0

>  <rdn>  (329) 
0.0

>  <rup>  (329) 
0.0

>  <ldn>  (329) 
0.0

>  <lup>  (329) 
0.0

>  <mut>  (329) 
1.0

>  <maj>  (329) 
1.0

>  <min>  (329) 
0.0

>  <hyb>  (329) 
3.0

>  <sub>  (329) 
0.0

>  <query_index>  (329) 
307.0

>  <max_hit_Tanimoto>  (329) 
0.313417

>  <largest_ring>  (329) 
6

>  <N_interactions_kept>  (329) 
1.5

>  <N_interactions_lost>  (329) 
1.5

>  <interaction_uniqueness_metric>  (329) 
0.150629

>  <ad_hoc_penalty>  (329) 
-20.897861

>  <N_rotatable_bonds>  (329) 
6

>  <N_HA>  (329) 
22

>  <cluster>  (329) 
5760

>  <N_interactions>  (329) 
5

>  <Enamine>  (329) 
1

>  <Mcule>  (329) 
0

>  <N_PAINS>  (329) 
0

>  <UFF_Gibbs>  (329) 
98.035426

>  <strain_per_HA>  (329) 
4.456156

>  <saltbridge:HIS:51>  (329) 
0

>  <pistack:HIS:51>  (329) 
1

>  <hydroph_interaction:HIS:51>  (329) 
0

>  <hbond:ALA:132>  (329) 
0

>  <hbond:SER:135>  (329) 
0

>  <hydroph_interaction:TYR:150>  (329) 
1

>  <pistack:TYR:161>  (329) 
1

>  <hydroph_interaction:TYR:161>  (329) 
1

>  <hydroph_interaction:ASP:83>  (329) 
1

>  <hbond:TYR:130>  (329) 
0

>  <hydroph_interaction:ALA:132>  (329) 
0

>  <hbond:HIS:51>  (329) 
0

>  <hbond:ASP:129>  (329) 
0

>  <hbond:TYR:150>  (329) 
0

>  <hbond:GLY:151>  (329) 
0

>  <hbond:TYR:161>  (329) 
0

>  <hydroph_interaction:TYR:130>  (329) 
0

>  <hydroph_interaction:PRO:131>  (329) 
0

>  <hydroph_interaction:ASP:129>  (329) 
0

>  <saltbridge:ASP:75>  (329) 
0

>  <saltbridge:ASP:83>  (329) 
0

>  <hydroph_interaction:ASN:152>  (329) 
0

>  <halogenbond:TYR:150>  (329) 
0

>  <hbond:ASP:83>  (329) 
0

>  <hydroph_interaction:VAL:155>  (329) 
0

>  <pication:TYR:161>  (329) 
0

>  <hbond:PRO:131>  (329) 
0

>  <hbond:LEU:128>  (329) 
0

>  <saltbridge:ASP:129>  (329) 
0

>  <hbond:THR:134>  (329) 
0

>  <pication:HIS:51>  (329) 
0

>  <hbond:SER:81>  (329) 
0

>  <hbond:GLY:159>  (329) 
0

>  <hydroph_interaction:PRO:101>  (329) 
0

>  <hydroph_interaction:THR:134>  (329) 
0

>  <hbond:GLY:82>  (329) 
0

>  <hydroph_interaction:GLU:104>  (329) 
0

>  <hydroph_interaction:VAL:36>  (329) 
0

>  <hydroph_interaction:MET:49>  (329) 
0

>  <halogenbond:GLU:104>  (329) 
0

>  <hydroph_interaction:LYS:107>  (329) 
0

$$$$
Z2834780835
     RDKit          3D

 49 51  0  0  0  0  0  0  0  0999 V2000
   -2.0934    5.3464  -21.0753 C   0  0  0  0  0  0  0  0  0  0  0  0
   -3.5586    5.3999  -21.1054 N   0  0  0  0  0  0  0  0  0  0  0  0
   -4.2612    5.6537  -22.3682 C   0  0  0  0  0  0  0  0  0  0  0  0
   -4.2954    5.2000  -19.8798 C   0  0  0  0  0  0  0  0  0  0  0  0
   -3.6714    4.9837  -18.8041 O   0  0  0  0  0  0  0  0  0  0  0  0
   -5.7988    5.2447  -19.8571 C   0  0  0  0  0  0  0  0  0  0  0  0
   -6.2853    5.0179  -18.5354 O   0  0  0  0  0  0  0  0  0  0  0  0
   -7.6428    4.9990  -18.1822 C   0  0  0  0  0  0  0  0  0  0  0  0
   -8.6699    5.2021  -19.1231 C   0  0  0  0  0  0  0  0  0  0  0  0
  -10.0072    5.1564  -18.7231 C   0  0  0  0  0  0  0  0  0  0  0  0
  -10.3329    4.9192  -17.3860 C   0  0  0  0  0  0  0  0  0  0  0  0
   -9.3226    4.7406  -16.4304 C   0  0  0  0  0  0  0  0  0  0  0  0
   -9.6842    4.4767  -15.0638 N   0  0  0  0  0  0  0  0  0  0  0  0
   -8.9284    4.9248  -13.9281 C   0  0  0  0  0  0  0  0  0  0  0  0
   -8.0000    5.7645  -14.0753 O   0  0  0  0  0  0  0  0  0  0  0  0
   -9.2475    4.4147  -12.6250 N   0  0  0  0  0  0  0  0  0  0  0  0
   -8.6958    4.9165  -11.3971 C   0  0  0  0  0  0  0  0  0  0  0  0
   -8.7612    4.3059  -10.1638 C   0  0  0  0  0  0  0  0  0  0  0  0
   -9.4190    3.0069   -9.8039 C   0  0  0  0  0  0  0  0  0  0  0  0
   -8.9719    2.5509   -8.4057 C   0  0  0  0  0  0  0  0  0  0  0  0
   -9.0044    3.7128   -7.3985 C   0  0  0  0  0  0  0  0  0  0  0  0
   -8.0563    4.8425   -7.8339 C   0  0  0  0  0  0  0  0  0  0  0  0
   -8.2286    5.1412   -9.2543 N   0  0  0  0  0  0  0  0  0  0  0  0
   -7.7996    6.2450   -9.8474 N   0  0  0  0  0  0  0  0  0  0  0  0
   -8.0836    6.1399  -11.1639 C   0  0  0  0  0  0  0  0  0  0  0  0
   -7.9775    4.7635  -16.8427 C   0  0  0  0  0  0  0  0  0  0  0  0
   -1.6526    5.5157  -22.0800 H   0  0  0  0  0  0  0  0  0  0  0  0
   -1.7627    4.3491  -20.7158 H   0  0  0  0  0  0  0  0  0  0  0  0
   -1.7043    6.1292  -20.3904 H   0  0  0  0  0  0  0  0  0  0  0  0
   -4.9249    4.7971  -22.6091 H   0  0  0  0  0  0  0  0  0  0  0  0
   -3.5539    5.7854  -23.2135 H   0  0  0  0  0  0  0  0  0  0  0  0
   -4.8671    6.5799  -22.2829 H   0  0  0  0  0  0  0  0  0  0  0  0
   -6.1939    4.4575  -20.5339 H   0  0  0  0  0  0  0  0  0  0  0  0
   -6.1357    6.2440  -20.2059 H   0  0  0  0  0  0  0  0  0  0  0  0
   -8.4461    5.3870  -20.1648 H   0  0  0  0  0  0  0  0  0  0  0  0
  -10.7940    5.3038  -19.4518 H   0  0  0  0  0  0  0  0  0  0  0  0
  -11.3742    4.8850  -17.0907 H   0  0  0  0  0  0  0  0  0  0  0  0
  -10.6004    4.0085  -14.8798 H   0  0  0  0  0  0  0  0  0  0  0  0
   -9.9007    3.6014  -12.5700 H   0  0  0  0  0  0  0  0  0  0  0  0
  -10.5207    3.1503   -9.8131 H   0  0  0  0  0  0  0  0  0  0  0  0
   -9.1545    2.2279  -10.5504 H   0  0  0  0  0  0  0  0  0  0  0  0
   -9.6420    1.7372   -8.0538 H   0  0  0  0  0  0  0  0  0  0  0  0
   -7.9389    2.1419   -8.4618 H   0  0  0  0  0  0  0  0  0  0  0  0
  -10.0415    4.1075   -7.3242 H   0  0  0  0  0  0  0  0  0  0  0  0
   -8.7028    3.3442   -6.3945 H   0  0  0  0  0  0  0  0  0  0  0  0
   -7.0042    4.5321   -7.6559 H   0  0  0  0  0  0  0  0  0  0  0  0
   -8.2621    5.7528   -7.2308 H   0  0  0  0  0  0  0  0  0  0  0  0
   -7.8832    6.9208  -11.8832 H   0  0  0  0  0  0  0  0  0  0  0  0
   -7.1831    4.5731  -16.1332 H   0  0  0  0  0  0  0  0  0  0  0  0
  1  2  1  0
  2  3  1  0
  2  4  1  0
  4  5  2  0
  4  6  1  0
  6  7  1  0
  7  8  1  0
  8  9  2  0
  9 10  1  0
 10 11  2  0
 11 12  1  0
 12 13  1  0
 13 14  1  0
 14 15  2  0
 14 16  1  0
 16 17  1  0
 17 18  2  0
 18 19  1  0
 19 20  1  0
 20 21  1  0
 21 22  1  0
 22 23  1  0
 23 24  1  0
 24 25  2  0
 12 26  2  0
 26  8  1  0
 25 17  1  0
 23 18  1  0
  1 27  1  0
  1 28  1  0
  1 29  1  0
  3 30  1  0
  3 31  1  0
  3 32  1  0
  6 33  1  0
  6 34  1  0
  9 35  1  0
 10 36  1  0
 11 37  1  0
 13 38  1  0
 16 39  1  0
 19 40  1  0
 19 41  1  0
 20 42  1  0
 20 43  1  0
 21 44  1  0
 21 45  1  0
 22 46  1  0
 22 47  1  0
 25 48  1  0
 26 49  1  0
A    1
 C1 
A    2
 N1 
A    3
 C2 
A    4
 C3 
A    5
 O1 
A    6
 C4 
A    7
 O2 
A    8
 C5 
A    9
 C6 
A   10
 C7 
A   11
 C8 
A   12
 C9 
A   13
 N2 
A   14
 C10
A   15
 O3 
A   16
 N3 
A   17
 C11
A   18
 C12
A   19
 C13
A   20
 C14
A   21
 C15
A   22
 C16
A   23
 N4 
A   24
 N5 
A   25
 C17
A   26
 C18
A   27
 H1 
A   28
 H2 
A   29
 H3 
A   30
 H4 
A   31
 H5 
A   32
 H6 
A   33
 H7 
A   34
 H8 
A   35
 H9 
A   36
 H10
A   37
 H11
A   38
 H12
A   39
 H13
A   40
 H14
A   41
 H15
A   42
 H16
A   43
 H17
A   44
 H18
A   45
 H19
A   46
 H20
A   47
 H21
A   48
 H22
A   49
 H23
M  END
>  <ref_pdb>  (330) 
x0051_0B

>  <ref_mols>  (330) 
x0969_1B,x0904_0B

>  <original SMILES>  (330) 
[H]c1nn2c(c1N([H])C(=O)N([H])c1c([H])c([H])c([H])c(OC([H])([H])C(=O)N(C([H])([H])[H])C([H])([H])[H])c1[H])C([H])([H])C([H])([H])C([H])([H])C2([H])[H]

>  <index>  (330) 
584

>  <∆∆G>  (330) 
-9.477612

>  <∆G_bound>  (330) 
-8.975387

>  <∆G_unbound>  (330) 
0.502225

>  <comRMSD>  (330) 
0.585832

>  <N_constrained_atoms>  (330) 
24.0

>  <N_unconstrained_atoms>  (330) 
2.0

>  <runtime>  (330) 
71.296942

>  <LE>  (330) 
0.364524

>  <percent_hybrid>  (330) 
42.0

>  <dist>  (330) 
6.0

>  <ecfp4>  (330) 
0.527778

>  <daylight>  (330) 
0.319489

>  <topodist>  (330) 
2.0

>  <mces>  (330) 
27.0

>  <tdn>  (330) 
0.0

>  <tup>  (330) 
1.0

>  <rdn>  (330) 
0.0

>  <rup>  (330) 
0.0

>  <ldn>  (330) 
1.0

>  <lup>  (330) 
0.0

>  <mut>  (330) 
3.0

>  <maj>  (330) 
3.0

>  <min>  (330) 
0.0

>  <hyb>  (330) 
1.0

>  <sub>  (330) 
0.0

>  <query_index>  (330) 
111.0

>  <max_hit_Tanimoto>  (330) 
0.257091

>  <largest_ring>  (330) 
6

>  <N_interactions_kept>  (330) 
1.5

>  <N_interactions_lost>  (330) 
2.0

>  <interaction_uniqueness_metric>  (330) 
0.131923

>  <ad_hoc_penalty>  (330) 
-20.89273

>  <N_rotatable_bonds>  (330) 
7

>  <N_HA>  (330) 
26

>  <cluster>  (330) 
5684

>  <N_interactions>  (330) 
6

>  <Enamine>  (330) 
1

>  <Mcule>  (330) 
0

>  <N_PAINS>  (330) 
0

>  <UFF_Gibbs>  (330) 
84.126878

>  <strain_per_HA>  (330) 
3.235649

>  <saltbridge:HIS:51>  (330) 
0

>  <pistack:HIS:51>  (330) 
1

>  <hydroph_interaction:HIS:51>  (330) 
0

>  <hbond:ALA:132>  (330) 
0

>  <hbond:SER:135>  (330) 
0

>  <hydroph_interaction:TYR:150>  (330) 
1

>  <pistack:TYR:161>  (330) 
1

>  <hydroph_interaction:TYR:161>  (330) 
0

>  <hydroph_interaction:ASP:83>  (330) 
0

>  <hbond:TYR:130>  (330) 
0

>  <hydroph_interaction:ALA:132>  (330) 
1

>  <hbond:HIS:51>  (330) 
0

>  <hbond:ASP:129>  (330) 
0

>  <hbond:TYR:150>  (330) 
0

>  <hbond:GLY:151>  (330) 
2

>  <hbond:TYR:161>  (330) 
0

>  <hydroph_interaction:TYR:130>  (330) 
0

>  <hydroph_interaction:PRO:131>  (330) 
0

>  <hydroph_interaction:ASP:129>  (330) 
0

>  <saltbridge:ASP:75>  (330) 
0

>  <saltbridge:ASP:83>  (330) 
0

>  <hydroph_interaction:ASN:152>  (330) 
0

>  <halogenbond:TYR:150>  (330) 
0

>  <hbond:ASP:83>  (330) 
0

>  <hydroph_interaction:VAL:155>  (330) 
0

>  <pication:TYR:161>  (330) 
0

>  <hbond:PRO:131>  (330) 
0

>  <hbond:LEU:128>  (330) 
0

>  <saltbridge:ASP:129>  (330) 
0

>  <hbond:THR:134>  (330) 
0

>  <pication:HIS:51>  (330) 
0

>  <hbond:SER:81>  (330) 
0

>  <hbond:GLY:159>  (330) 
0

>  <hydroph_interaction:PRO:101>  (330) 
0

>  <hydroph_interaction:THR:134>  (330) 
0

>  <hbond:GLY:82>  (330) 
0

>  <hydroph_interaction:GLU:104>  (330) 
0

>  <hydroph_interaction:VAL:36>  (330) 
0

>  <hydroph_interaction:MET:49>  (330) 
0

>  <halogenbond:GLU:104>  (330) 
0

>  <hydroph_interaction:LYS:107>  (330) 
0

$$$$
Z1256109573
     RDKit          3D

 50 55  0  0  0  0  0  0  0  0999 V2000
   -3.2139    7.2902  -21.3839 O   0  0  0  0  0  0  0  0  0  0  0  0
   -4.4692    7.3049  -21.2675 C   0  0  0  0  0  0  0  0  0  0  0  0
   -5.2564    8.2988  -22.0299 C   0  0  0  0  0  0  0  0  0  0  0  0
   -6.5510    7.9923  -22.4843 C   0  0  0  0  0  0  0  0  0  0  0  0
   -7.2828    8.9293  -23.2180 C   0  0  0  0  0  0  0  0  0  0  0  0
   -6.7182   10.1698  -23.5360 C   0  0  0  0  0  0  0  0  0  0  0  0
   -7.6506   11.3619  -24.5033 S   0  0  0  0  0  0  0  0  0  0  0  0
   -6.9993   10.8064  -26.1167 C   0  0  0  0  0  0  0  0  0  0  0  0
   -7.5306    9.4515  -26.4587 C   0  0  0  0  0  0  0  0  0  0  0  0
   -6.7757    8.3224  -26.3860 N   0  0  0  0  0  0  0  0  0  0  0  0
   -7.6617    7.3557  -26.6835 C   0  0  0  0  0  0  0  0  0  0  0  0
   -7.4382    5.9817  -26.7373 C   0  0  0  0  0  0  0  0  0  0  0  0
   -8.5344    5.1532  -27.0473 C   0  0  0  0  0  0  0  0  0  0  0  0
   -9.8108    5.7137  -27.2886 C   0  0  0  0  0  0  0  0  0  0  0  0
  -10.0014    7.1071  -27.2215 C   0  0  0  0  0  0  0  0  0  0  0  0
   -8.8926    7.8934  -26.9162 C   0  0  0  0  0  0  0  0  0  0  0  0
   -8.8286    9.2223  -26.7770 N   0  0  0  0  0  0  0  0  0  0  0  0
   -5.4260   10.4780  -23.0989 C   0  0  0  0  0  0  0  0  0  0  0  0
   -4.6958    9.5466  -22.3547 C   0  0  0  0  0  0  0  0  0  0  0  0
   -5.1036    6.3362  -20.4211 N   0  0  0  0  0  0  0  0  0  0  0  0
   -4.5677    5.0040  -20.0970 C   0  0  0  0  0  0  0  0  0  0  0  0
   -5.5267    4.4164  -19.0166 C   0  0  0  0  0  0  0  0  0  0  0  0
   -6.3698    5.5477  -18.6912 N   0  0  0  0  0  0  0  0  0  0  0  0
   -6.1370    6.5748  -19.4863 C   0  0  0  0  0  0  0  0  0  0  0  0
   -7.1486    7.4761  -19.5726 N   0  0  0  0  0  0  0  0  0  0  0  0
   -8.0600    6.9278  -18.7317 C   0  0  0  0  0  0  0  0  0  0  0  0
   -9.3561    7.3719  -18.4806 C   0  0  0  0  0  0  0  0  0  0  0  0
  -10.1902    6.5516  -17.6949 C   0  0  0  0  0  0  0  0  0  0  0  0
   -9.7235    5.3083  -17.2062 C   0  0  0  0  0  0  0  0  0  0  0  0
   -8.4137    4.8755  -17.4876 C   0  0  0  0  0  0  0  0  0  0  0  0
   -7.6085    5.7306  -18.2328 C   0  0  0  0  0  0  0  0  0  0  0  0
   -6.9924    7.0239  -22.2834 H   0  0  0  0  0  0  0  0  0  0  0  0
   -8.2803    8.6816  -23.5580 H   0  0  0  0  0  0  0  0  0  0  0  0
   -7.3213   11.5277  -26.8954 H   0  0  0  0  0  0  0  0  0  0  0  0
   -5.8880   10.7934  -26.0971 H   0  0  0  0  0  0  0  0  0  0  0  0
   -6.4585    5.5636  -26.5430 H   0  0  0  0  0  0  0  0  0  0  0  0
   -8.3998    4.0805  -27.0981 H   0  0  0  0  0  0  0  0  0  0  0  0
  -10.6465    5.0683  -27.5232 H   0  0  0  0  0  0  0  0  0  0  0  0
  -10.9735    7.5493  -27.3978 H   0  0  0  0  0  0  0  0  0  0  0  0
   -9.6043    9.9161  -26.8665 H   0  0  0  0  0  0  0  0  0  0  0  0
   -4.9834   11.4358  -23.3417 H   0  0  0  0  0  0  0  0  0  0  0  0
   -3.6961    9.8031  -22.0271 H   0  0  0  0  0  0  0  0  0  0  0  0
   -3.5404    5.1006  -19.6832 H   0  0  0  0  0  0  0  0  0  0  0  0
   -4.5525    4.3653  -21.0058 H   0  0  0  0  0  0  0  0  0  0  0  0
   -4.9730    4.0738  -18.1173 H   0  0  0  0  0  0  0  0  0  0  0  0
   -6.1402    3.5933  -19.4423 H   0  0  0  0  0  0  0  0  0  0  0  0
   -9.7177    8.3048  -18.8926 H   0  0  0  0  0  0  0  0  0  0  0  0
  -11.2031    6.8667  -17.4800 H   0  0  0  0  0  0  0  0  0  0  0  0
  -10.3816    4.6816  -16.6194 H   0  0  0  0  0  0  0  0  0  0  0  0
   -8.0480    3.9189  -17.1361 H   0  0  0  0  0  0  0  0  0  0  0  0
  1  2  2  0
  2  3  1  0
  3  4  2  0
  4  5  1  0
  5  6  2  0
  6  7  1  0
  7  8  1  0
  8  9  1  0
  9 10  2  0
 10 11  1  0
 11 12  2  0
 12 13  1  0
 13 14  2  0
 14 15  1  0
 15 16  2  0
 16 17  1  0
  6 18  1  0
 18 19  2  0
  2 20  1  0
 20 21  1  0
 21 22  1  0
 22 23  1  0
 23 24  1  0
 24 25  2  0
 25 26  1  0
 26 27  2  0
 27 28  1  0
 28 29  2  0
 29 30  1  0
 30 31  2  0
 19  3  1  0
 17  9  1  0
 16 11  1  0
 24 20  1  0
 31 23  1  0
 31 26  1  0
  4 32  1  0
  5 33  1  0
  8 34  1  0
  8 35  1  0
 12 36  1  0
 13 37  1  0
 14 38  1  0
 15 39  1  0
 17 40  1  0
 18 41  1  0
 19 42  1  0
 21 43  1  0
 21 44  1  0
 22 45  1  0
 22 46  1  0
 27 47  1  0
 28 48  1  0
 29 49  1  0
 30 50  1  0
A    1
 O1 
A    2
 C1 
A    3
 C2 
A    4
 C3 
A    5
 C4 
A    6
 C5 
A    7
 S1 
A    8
 C6 
A    9
 C7 
A   10
 N1 
A   11
 C8 
A   12
 C9 
A   13
 C10
A   14
 C11
A   15
 C12
A   16
 C13
A   17
 N2 
A   18
 C14
A   19
 C15
A   20
 N3 
A   21
 C16
A   22
 C17
A   23
 N4 
A   24
 C18
A   25
 N5 
A   26
 C19
A   27
 C20
A   28
 C21
A   29
 C22
A   30
 C23
A   31
 C24
A   32
 H1 
A   33
 H2 
A   34
 H3 
A   35
 H4 
A   36
 H5 
A   37
 H6 
A   38
 H7 
A   39
 H8 
A   40
 H9 
A   41
 H10
A   42
 H11
A   43
 H12
A   44
 H13
A   45
 H14
A   46
 H15
A   47
 H16
A   48
 H17
A   49
 H18
A   50
 H19
M  END
>  <ref_pdb>  (331) 
x0051_0B

>  <ref_mols>  (331) 
x0846_1B,x0490_0B

>  <original SMILES>  (331) 
[H]c1c([H])c(C(=O)N2c3nc4c([H])c([H])c([H])c([H])c4n3C([H])([H])C2([H])[H])c([H])c([H])c1SC([H])([H])c1nc2c([H])c([H])c([H])c([H])c2n1[H]

>  <index>  (331) 
617

>  <∆∆G>  (331) 
-9.109488

>  <∆G_bound>  (331) 
-7.749835

>  <∆G_unbound>  (331) 
1.359653

>  <comRMSD>  (331) 
0.702247

>  <N_constrained_atoms>  (331) 
29.0

>  <N_unconstrained_atoms>  (331) 
2.0

>  <runtime>  (331) 
43.185533

>  <LE>  (331) 
0.293854

>  <percent_hybrid>  (331) 
38.0

>  <dist>  (331) 
7.0

>  <ecfp4>  (331) 
0.297619

>  <daylight>  (331) 
0.425

>  <topodist>  (331) 
3.0

>  <mces>  (331) 
34.0

>  <tdn>  (331) 
1.0

>  <tup>  (331) 
1.0

>  <rdn>  (331) 
0.0

>  <rup>  (331) 
1.0

>  <ldn>  (331) 
0.0

>  <lup>  (331) 
0.0

>  <mut>  (331) 
4.0

>  <maj>  (331) 
4.0

>  <min>  (331) 
0.0

>  <hyb>  (331) 
0.0

>  <sub>  (331) 
2.0

>  <query_index>  (331) 
51.0

>  <max_hit_Tanimoto>  (331) 
0.323105

>  <largest_ring>  (331) 
6

>  <N_interactions_kept>  (331) 
0.0

>  <N_interactions_lost>  (331) 
3.0

>  <interaction_uniqueness_metric>  (331) 
0.182203

>  <ad_hoc_penalty>  (331) 
-20.867233

>  <N_rotatable_bonds>  (331) 
4

>  <N_HA>  (331) 
31

>  <cluster>  (331) 
5654

>  <N_interactions>  (331) 
6

>  <Enamine>  (331) 
1

>  <Mcule>  (331) 
0

>  <N_PAINS>  (331) 
0

>  <UFF_Gibbs>  (331) 
100.080402

>  <strain_per_HA>  (331) 
3.2284

>  <saltbridge:HIS:51>  (331) 
0

>  <pistack:HIS:51>  (331) 
0

>  <hydroph_interaction:HIS:51>  (331) 
0

>  <hbond:ALA:132>  (331) 
0

>  <hbond:SER:135>  (331) 
0

>  <hydroph_interaction:TYR:150>  (331) 
1

>  <pistack:TYR:161>  (331) 
1

>  <hydroph_interaction:TYR:161>  (331) 
1

>  <hydroph_interaction:ASP:83>  (331) 
0

>  <hbond:TYR:130>  (331) 
0

>  <hydroph_interaction:ALA:132>  (331) 
0

>  <hbond:HIS:51>  (331) 
0

>  <hbond:ASP:129>  (331) 
1

>  <hbond:TYR:150>  (331) 
0

>  <hbond:GLY:151>  (331) 
0

>  <hbond:TYR:161>  (331) 
0

>  <hydroph_interaction:TYR:130>  (331) 
1

>  <hydroph_interaction:PRO:131>  (331) 
1

>  <hydroph_interaction:ASP:129>  (331) 
0

>  <saltbridge:ASP:75>  (331) 
0

>  <saltbridge:ASP:83>  (331) 
0

>  <hydroph_interaction:ASN:152>  (331) 
0

>  <halogenbond:TYR:150>  (331) 
0

>  <hbond:ASP:83>  (331) 
0

>  <hydroph_interaction:VAL:155>  (331) 
0

>  <pication:TYR:161>  (331) 
0

>  <hbond:PRO:131>  (331) 
0

>  <hbond:LEU:128>  (331) 
0

>  <saltbridge:ASP:129>  (331) 
0

>  <hbond:THR:134>  (331) 
0

>  <pication:HIS:51>  (331) 
0

>  <hbond:SER:81>  (331) 
0

>  <hbond:GLY:159>  (331) 
0

>  <hydroph_interaction:PRO:101>  (331) 
0

>  <hydroph_interaction:THR:134>  (331) 
0

>  <hbond:GLY:82>  (331) 
0

>  <hydroph_interaction:GLU:104>  (331) 
0

>  <hydroph_interaction:VAL:36>  (331) 
0

>  <hydroph_interaction:MET:49>  (331) 
0

>  <halogenbond:GLU:104>  (331) 
0

>  <hydroph_interaction:LYS:107>  (331) 
0

$$$$
Z3553177694
     RDKit          3D

 40 43  0  0  0  0  0  0  0  0999 V2000
   -7.8972    6.4858  -19.4390 C   0  0  0  0  0  0  0  0  0  0  0  0
   -7.3724    5.8608  -18.2320 N   0  0  0  0  0  0  0  0  0  0  0  0
   -6.1971    6.1433  -17.6795 N   0  0  0  0  0  0  0  0  0  0  0  0
   -6.0139    5.4377  -16.5641 N   0  0  0  0  0  0  0  0  0  0  0  0
   -7.1247    4.6895  -16.4148 C   0  0  0  0  0  0  0  0  0  0  0  0
   -7.4499    3.7825  -15.4017 C   0  0  0  0  0  0  0  0  0  0  0  0
   -6.5298    3.5094  -14.2445 C   0  0  0  0  0  0  0  0  0  0  0  0
   -7.1058    3.9907  -13.0328 O   0  0  0  0  0  0  0  0  0  0  0  0
   -7.2086    5.3493  -12.7153 C   0  0  0  0  0  0  0  0  0  0  0  0
   -6.7064    6.2222  -13.4746 O   0  0  0  0  0  0  0  0  0  0  0  0
   -7.9103    5.7679  -11.4920 C   0  0  0  0  0  0  0  0  0  0  0  0
   -8.5436    4.9819  -10.5459 C   0  0  0  0  0  0  0  0  0  0  0  0
   -8.7257    3.4902  -10.5395 C   0  0  0  0  0  0  0  0  0  0  0  0
   -9.2382    3.0108   -9.1715 C   0  0  0  0  0  0  0  0  0  0  0  0
  -10.3602    3.9162   -8.6396 C   0  0  0  0  0  0  0  0  0  0  0  0
   -9.8556    5.3558   -8.4570 C   0  0  0  0  0  0  0  0  0  0  0  0
   -9.1176    5.7946   -9.6397 N   0  0  0  0  0  0  0  0  0  0  0  0
   -8.8502    7.0582   -9.9279 N   0  0  0  0  0  0  0  0  0  0  0  0
   -8.1176    7.0691  -11.0610 C   0  0  0  0  0  0  0  0  0  0  0  0
   -8.7104    3.1481  -15.4895 C   0  0  0  0  0  0  0  0  0  0  0  0
   -9.5867    3.4284  -16.5652 C   0  0  0  0  0  0  0  0  0  0  0  0
   -9.2194    4.3471  -17.5665 C   0  0  0  0  0  0  0  0  0  0  0  0
   -7.9713    4.9537  -17.4472 C   0  0  0  0  0  0  0  0  0  0  0  0
   -7.1089    7.0982  -19.9258 H   0  0  0  0  0  0  0  0  0  0  0  0
   -8.2340    5.7040  -20.1517 H   0  0  0  0  0  0  0  0  0  0  0  0
   -8.7547    7.1403  -19.1770 H   0  0  0  0  0  0  0  0  0  0  0  0
   -6.3838    2.4123  -14.1558 H   0  0  0  0  0  0  0  0  0  0  0  0
   -5.5277    3.9655  -14.3974 H   0  0  0  0  0  0  0  0  0  0  0  0
   -9.4591    3.2165  -11.3281 H   0  0  0  0  0  0  0  0  0  0  0  0
   -7.7603    2.9872  -10.7577 H   0  0  0  0  0  0  0  0  0  0  0  0
   -9.6160    1.9701   -9.2659 H   0  0  0  0  0  0  0  0  0  0  0  0
   -8.3974    3.0028   -8.4432 H   0  0  0  0  0  0  0  0  0  0  0  0
  -11.2117    3.9088   -9.3549 H   0  0  0  0  0  0  0  0  0  0  0  0
  -10.7238    3.5260   -7.6648 H   0  0  0  0  0  0  0  0  0  0  0  0
   -9.1837    5.4047   -7.5732 H   0  0  0  0  0  0  0  0  0  0  0  0
  -10.7197    6.0319   -8.2809 H   0  0  0  0  0  0  0  0  0  0  0  0
   -7.7671    7.9697  -11.5477 H   0  0  0  0  0  0  0  0  0  0  0  0
   -9.0169    2.4434  -14.7264 H   0  0  0  0  0  0  0  0  0  0  0  0
  -10.5486    2.9353  -16.6167 H   0  0  0  0  0  0  0  0  0  0  0  0
   -9.8830    4.5722  -18.3911 H   0  0  0  0  0  0  0  0  0  0  0  0
  1  2  1  0
  2  3  1  0
  3  4  2  0
  4  5  1  0
  5  6  2  0
  6  7  1  0
  7  8  1  0
  8  9  1  0
  9 10  2  0
  9 11  1  0
 11 12  2  0
 12 13  1  0
 13 14  1  0
 14 15  1  0
 15 16  1  0
 16 17  1  0
 17 18  1  0
 18 19  2  0
  6 20  1  0
 20 21  2  0
 21 22  1  0
 22 23  2  0
 23  2  1  0
 23  5  1  0
 19 11  1  0
 17 12  1  0
  1 24  1  0
  1 25  1  0
  1 26  1  0
  7 27  1  0
  7 28  1  0
 13 29  1  0
 13 30  1  0
 14 31  1  0
 14 32  1  0
 15 33  1  0
 15 34  1  0
 16 35  1  0
 16 36  1  0
 19 37  1  0
 20 38  1  0
 21 39  1  0
 22 40  1  0
A    1
 C1 
A    2
 N1 
A    3
 N2 
A    4
 N3 
A    5
 C2 
A    6
 C3 
A    7
 C4 
A    8
 O1 
A    9
 C5 
A   10
 O2 
A   11
 C6 
A   12
 C7 
A   13
 C8 
A   14
 C9 
A   15
 C10
A   16
 C11
A   17
 N4 
A   18
 N5 
A   19
 C12
A   20
 C13
A   21
 C14
A   22
 C15
A   23
 C16
A   24
 H1 
A   25
 H2 
A   26
 H3 
A   27
 H4 
A   28
 H5 
A   29
 H6 
A   30
 H7 
A   31
 H8 
A   32
 H9 
A   33
 H10
A   34
 H11
A   35
 H12
A   36
 H13
A   37
 H14
A   38
 H15
A   39
 H16
A   40
 H17
M  END
>  <ref_pdb>  (332) 
x0051_0B

>  <ref_mols>  (332) 
x0969_1B,x0435_0B

>  <original SMILES>  (332) 
[H]c1nn2c(c1C(=O)OC([H])([H])c1c([H])c([H])c([H])c3c1nnn3C([H])([H])[H])C([H])([H])C([H])([H])C([H])([H])C2([H])[H]

>  <index>  (332) 
629

>  <∆∆G>  (332) 
-6.527428

>  <∆G_bound>  (332) 
-6.039534

>  <∆G_unbound>  (332) 
0.487893

>  <comRMSD>  (332) 
0.412129

>  <N_constrained_atoms>  (332) 
20.0

>  <N_unconstrained_atoms>  (332) 
3.0

>  <runtime>  (332) 
54.144036

>  <LE>  (332) 
0.283801

>  <percent_hybrid>  (332) 
50.0

>  <dist>  (332) 
6.0

>  <ecfp4>  (332) 
0.155556

>  <daylight>  (332) 
0.320475

>  <topodist>  (332) 
1.0

>  <mces>  (332) 
25.0

>  <tdn>  (332) 
0.0

>  <tup>  (332) 
1.0

>  <rdn>  (332) 
0.0

>  <rup>  (332) 
0.0

>  <ldn>  (332) 
0.0

>  <lup>  (332) 
0.0

>  <mut>  (332) 
4.0

>  <maj>  (332) 
4.0

>  <min>  (332) 
0.0

>  <hyb>  (332) 
1.0

>  <sub>  (332) 
0.0

>  <query_index>  (332) 
343.0

>  <max_hit_Tanimoto>  (332) 
0.296422

>  <largest_ring>  (332) 
6

>  <N_interactions_kept>  (332) 
2.0

>  <N_interactions_lost>  (332) 
1.5

>  <interaction_uniqueness_metric>  (332) 
0.176625

>  <ad_hoc_penalty>  (332) 
-20.866593

>  <N_rotatable_bonds>  (332) 
4

>  <N_HA>  (332) 
23

>  <cluster>  (332) 
5644

>  <N_interactions>  (332) 
5

>  <Enamine>  (332) 
1

>  <Mcule>  (332) 
0

>  <N_PAINS>  (332) 
0

>  <UFF_Gibbs>  (332) 
70.026063

>  <strain_per_HA>  (332) 
3.044611

>  <saltbridge:HIS:51>  (332) 
1

>  <pistack:HIS:51>  (332) 
1

>  <hydroph_interaction:HIS:51>  (332) 
1

>  <hbond:ALA:132>  (332) 
0

>  <hbond:SER:135>  (332) 
0

>  <hydroph_interaction:TYR:150>  (332) 
0

>  <pistack:TYR:161>  (332) 
1

>  <hydroph_interaction:TYR:161>  (332) 
1

>  <hydroph_interaction:ASP:83>  (332) 
0

>  <hbond:TYR:130>  (332) 
0

>  <hydroph_interaction:ALA:132>  (332) 
0

>  <hbond:HIS:51>  (332) 
0

>  <hbond:ASP:129>  (332) 
0

>  <hbond:TYR:150>  (332) 
0

>  <hbond:GLY:151>  (332) 
0

>  <hbond:TYR:161>  (332) 
0

>  <hydroph_interaction:TYR:130>  (332) 
0

>  <hydroph_interaction:PRO:131>  (332) 
0

>  <hydroph_interaction:ASP:129>  (332) 
0

>  <saltbridge:ASP:75>  (332) 
0

>  <saltbridge:ASP:83>  (332) 
0

>  <hydroph_interaction:ASN:152>  (332) 
0

>  <halogenbond:TYR:150>  (332) 
0

>  <hbond:ASP:83>  (332) 
0

>  <hydroph_interaction:VAL:155>  (332) 
0

>  <pication:TYR:161>  (332) 
0

>  <hbond:PRO:131>  (332) 
0

>  <hbond:LEU:128>  (332) 
0

>  <saltbridge:ASP:129>  (332) 
0

>  <hbond:THR:134>  (332) 
0

>  <pication:HIS:51>  (332) 
0

>  <hbond:SER:81>  (332) 
0

>  <hbond:GLY:159>  (332) 
0

>  <hydroph_interaction:PRO:101>  (332) 
0

>  <hydroph_interaction:THR:134>  (332) 
0

>  <hbond:GLY:82>  (332) 
0

>  <hydroph_interaction:GLU:104>  (332) 
0

>  <hydroph_interaction:VAL:36>  (332) 
0

>  <hydroph_interaction:MET:49>  (332) 
0

>  <halogenbond:GLU:104>  (332) 
0

>  <hydroph_interaction:LYS:107>  (332) 
0

$$$$
PV-006665447670
     RDKit          3D

 25 26  0  0  0  0  0  0  0  0999 V2000
   -8.6607    4.1399  -13.1956 C   0  0  0  0  0  0  0  0  0  0  0  0
   -8.3539    4.1644  -14.6298 N   0  0  0  0  0  0  0  0  0  0  0  0
   -8.1222    5.5421  -15.1156 C   0  0  0  0  0  0  0  0  0  0  0  0
   -6.6304    5.9464  -14.9057 C   0  0  0  0  0  0  0  0  0  0  0  0
   -5.6748    5.6544  -16.0866 C   0  0  0  0  0  0  0  0  0  0  0  0
   -6.2087    4.2119  -17.0664 S   0  0  0  0  0  0  0  0  0  0  0  0
   -7.7079    5.0606  -17.5616 C   0  0  0  0  0  0  0  0  0  0  0  0
   -8.0264    5.2026  -18.9164 C   0  0  0  0  0  0  0  0  0  0  0  0
   -9.1865    5.8855  -19.2925 C   0  0  0  0  0  0  0  0  0  0  0  0
  -10.0210    6.4388  -18.3169 C   0  0  0  0  0  0  0  0  0  0  0  0
   -9.6907    6.3232  -16.9628 C   0  0  0  0  0  0  0  0  0  0  0  0
   -8.5203    5.6484  -16.5770 C   0  0  0  0  0  0  0  0  0  0  0  0
   -7.8427    4.6006  -12.6039 H   0  0  0  0  0  0  0  0  0  0  0  0
   -8.7697    3.0862  -12.8630 H   0  0  0  0  0  0  0  0  0  0  0  0
   -9.6146    4.6732  -12.9876 H   0  0  0  0  0  0  0  0  0  0  0  0
   -9.1889    3.7558  -15.1138 H   0  0  0  0  0  0  0  0  0  0  0  0
   -8.7459    6.2607  -14.5330 H   0  0  0  0  0  0  0  0  0  0  0  0
   -6.5852    7.0376  -14.6965 H   0  0  0  0  0  0  0  0  0  0  0  0
   -6.2279    5.4450  -14.0005 H   0  0  0  0  0  0  0  0  0  0  0  0
   -5.6175    6.5428  -16.7532 H   0  0  0  0  0  0  0  0  0  0  0  0
   -4.6516    5.4650  -15.6988 H   0  0  0  0  0  0  0  0  0  0  0  0
   -7.3835    4.7763  -19.6759 H   0  0  0  0  0  0  0  0  0  0  0  0
   -9.4393    5.9856  -20.3401 H   0  0  0  0  0  0  0  0  0  0  0  0
  -10.9203    6.9646  -18.6105 H   0  0  0  0  0  0  0  0  0  0  0  0
  -10.3407    6.7672  -16.2193 H   0  0  0  0  0  0  0  0  0  0  0  0
  1  2  1  0
  2  3  1  0
  3  4  1  0
  4  5  1  0
  5  6  1  0
  6  7  1  0
  7  8  2  0
  8  9  1  0
  9 10  2  0
 10 11  1  0
 11 12  2  0
 12  3  1  0
 12  7  1  0
  1 13  1  0
  1 14  1  0
  1 15  1  0
  2 16  1  0
  3 17  1  0
  4 18  1  0
  4 19  1  0
  5 20  1  0
  5 21  1  0
  8 22  1  0
  9 23  1  0
 10 24  1  0
 11 25  1  0
A    1
 C1 
A    2
 N1 
A    3
 C2 
A    4
 C3 
A    5
 C4 
A    6
 S1 
A    7
 C5 
A    8
 C6 
A    9
 C7 
A   10
 C8 
A   11
 C9 
A   12
 C10
A   13
 H1 
A   14
 H2 
A   15
 H3 
A   16
 H4 
A   17
 H5 
A   18
 H6 
A   19
 H7 
A   20
 H8 
A   21
 H9 
A   22
 H10
A   23
 H11
A   24
 H12
A   25
 H13
M  END
>  <ref_pdb>  (333) 
x0051_0B

>  <ref_mols>  (333) 
x0455_0B,x0951_0B

>  <original SMILES>  (333) 
[H]c1c([H])c([H])c2c(c1[H])SC([H])([H])C([H])([H])C2([H])N([H])C([H])([H])[H]

>  <index>  (333) 
562

>  <∆∆G>  (333) 
-6.698534

>  <∆G_bound>  (333) 
-6.635048

>  <∆G_unbound>  (333) 
0.063485

>  <comRMSD>  (333) 
0.732975

>  <N_constrained_atoms>  (333) 
14.0

>  <N_unconstrained_atoms>  (333) 
0.0

>  <runtime>  (333) 
21.708365

>  <LE>  (333) 
0.478467

>  <percent_hybrid>  (333) 
34.0

>  <dist>  (333) 
3.0

>  <ecfp4>  (333) 
0.196078

>  <daylight>  (333) 
0.194444

>  <topodist>  (333) 
1.0

>  <mces>  (333) 
13.0

>  <tdn>  (333) 
0.0

>  <tup>  (333) 
0.0

>  <rdn>  (333) 
0.0

>  <rup>  (333) 
0.0

>  <ldn>  (333) 
1.0

>  <lup>  (333) 
0.0

>  <mut>  (333) 
2.0

>  <maj>  (333) 
2.0

>  <min>  (333) 
0.0

>  <hyb>  (333) 
0.0

>  <sub>  (333) 
0.0

>  <query_index>  (333) 
288.0

>  <max_hit_Tanimoto>  (333) 
0.181564

>  <largest_ring>  (333) 
6

>  <N_interactions_kept>  (333) 
0.5

>  <N_interactions_lost>  (333) 
2.0

>  <interaction_uniqueness_metric>  (333) 
0.110284

>  <ad_hoc_penalty>  (333) 
-20.863169

>  <N_rotatable_bonds>  (333) 
2

>  <N_HA>  (333) 
12

>  <cluster>  (333) 
5704

>  <N_interactions>  (333) 
5

>  <Enamine>  (333) 
1

>  <Mcule>  (333) 
0

>  <N_PAINS>  (333) 
0

>  <UFF_Gibbs>  (333) 
47.875479

>  <strain_per_HA>  (333) 
3.419677

>  <saltbridge:HIS:51>  (333) 
0

>  <pistack:HIS:51>  (333) 
0

>  <hydroph_interaction:HIS:51>  (333) 
0

>  <hbond:ALA:132>  (333) 
0

>  <hbond:SER:135>  (333) 
0

>  <hydroph_interaction:TYR:150>  (333) 
1

>  <pistack:TYR:161>  (333) 
1

>  <hydroph_interaction:TYR:161>  (333) 
0

>  <hydroph_interaction:ASP:83>  (333) 
0

>  <hbond:TYR:130>  (333) 
0

>  <hydroph_interaction:ALA:132>  (333) 
1

>  <hbond:HIS:51>  (333) 
0

>  <hbond:ASP:129>  (333) 
0

>  <hbond:TYR:150>  (333) 
0

>  <hbond:GLY:151>  (333) 
0

>  <hbond:TYR:161>  (333) 
2

>  <hydroph_interaction:TYR:130>  (333) 
0

>  <hydroph_interaction:PRO:131>  (333) 
0

>  <hydroph_interaction:ASP:129>  (333) 
0

>  <saltbridge:ASP:75>  (333) 
0

>  <saltbridge:ASP:83>  (333) 
0

>  <hydroph_interaction:ASN:152>  (333) 
0

>  <halogenbond:TYR:150>  (333) 
0

>  <hbond:ASP:83>  (333) 
0

>  <hydroph_interaction:VAL:155>  (333) 
0

>  <pication:TYR:161>  (333) 
0

>  <hbond:PRO:131>  (333) 
0

>  <hbond:LEU:128>  (333) 
0

>  <saltbridge:ASP:129>  (333) 
0

>  <hbond:THR:134>  (333) 
0

>  <pication:HIS:51>  (333) 
0

>  <hbond:SER:81>  (333) 
0

>  <hbond:GLY:159>  (333) 
0

>  <hydroph_interaction:PRO:101>  (333) 
0

>  <hydroph_interaction:THR:134>  (333) 
0

>  <hbond:GLY:82>  (333) 
0

>  <hydroph_interaction:GLU:104>  (333) 
0

>  <hydroph_interaction:VAL:36>  (333) 
0

>  <hydroph_interaction:MET:49>  (333) 
0

>  <halogenbond:GLU:104>  (333) 
0

>  <hydroph_interaction:LYS:107>  (333) 
0

$$$$
PV-005060897018
     RDKit          3D

 27 28  0  0  0  0  0  0  0  0999 V2000
   -9.4959    6.1845  -13.5898 C   0  0  0  0  0  0  0  0  0  0  0  0
   -8.4890    5.2121  -14.0248 N   0  0  0  0  0  0  0  0  0  0  0  0
   -7.7313    5.6788  -15.2022 C   0  0  0  0  0  0  0  0  0  0  0  0
   -6.3132    5.0850  -15.1296 C   0  0  0  0  0  0  0  0  0  0  0  0
   -5.4157    5.4572  -16.3356 C   0  0  0  0  0  0  0  0  0  0  0  0
   -6.1669    6.0491  -17.5444 C   0  0  0  0  0  0  0  0  0  0  0  0
   -7.5481    5.4667  -17.6940 C   0  0  0  0  0  0  0  0  0  0  0  0
   -8.0622    5.1710  -18.9655 C   0  0  0  0  0  0  0  0  0  0  0  0
   -9.3674    4.6967  -19.1016 C   0  0  0  0  0  0  0  0  0  0  0  0
  -10.1721    4.5325  -17.9739 C   0  0  0  0  0  0  0  0  0  0  0  0
   -9.6762    4.8383  -16.7036 C   0  0  0  0  0  0  0  0  0  0  0  0
   -8.3521    5.3016  -16.5464 C   0  0  0  0  0  0  0  0  0  0  0  0
   -8.9937    7.0711  -13.1478 H   0  0  0  0  0  0  0  0  0  0  0  0
  -10.1374    6.5152  -14.4336 H   0  0  0  0  0  0  0  0  0  0  0  0
  -10.1401    5.7286  -12.8087 H   0  0  0  0  0  0  0  0  0  0  0  0
   -8.9231    4.2746  -14.1883 H   0  0  0  0  0  0  0  0  0  0  0  0
   -7.6239    6.7881  -15.1704 H   0  0  0  0  0  0  0  0  0  0  0  0
   -5.8218    5.4207  -14.1900 H   0  0  0  0  0  0  0  0  0  0  0  0
   -6.3959    3.9762  -15.0757 H   0  0  0  0  0  0  0  0  0  0  0  0
   -4.6458    6.1897  -16.0087 H   0  0  0  0  0  0  0  0  0  0  0  0
   -4.8705    4.5456  -16.6654 H   0  0  0  0  0  0  0  0  0  0  0  0
   -5.5622    5.8821  -18.4626 H   0  0  0  0  0  0  0  0  0  0  0  0
   -6.2692    7.1475  -17.4078 H   0  0  0  0  0  0  0  0  0  0  0  0
   -7.4554    5.3133  -19.8511 H   0  0  0  0  0  0  0  0  0  0  0  0
   -9.7594    4.4659  -20.0838 H   0  0  0  0  0  0  0  0  0  0  0  0
  -11.1870    4.1726  -18.0848 H   0  0  0  0  0  0  0  0  0  0  0  0
  -10.3388    4.7054  -15.8620 H   0  0  0  0  0  0  0  0  0  0  0  0
  1  2  1  0
  2  3  1  0
  3  4  1  0
  4  5  1  0
  5  6  1  0
  6  7  1  0
  7  8  2  0
  8  9  1  0
  9 10  2  0
 10 11  1  0
 11 12  2  0
 12  3  1  0
 12  7  1  0
  1 13  1  0
  1 14  1  0
  1 15  1  0
  2 16  1  0
  3 17  1  0
  4 18  1  0
  4 19  1  0
  5 20  1  0
  5 21  1  0
  6 22  1  0
  6 23  1  0
  8 24  1  0
  9 25  1  0
 10 26  1  0
 11 27  1  0
A    1
 C1 
A    2
 N1 
A    3
 C2 
A    4
 C3 
A    5
 C4 
A    6
 C5 
A    7
 C6 
A    8
 C7 
A    9
 C8 
A   10
 C9 
A   11
 C10
A   12
 C11
A   13
 H1 
A   14
 H2 
A   15
 H3 
A   16
 H4 
A   17
 H5 
A   18
 H6 
A   19
 H7 
A   20
 H8 
A   21
 H9 
A   22
 H10
A   23
 H11
A   24
 H12
A   25
 H13
A   26
 H14
A   27
 H15
M  END
>  <ref_pdb>  (334) 
x0051_0B

>  <ref_mols>  (334) 
x0455_0B,x0951_0B

>  <original SMILES>  (334) 
[H]c1c([H])c([H])c2c(c1[H])C([H])([H])C([H])([H])C([H])([H])C2([H])N([H])C([H])([H])[H]

>  <index>  (334) 
611

>  <∆∆G>  (334) 
-6.403504

>  <∆G_bound>  (334) 
-6.347967

>  <∆G_unbound>  (334) 
0.055537

>  <comRMSD>  (334) 
0.655434

>  <N_constrained_atoms>  (334) 
14.0

>  <N_unconstrained_atoms>  (334) 
0.0

>  <runtime>  (334) 
28.121368

>  <LE>  (334) 
0.457393

>  <percent_hybrid>  (334) 
34.0

>  <dist>  (334) 
3.0

>  <ecfp4>  (334) 
0.2

>  <daylight>  (334) 
0.212903

>  <topodist>  (334) 
1.0

>  <mces>  (334) 
13.0

>  <tdn>  (334) 
0.0

>  <tup>  (334) 
0.0

>  <rdn>  (334) 
0.0

>  <rup>  (334) 
0.0

>  <ldn>  (334) 
1.0

>  <lup>  (334) 
0.0

>  <mut>  (334) 
2.0

>  <maj>  (334) 
2.0

>  <min>  (334) 
0.0

>  <hyb>  (334) 
0.0

>  <sub>  (334) 
0.0

>  <query_index>  (334) 
288.0

>  <max_hit_Tanimoto>  (334) 
0.158228

>  <largest_ring>  (334) 
6

>  <N_interactions_kept>  (334) 
0.0

>  <N_interactions_lost>  (334) 
2.5

>  <interaction_uniqueness_metric>  (334) 
0.119675

>  <ad_hoc_penalty>  (334) 
-20.851837

>  <N_rotatable_bonds>  (334) 
2

>  <N_HA>  (334) 
12

>  <cluster>  (334) 
5660

>  <N_interactions>  (334) 
6

>  <Enamine>  (334) 
1

>  <Mcule>  (334) 
0

>  <N_PAINS>  (334) 
0

>  <UFF_Gibbs>  (334) 
37.945667

>  <strain_per_HA>  (334) 
2.710405

>  <saltbridge:HIS:51>  (334) 
0

>  <pistack:HIS:51>  (334) 
0

>  <hydroph_interaction:HIS:51>  (334) 
0

>  <hbond:ALA:132>  (334) 
0

>  <hbond:SER:135>  (334) 
0

>  <hydroph_interaction:TYR:150>  (334) 
1

>  <pistack:TYR:161>  (334) 
1

>  <hydroph_interaction:TYR:161>  (334) 
1

>  <hydroph_interaction:ASP:83>  (334) 
0

>  <hbond:TYR:130>  (334) 
0

>  <hydroph_interaction:ALA:132>  (334) 
1

>  <hbond:HIS:51>  (334) 
0

>  <hbond:ASP:129>  (334) 
0

>  <hbond:TYR:150>  (334) 
0

>  <hbond:GLY:151>  (334) 
0

>  <hbond:TYR:161>  (334) 
2

>  <hydroph_interaction:TYR:130>  (334) 
0

>  <hydroph_interaction:PRO:131>  (334) 
0

>  <hydroph_interaction:ASP:129>  (334) 
0

>  <saltbridge:ASP:75>  (334) 
0

>  <saltbridge:ASP:83>  (334) 
0

>  <hydroph_interaction:ASN:152>  (334) 
0

>  <halogenbond:TYR:150>  (334) 
0

>  <hbond:ASP:83>  (334) 
0

>  <hydroph_interaction:VAL:155>  (334) 
0

>  <pication:TYR:161>  (334) 
0

>  <hbond:PRO:131>  (334) 
0

>  <hbond:LEU:128>  (334) 
0

>  <saltbridge:ASP:129>  (334) 
0

>  <hbond:THR:134>  (334) 
0

>  <pication:HIS:51>  (334) 
0

>  <hbond:SER:81>  (334) 
0

>  <hbond:GLY:159>  (334) 
0

>  <hydroph_interaction:PRO:101>  (334) 
0

>  <hydroph_interaction:THR:134>  (334) 
0

>  <hbond:GLY:82>  (334) 
0

>  <hydroph_interaction:GLU:104>  (334) 
0

>  <hydroph_interaction:VAL:36>  (334) 
0

>  <hydroph_interaction:MET:49>  (334) 
0

>  <halogenbond:GLU:104>  (334) 
0

>  <hydroph_interaction:LYS:107>  (334) 
0

$$$$
CSSS00011219298
     RDKit          3D

 30 31  0  0  0  0  0  0  0  0999 V2000
   -4.6703    4.6003  -20.6902 C   0  0  0  0  0  0  0  0  0  0  0  0
   -3.6769    5.3511  -20.0009 O   0  0  0  0  0  0  0  0  0  0  0  0
   -3.7685    5.7312  -18.6553 C   0  0  0  0  0  0  0  0  0  0  0  0
   -2.8507    6.4508  -18.1769 O   0  0  0  0  0  0  0  0  0  0  0  0
   -4.9722    5.3800  -17.7964 C   0  0  0  0  0  0  0  0  0  0  0  0
   -4.5976    5.2213  -16.3229 C   0  0  0  0  0  0  0  0  0  0  0  0
   -4.8898    6.4780  -15.6305 N   0  0  0  0  0  0  0  0  0  0  0  0
   -5.6943    7.3118  -16.5300 C   0  0  0  0  0  0  0  0  0  0  0  0
   -5.9923    6.5167  -17.8048 C   0  0  0  0  0  0  0  0  0  0  0  0
   -7.4207    5.9906  -17.8583 C   0  0  0  0  0  0  0  0  0  0  0  0
   -8.0119    5.3385  -16.7568 C   0  0  0  0  0  0  0  0  0  0  0  0
   -9.3114    4.8311  -16.8473 C   0  0  0  0  0  0  0  0  0  0  0  0
  -10.0324    4.9578  -18.0362 C   0  0  0  0  0  0  0  0  0  0  0  0
   -9.4544    5.5906  -19.1385 C   0  0  0  0  0  0  0  0  0  0  0  0
   -8.1555    6.1007  -19.0535 C   0  0  0  0  0  0  0  0  0  0  0  0
   -4.7510    3.5823  -20.2548 H   0  0  0  0  0  0  0  0  0  0  0  0
   -4.3775    4.5051  -21.7557 H   0  0  0  0  0  0  0  0  0  0  0  0
   -5.6502    5.1192  -20.6362 H   0  0  0  0  0  0  0  0  0  0  0  0
   -5.4148    4.4251  -18.1539 H   0  0  0  0  0  0  0  0  0  0  0  0
   -3.5338    4.9213  -16.1851 H   0  0  0  0  0  0  0  0  0  0  0  0
   -5.2167    4.4185  -15.8683 H   0  0  0  0  0  0  0  0  0  0  0  0
   -3.9840    6.9689  -15.4411 H   0  0  0  0  0  0  0  0  0  0  0  0
   -6.6219    7.6348  -16.0101 H   0  0  0  0  0  0  0  0  0  0  0  0
   -5.1315    8.2361  -16.7969 H   0  0  0  0  0  0  0  0  0  0  0  0
   -5.8294    7.1877  -18.6805 H   0  0  0  0  0  0  0  0  0  0  0  0
   -7.4749    5.2260  -15.8252 H   0  0  0  0  0  0  0  0  0  0  0  0
   -9.7590    4.3370  -15.9946 H   0  0  0  0  0  0  0  0  0  0  0  0
  -11.0378    4.5630  -18.1044 H   0  0  0  0  0  0  0  0  0  0  0  0
  -10.0121    5.6835  -20.0615 H   0  0  0  0  0  0  0  0  0  0  0  0
   -7.7237    6.5802  -19.9231 H   0  0  0  0  0  0  0  0  0  0  0  0
  1  2  1  0
  2  3  1  0
  3  4  2  0
  3  5  1  0
  5  6  1  0
  6  7  1  0
  7  8  1  0
  8  9  1  0
  9 10  1  0
 10 11  2  0
 11 12  1  0
 12 13  2  0
 13 14  1  0
 14 15  2  0
  9  5  1  0
 15 10  1  0
  1 16  1  0
  1 17  1  0
  1 18  1  0
  5 19  1  0
  6 20  1  0
  6 21  1  0
  7 22  1  0
  8 23  1  0
  8 24  1  0
  9 25  1  0
 11 26  1  0
 12 27  1  0
 13 28  1  0
 14 29  1  0
 15 30  1  0
A    1
 C1 
A    2
 O1 
A    3
 C2 
A    4
 O2 
A    5
 C3 
A    6
 C4 
A    7
 N1 
A    8
 C5 
A    9
 C6 
A   10
 C7 
A   11
 C8 
A   12
 C9 
A   13
 C10
A   14
 C11
A   15
 C12
A   16
 H1 
A   17
 H2 
A   18
 H3 
A   19
 H4 
A   20
 H5 
A   21
 H6 
A   22
 H7 
A   23
 H8 
A   24
 H9 
A   25
 H10
A   26
 H11
A   27
 H12
A   28
 H13
A   29
 H14
A   30
 H15
M  END
>  <ref_pdb>  (335) 
x0051_0B

>  <ref_mols>  (335) 
x0227_0B,x0051_0B

>  <original SMILES>  (335) 
[H]c1c([H])c([H])c(C2([H])C([H])([H])N([H])C([H])([H])C2([H])C(=O)OC([H])([H])[H])c([H])c1[H]

>  <index>  (335) 
489

>  <∆∆G>  (335) 
-6.804711

>  <∆G_bound>  (335) 
-6.473902

>  <∆G_unbound>  (335) 
0.330809

>  <comRMSD>  (335) 
0.71444

>  <N_constrained_atoms>  (335) 
15.0

>  <N_unconstrained_atoms>  (335) 
2.0

>  <runtime>  (335) 
28.011194

>  <LE>  (335) 
0.400277

>  <percent_hybrid>  (335) 
50.0

>  <dist>  (335) 
7.0

>  <ecfp4>  (335) 
0.15873

>  <daylight>  (335) 
0.259494

>  <topodist>  (335) 
5.0

>  <mces>  (335) 
14.0

>  <tdn>  (335) 
3.0

>  <tup>  (335) 
1.0

>  <rdn>  (335) 
0.0

>  <rup>  (335) 
0.0

>  <ldn>  (335) 
0.0

>  <lup>  (335) 
1.0

>  <mut>  (335) 
2.0

>  <maj>  (335) 
2.0

>  <min>  (335) 
0.0

>  <hyb>  (335) 
0.0

>  <sub>  (335) 
2.0

>  <query_index>  (335) 
270.0

>  <max_hit_Tanimoto>  (335) 
0.21363

>  <largest_ring>  (335) 
6

>  <N_interactions_kept>  (335) 
4.0

>  <N_interactions_lost>  (335) 
1.5

>  <interaction_uniqueness_metric>  (335) 
0.053763

>  <ad_hoc_penalty>  (335) 
-20.822987

>  <N_rotatable_bonds>  (335) 
3

>  <N_HA>  (335) 
15

>  <cluster>  (335) 
5772

>  <N_interactions>  (335) 
5

>  <Enamine>  (335) 
1

>  <Mcule>  (335) 
0

>  <N_PAINS>  (335) 
0

>  <UFF_Gibbs>  (335) 
65.960527

>  <strain_per_HA>  (335) 
3.880031

>  <saltbridge:HIS:51>  (335) 
0

>  <pistack:HIS:51>  (335) 
0

>  <hydroph_interaction:HIS:51>  (335) 
0

>  <hbond:ALA:132>  (335) 
0

>  <hbond:SER:135>  (335) 
0

>  <hydroph_interaction:TYR:150>  (335) 
1

>  <pistack:TYR:161>  (335) 
0

>  <hydroph_interaction:TYR:161>  (335) 
3

>  <hydroph_interaction:ASP:83>  (335) 
0

>  <hbond:TYR:130>  (335) 
0

>  <hydroph_interaction:ALA:132>  (335) 
1

>  <hbond:HIS:51>  (335) 
0

>  <hbond:ASP:129>  (335) 
0

>  <hbond:TYR:150>  (335) 
0

>  <hbond:GLY:151>  (335) 
0

>  <hbond:TYR:161>  (335) 
0

>  <hydroph_interaction:TYR:130>  (335) 
0

>  <hydroph_interaction:PRO:131>  (335) 
0

>  <hydroph_interaction:ASP:129>  (335) 
0

>  <saltbridge:ASP:75>  (335) 
0

>  <saltbridge:ASP:83>  (335) 
0

>  <hydroph_interaction:ASN:152>  (335) 
0

>  <halogenbond:TYR:150>  (335) 
0

>  <hbond:ASP:83>  (335) 
0

>  <hydroph_interaction:VAL:155>  (335) 
0

>  <pication:TYR:161>  (335) 
0

>  <hbond:PRO:131>  (335) 
0

>  <hbond:LEU:128>  (335) 
0

>  <saltbridge:ASP:129>  (335) 
0

>  <hbond:THR:134>  (335) 
0

>  <pication:HIS:51>  (335) 
0

>  <hbond:SER:81>  (335) 
0

>  <hbond:GLY:159>  (335) 
0

>  <hydroph_interaction:PRO:101>  (335) 
0

>  <hydroph_interaction:THR:134>  (335) 
0

>  <hbond:GLY:82>  (335) 
0

>  <hydroph_interaction:GLU:104>  (335) 
0

>  <hydroph_interaction:VAL:36>  (335) 
0

>  <hydroph_interaction:MET:49>  (335) 
0

>  <halogenbond:GLU:104>  (335) 
0

>  <hydroph_interaction:LYS:107>  (335) 
0

$$$$
CSSS00000054624
     RDKit          3D

 23 24  0  0  0  0  0  0  0  0999 V2000
   -5.9957    4.5034  -19.6507 O   0  0  0  0  0  0  0  0  0  0  0  0
   -6.3698    5.0359  -18.5706 C   0  0  0  0  0  0  0  0  0  0  0  0
   -5.3950    5.5143  -17.6175 N   0  0  0  0  0  0  0  0  0  0  0  0
   -4.0234    4.9889  -17.6321 C   0  0  0  0  0  0  0  0  0  0  0  0
   -3.6166    4.5853  -16.2811 C   0  0  0  0  0  0  0  0  0  0  0  0
   -3.2847    4.2544  -15.1706 C   0  0  0  0  0  0  0  0  0  0  0  0
   -5.7015    6.7263  -16.8355 C   0  0  0  0  0  0  0  0  0  0  0  0
   -6.4415    6.4214  -15.5162 C   0  0  0  0  0  0  0  0  0  0  0  0
   -7.4379    4.8853  -15.5230 S   0  0  0  0  0  0  0  0  0  0  0  0
   -8.3361    5.2639  -17.0261 C   0  0  0  0  0  0  0  0  0  0  0  0
   -7.8100    5.2035  -18.3078 C   0  0  0  0  0  0  0  0  0  0  0  0
   -8.7744    5.4007  -19.3068 C   0  0  0  0  0  0  0  0  0  0  0  0
  -10.0506    5.6283  -18.8035 C   0  0  0  0  0  0  0  0  0  0  0  0
   -9.9828    5.5709  -17.1212 S   0  0  0  0  0  0  0  0  0  0  0  0
   -3.9421    4.0971  -18.2889 H   0  0  0  0  0  0  0  0  0  0  0  0
   -3.3275    5.7663  -18.0121 H   0  0  0  0  0  0  0  0  0  0  0  0
   -2.9945    3.9644  -14.1951 H   0  0  0  0  0  0  0  0  0  0  0  0
   -6.3125    7.4227  -17.4515 H   0  0  0  0  0  0  0  0  0  0  0  0
   -4.7649    7.2769  -16.5969 H   0  0  0  0  0  0  0  0  0  0  0  0
   -7.0999    7.2773  -15.2558 H   0  0  0  0  0  0  0  0  0  0  0  0
   -5.6932    6.3206  -14.7019 H   0  0  0  0  0  0  0  0  0  0  0  0
   -8.5495    5.4044  -20.3654 H   0  0  0  0  0  0  0  0  0  0  0  0
  -10.9367    5.8127  -19.3955 H   0  0  0  0  0  0  0  0  0  0  0  0
  1  2  2  0
  2  3  1  0
  3  4  1  0
  4  5  1  0
  5  6  3  0
  3  7  1  0
  7  8  1  0
  8  9  1  0
  9 10  1  0
 10 11  2  0
 11 12  1  0
 12 13  2  0
 13 14  1  0
 11  2  1  0
 14 10  1  0
  4 15  1  0
  4 16  1  0
  6 17  1  0
  7 18  1  0
  7 19  1  0
  8 20  1  0
  8 21  1  0
 12 22  1  0
 13 23  1  0
A    1
 O1 
A    2
 C1 
A    3
 N1 
A    4
 C2 
A    5
 C3 
A    6
 C4 
A    7
 C5 
A    8
 C6 
A    9
 S1 
A   10
 C7 
A   11
 C8 
A   12
 C9 
A   13
 C10
A   14
 S2 
A   15
 H1 
A   16
 H2 
A   17
 H3 
A   18
 H4 
A   19
 H5 
A   20
 H6 
A   21
 H7 
A   22
 H8 
A   23
 H9 
M  END
>  <ref_pdb>  (336) 
x0051_0B

>  <ref_mols>  (336) 
x0472_0B,x0386_0B

>  <original SMILES>  (336) 
[H]C#CC([H])([H])N1C(=O)c2c(sc([H])c2[H])SC([H])([H])C1([H])[H]

>  <index>  (336) 
35

>  <∆∆G>  (336) 
-6.251578

>  <∆G_bound>  (336) 
-5.992064

>  <∆G_unbound>  (336) 
0.259515

>  <comRMSD>  (336) 
0.475958

>  <N_constrained_atoms>  (336) 
14.0

>  <N_unconstrained_atoms>  (336) 
1.0

>  <runtime>  (336) 
23.543343

>  <LE>  (336) 
0.416772

>  <percent_hybrid>  (336) 
13.0

>  <dist>  (336) 
6.0

>  <ecfp4>  (336) 
0.16129

>  <daylight>  (336) 
0.268041

>  <topodist>  (336) 
2.0

>  <mces>  (336) 
14.0

>  <tdn>  (336) 
1.0

>  <tup>  (336) 
0.0

>  <rdn>  (336) 
0.0

>  <rup>  (336) 
0.0

>  <ldn>  (336) 
0.0

>  <lup>  (336) 
1.0

>  <mut>  (336) 
2.0

>  <maj>  (336) 
2.0

>  <min>  (336) 
0.0

>  <hyb>  (336) 
2.0

>  <sub>  (336) 
1.0

>  <query_index>  (336) 
75.0

>  <max_hit_Tanimoto>  (336) 
0.281111

>  <largest_ring>  (336) 
7

>  <N_interactions_kept>  (336) 
3.0

>  <N_interactions_lost>  (336) 
0.0

>  <interaction_uniqueness_metric>  (336) 
0.049434

>  <ad_hoc_penalty>  (336) 
-20.820617

>  <N_rotatable_bonds>  (336) 
1

>  <N_HA>  (336) 
14

>  <cluster>  (336) 
6184

>  <N_interactions>  (336) 
4

>  <Enamine>  (336) 
1

>  <Mcule>  (336) 
0

>  <N_PAINS>  (336) 
0

>  <UFF_Gibbs>  (336) 
277.558525

>  <strain_per_HA>  (336) 
18.503902

>  <saltbridge:HIS:51>  (336) 
0

>  <pistack:HIS:51>  (336) 
0

>  <hydroph_interaction:HIS:51>  (336) 
0

>  <hbond:ALA:132>  (336) 
0

>  <hbond:SER:135>  (336) 
0

>  <hydroph_interaction:TYR:150>  (336) 
0

>  <pistack:TYR:161>  (336) 
0

>  <hydroph_interaction:TYR:161>  (336) 
3

>  <hydroph_interaction:ASP:83>  (336) 
0

>  <hbond:TYR:130>  (336) 
0

>  <hydroph_interaction:ALA:132>  (336) 
0

>  <hbond:HIS:51>  (336) 
0

>  <hbond:ASP:129>  (336) 
0

>  <hbond:TYR:150>  (336) 
0

>  <hbond:GLY:151>  (336) 
0

>  <hbond:TYR:161>  (336) 
0

>  <hydroph_interaction:TYR:130>  (336) 
0

>  <hydroph_interaction:PRO:131>  (336) 
0

>  <hydroph_interaction:ASP:129>  (336) 
0

>  <saltbridge:ASP:75>  (336) 
0

>  <saltbridge:ASP:83>  (336) 
0

>  <hydroph_interaction:ASN:152>  (336) 
0

>  <halogenbond:TYR:150>  (336) 
0

>  <hbond:ASP:83>  (336) 
0

>  <hydroph_interaction:VAL:155>  (336) 
1

>  <pication:TYR:161>  (336) 
0

>  <hbond:PRO:131>  (336) 
0

>  <hbond:LEU:128>  (336) 
0

>  <saltbridge:ASP:129>  (336) 
0

>  <hbond:THR:134>  (336) 
0

>  <pication:HIS:51>  (336) 
0

>  <hbond:SER:81>  (336) 
0

>  <hbond:GLY:159>  (336) 
0

>  <hydroph_interaction:PRO:101>  (336) 
0

>  <hydroph_interaction:THR:134>  (336) 
0

>  <hbond:GLY:82>  (336) 
0

>  <hydroph_interaction:GLU:104>  (336) 
0

>  <hydroph_interaction:VAL:36>  (336) 
0

>  <hydroph_interaction:MET:49>  (336) 
0

>  <halogenbond:GLU:104>  (336) 
0

>  <hydroph_interaction:LYS:107>  (336) 
0

$$$$
CQYMJEGQZGOJIN-UHFFFAOYSA-N
     RDKit          3D

 31 32  0  0  0  0  0  0  0  0999 V2000
   -6.0557    5.0114  -20.1287 C   0  0  0  0  0  0  0  0  0  0  0  0
   -6.3593    5.6680  -18.8859 N   0  0  0  0  0  0  0  0  0  0  0  0
   -7.4682    5.3205  -18.0403 C   0  0  0  0  0  0  0  0  0  0  0  0
   -8.7302    5.0093  -18.5759 C   0  0  0  0  0  0  0  0  0  0  0  0
   -9.7944    4.6896  -17.7292 C   0  0  0  0  0  0  0  0  0  0  0  0
   -9.6179    4.6997  -16.3438 C   0  0  0  0  0  0  0  0  0  0  0  0
   -8.3775    5.0538  -15.7926 C   0  0  0  0  0  0  0  0  0  0  0  0
   -8.1756    5.0617  -14.3293 C   0  0  0  0  0  0  0  0  0  0  0  0
   -9.0135    5.7666  -13.4547 O   0  0  0  0  0  0  0  0  0  0  0  0
   -9.9651    6.7413  -13.8703 C   0  0  0  0  0  0  0  0  0  0  0  0
   -7.1973    4.4318  -13.8478 O   0  0  0  0  0  0  0  0  0  0  0  0
   -7.3045    5.3529  -16.6471 C   0  0  0  0  0  0  0  0  0  0  0  0
   -6.7826    4.0729  -20.5533 O   0  0  0  0  0  0  0  0  0  0  0  0
   -4.8949    5.4363  -20.9335 C   0  0  0  0  0  0  0  0  0  0  0  0
   -3.5950    5.5093  -20.3907 C   0  0  0  0  0  0  0  0  0  0  0  0
   -3.1881    4.9530  -18.5992 Br  0  0  0  0  0  0  0  0  0  0  0  0
   -2.5404    5.9341  -21.2065 C   0  0  0  0  0  0  0  0  0  0  0  0
   -2.7655    6.2600  -22.5063 N   0  0  0  0  0  0  0  0  0  0  0  0
   -4.0047    6.1813  -23.0566 C   0  0  0  0  0  0  0  0  0  0  0  0
   -5.0886    5.7620  -22.2838 C   0  0  0  0  0  0  0  0  0  0  0  0
   -5.6948    6.3943  -18.5356 H   0  0  0  0  0  0  0  0  0  0  0  0
   -8.9013    5.0324  -19.6436 H   0  0  0  0  0  0  0  0  0  0  0  0
  -10.7591    4.4337  -18.1481 H   0  0  0  0  0  0  0  0  0  0  0  0
  -10.4438    4.4139  -15.7055 H   0  0  0  0  0  0  0  0  0  0  0  0
  -10.3269    7.2942  -12.9793 H   0  0  0  0  0  0  0  0  0  0  0  0
  -10.8367    6.2543  -14.3508 H   0  0  0  0  0  0  0  0  0  0  0  0
   -9.4956    7.4644  -14.5708 H   0  0  0  0  0  0  0  0  0  0  0  0
   -6.3385    5.6124  -16.2298 H   0  0  0  0  0  0  0  0  0  0  0  0
   -1.5353    5.9925  -20.8102 H   0  0  0  0  0  0  0  0  0  0  0  0
   -4.1492    6.4449  -24.0958 H   0  0  0  0  0  0  0  0  0  0  0  0
   -6.0739    5.7074  -22.7310 H   0  0  0  0  0  0  0  0  0  0  0  0
  1  2  1  0
  2  3  1  0
  3  4  2  0
  4  5  1  0
  5  6  2  0
  6  7  1  0
  7  8  1  0
  8  9  1  0
  9 10  1  0
  8 11  2  0
  7 12  2  0
  1 13  2  0
  1 14  1  0
 14 15  2  0
 15 16  1  0
 15 17  1  0
 17 18  2  0
 18 19  1  0
 19 20  2  0
  3 12  1  0
 20 14  1  0
  2 21  1  0
  4 22  1  0
  5 23  1  0
  6 24  1  0
 10 25  1  0
 10 26  1  0
 10 27  1  0
 12 28  1  0
 17 29  1  0
 19 30  1  0
 20 31  1  0
A    1
 C1 
A    2
 N1 
A    3
 C2 
A    4
 C3 
A    5
 C4 
A    6
 C5 
A    7
 C6 
A    8
 C7 
A    9
 O1 
A   10
 C8 
A   11
 O2 
A   12
 C9 
A   13
 O3 
A   14
 C10
A   15
 C11
A   16
BR1 
A   17
 C12
A   18
 N2 
A   19
 C13
A   20
 C14
A   21
 H1 
A   22
 H2 
A   23
 H3 
A   24
 H4 
A   25
 H5 
A   26
 H6 
A   27
 H7 
A   28
 H8 
A   29
 H9 
A   30
 H10
A   31
 H11
M  END
>  <ref_pdb>  (337) 
x0051_0B

>  <ref_mols>  (337) 
x0852_0B,x0951_0B

>  <original SMILES>  (337) 
[H]c1nc([H])c(Br)c(C(=O)N([H])c2c([H])c([H])c([H])c(C(=O)OC([H])([H])[H])c2[H])c1[H]

>  <index>  (337) 
500

>  <∆∆G>  (337) 
-6.294751

>  <∆G_bound>  (337) 
-5.699902

>  <∆G_unbound>  (337) 
0.594848

>  <comRMSD>  (337) 
0.510487

>  <N_constrained_atoms>  (337) 
23.0

>  <N_unconstrained_atoms>  (337) 
0.0

>  <runtime>  (337) 
43.459951

>  <LE>  (337) 
0.273685

>  <percent_hybrid>  (337) 
32.0

>  <dist>  (337) 
7.0

>  <ecfp4>  (337) 
0.306667

>  <daylight>  (337) 
0.357466

>  <topodist>  (337) 
4.0

>  <mces>  (337) 
21.0

>  <tdn>  (337) 
2.0

>  <tup>  (337) 
0.0

>  <rdn>  (337) 
1.0

>  <rup>  (337) 
0.0

>  <ldn>  (337) 
1.0

>  <lup>  (337) 
0.0

>  <mut>  (337) 
3.0

>  <maj>  (337) 
2.0

>  <min>  (337) 
1.0

>  <hyb>  (337) 
0.0

>  <sub>  (337) 
2.0

>  <query_index>  (337) 
95.0

>  <max_hit_Tanimoto>  (337) 
0.395047

>  <largest_ring>  (337) 
6

>  <N_interactions_kept>  (337) 
3.0

>  <N_interactions_lost>  (337) 
3.0

>  <interaction_uniqueness_metric>  (337) 
0.203248

>  <ad_hoc_penalty>  (337) 
-20.817254

>  <N_rotatable_bonds>  (337) 
4

>  <N_HA>  (337) 
20

>  <cluster>  (337) 
5761

>  <N_interactions>  (337) 
8

>  <Enamine>  (337) 
0

>  <Mcule>  (337) 
1

>  <N_PAINS>  (337) 
0

>  <UFF_Gibbs>  (337) 
117.921267

>  <strain_per_HA>  (337) 
5.127012

>  <saltbridge:HIS:51>  (337) 
1

>  <pistack:HIS:51>  (337) 
0

>  <hydroph_interaction:HIS:51>  (337) 
0

>  <hbond:ALA:132>  (337) 
0

>  <hbond:SER:135>  (337) 
0

>  <hydroph_interaction:TYR:150>  (337) 
1

>  <pistack:TYR:161>  (337) 
0

>  <hydroph_interaction:TYR:161>  (337) 
3

>  <hydroph_interaction:ASP:83>  (337) 
0

>  <hbond:TYR:130>  (337) 
1

>  <hydroph_interaction:ALA:132>  (337) 
1

>  <hbond:HIS:51>  (337) 
0

>  <hbond:ASP:129>  (337) 
0

>  <hbond:TYR:150>  (337) 
0

>  <hbond:GLY:151>  (337) 
0

>  <hbond:TYR:161>  (337) 
0

>  <hydroph_interaction:TYR:130>  (337) 
0

>  <hydroph_interaction:PRO:131>  (337) 
0

>  <hydroph_interaction:ASP:129>  (337) 
1

>  <saltbridge:ASP:75>  (337) 
0

>  <saltbridge:ASP:83>  (337) 
0

>  <hydroph_interaction:ASN:152>  (337) 
0

>  <halogenbond:TYR:150>  (337) 
0

>  <hbond:ASP:83>  (337) 
0

>  <hydroph_interaction:VAL:155>  (337) 
0

>  <pication:TYR:161>  (337) 
0

>  <hbond:PRO:131>  (337) 
0

>  <hbond:LEU:128>  (337) 
0

>  <saltbridge:ASP:129>  (337) 
0

>  <hbond:THR:134>  (337) 
0

>  <pication:HIS:51>  (337) 
0

>  <hbond:SER:81>  (337) 
0

>  <hbond:GLY:159>  (337) 
0

>  <hydroph_interaction:PRO:101>  (337) 
0

>  <hydroph_interaction:THR:134>  (337) 
0

>  <hbond:GLY:82>  (337) 
0

>  <hydroph_interaction:GLU:104>  (337) 
0

>  <hydroph_interaction:VAL:36>  (337) 
0

>  <hydroph_interaction:MET:49>  (337) 
0

>  <halogenbond:GLU:104>  (337) 
0

>  <hydroph_interaction:LYS:107>  (337) 
0

$$$$
Z3205061516
     RDKit          3D

 39 42  0  0  0  0  0  0  0  0999 V2000
   -8.4608    6.8279  -13.9470 O   0  0  0  0  0  0  0  0  0  0  0  0
   -9.0338    5.7485  -14.2597 C   0  0  0  0  0  0  0  0  0  0  0  0
  -10.0430    5.2038  -13.3933 N   0  0  0  0  0  0  0  0  0  0  0  0
  -10.4792    5.8861  -12.1772 C   0  0  0  0  0  0  0  0  0  0  0  0
   -9.4102    5.8170  -11.1295 C   0  0  0  0  0  0  0  0  0  0  0  0
   -8.9858    4.7122  -10.4210 C   0  0  0  0  0  0  0  0  0  0  0  0
   -9.5573    3.3252  -10.4379 C   0  0  0  0  0  0  0  0  0  0  0  0
   -8.5851    2.3381   -9.7724 C   0  0  0  0  0  0  0  0  0  0  0  0
   -8.0254    2.9028   -8.4559 C   0  0  0  0  0  0  0  0  0  0  0  0
   -7.2494    4.2067   -8.7053 C   0  0  0  0  0  0  0  0  0  0  0  0
   -8.0058    5.0966   -9.5841 N   0  0  0  0  0  0  0  0  0  0  0  0
   -7.7453    6.3835   -9.7536 N   0  0  0  0  0  0  0  0  0  0  0  0
   -8.5971    6.8494  -10.6919 C   0  0  0  0  0  0  0  0  0  0  0  0
   -8.6459    5.0545  -15.5110 C   0  0  0  0  0  0  0  0  0  0  0  0
   -9.5468    4.2144  -16.2068 C   0  0  0  0  0  0  0  0  0  0  0  0
   -9.1598    3.5690  -17.3989 C   0  0  0  0  0  0  0  0  0  0  0  0
   -7.8684    3.7635  -17.9049 C   0  0  0  0  0  0  0  0  0  0  0  0
   -7.0370    4.5814  -17.2153 N   0  0  0  0  0  0  0  0  0  0  0  0
   -5.7689    4.9589  -17.4271 C   0  0  0  0  0  0  0  0  0  0  0  0
   -5.0626    4.5883  -18.4024 O   0  0  0  0  0  0  0  0  0  0  0  0
   -5.3469    5.7879  -16.4540 N   0  0  0  0  0  0  0  0  0  0  0  0
   -6.3483    5.9540  -15.5959 N   0  0  0  0  0  0  0  0  0  0  0  0
   -7.3721    5.2132  -16.0778 C   0  0  0  0  0  0  0  0  0  0  0  0
  -10.4566    4.2676  -13.5988 H   0  0  0  0  0  0  0  0  0  0  0  0
  -11.3952    5.3941  -11.7854 H   0  0  0  0  0  0  0  0  0  0  0  0
  -10.7344    6.9431  -12.4070 H   0  0  0  0  0  0  0  0  0  0  0  0
   -9.7514    3.0049  -11.4832 H   0  0  0  0  0  0  0  0  0  0  0  0
  -10.5198    3.3297   -9.8831 H   0  0  0  0  0  0  0  0  0  0  0  0
   -9.1147    1.3824   -9.5698 H   0  0  0  0  0  0  0  0  0  0  0  0
   -7.7436    2.1215  -10.4669 H   0  0  0  0  0  0  0  0  0  0  0  0
   -8.8643    3.0994   -7.7528 H   0  0  0  0  0  0  0  0  0  0  0  0
   -7.3500    2.1552   -7.9870 H   0  0  0  0  0  0  0  0  0  0  0  0
   -7.0536    4.7136   -7.7361 H   0  0  0  0  0  0  0  0  0  0  0  0
   -6.2743    3.9712   -9.1835 H   0  0  0  0  0  0  0  0  0  0  0  0
   -8.6202    7.8741  -11.0381 H   0  0  0  0  0  0  0  0  0  0  0  0
  -10.5581    4.0714  -15.8512 H   0  0  0  0  0  0  0  0  0  0  0  0
   -9.8585    2.9310  -17.9242 H   0  0  0  0  0  0  0  0  0  0  0  0
   -7.5469    3.2782  -18.8177 H   0  0  0  0  0  0  0  0  0  0  0  0
   -4.4056    6.2308  -16.3662 H   0  0  0  0  0  0  0  0  0  0  0  0
  1  2  2  0
  2  3  1  0
  3  4  1  0
  4  5  1  0
  5  6  2  0
  6  7  1  0
  7  8  1  0
  8  9  1  0
  9 10  1  0
 10 11  1  0
 11 12  1  0
 12 13  2  0
  2 14  1  0
 14 15  2  0
 15 16  1  0
 16 17  2  0
 17 18  1  0
 18 19  1  0
 19 20  2  0
 19 21  1  0
 21 22  1  0
 22 23  2  0
 13  5  1  0
 11  6  1  0
 23 14  1  0
 23 18  1  0
  3 24  1  0
  4 25  1  0
  4 26  1  0
  7 27  1  0
  7 28  1  0
  8 29  1  0
  8 30  1  0
  9 31  1  0
  9 32  1  0
 10 33  1  0
 10 34  1  0
 13 35  1  0
 15 36  1  0
 16 37  1  0
 17 38  1  0
 21 39  1  0
A    1
 O1 
A    2
 C1 
A    3
 N1 
A    4
 C2 
A    5
 C3 
A    6
 C4 
A    7
 C5 
A    8
 C6 
A    9
 C7 
A   10
 C8 
A   11
 N2 
A   12
 N3 
A   13
 C9 
A   14
 C10
A   15
 C11
A   16
 C12
A   17
 C13
A   18
 N4 
A   19
 C14
A   20
 O2 
A   21
 N5 
A   22
 N6 
A   23
 C15
A   24
 H1 
A   25
 H2 
A   26
 H3 
A   27
 H4 
A   28
 H5 
A   29
 H6 
A   30
 H7 
A   31
 H8 
A   32
 H9 
A   33
 H10
A   34
 H11
A   35
 H12
A   36
 H13
A   37
 H14
A   38
 H15
A   39
 H16
M  END
>  <ref_pdb>  (338) 
x0051_0B

>  <ref_mols>  (338) 
x0435_0B,x0969_1B

>  <original SMILES>  (338) 
[H]c1nn2c(c1C([H])([H])N([H])C(=O)c1c([H])c([H])c([H])n3c(=O)n([H])nc13)C([H])([H])C([H])([H])C([H])([H])C2([H])[H]

>  <index>  (338) 
442

>  <∆∆G>  (338) 
-6.373907

>  <∆G_bound>  (338) 
-4.905324

>  <∆G_unbound>  (338) 
1.468582

>  <comRMSD>  (338) 
0.3581

>  <N_constrained_atoms>  (338) 
20.0

>  <N_unconstrained_atoms>  (338) 
3.0

>  <runtime>  (338) 
48.663673

>  <LE>  (338) 
0.277126

>  <percent_hybrid>  (338) 
50.0

>  <dist>  (338) 
6.0

>  <ecfp4>  (338) 
0.307692

>  <daylight>  (338) 
0.240786

>  <topodist>  (338) 
1.0

>  <mces>  (338) 
25.0

>  <tdn>  (338) 
0.0

>  <tup>  (338) 
1.0

>  <rdn>  (338) 
0.0

>  <rup>  (338) 
0.0

>  <ldn>  (338) 
0.0

>  <lup>  (338) 
0.0

>  <mut>  (338) 
4.0

>  <maj>  (338) 
4.0

>  <min>  (338) 
0.0

>  <hyb>  (338) 
1.0

>  <sub>  (338) 
0.0

>  <query_index>  (338) 
311.0

>  <max_hit_Tanimoto>  (338) 
0.297275

>  <largest_ring>  (338) 
6

>  <N_interactions_kept>  (338) 
2.0

>  <N_interactions_lost>  (338) 
1.5

>  <interaction_uniqueness_metric>  (338) 
0.186251

>  <ad_hoc_penalty>  (338) 
-20.784577

>  <N_rotatable_bonds>  (338) 
3

>  <N_HA>  (338) 
23

>  <cluster>  (338) 
5817

>  <N_interactions>  (338) 
5

>  <Enamine>  (338) 
1

>  <Mcule>  (338) 
0

>  <N_PAINS>  (338) 
0

>  <UFF_Gibbs>  (338) 
134.766995

>  <strain_per_HA>  (338) 
5.859435

>  <saltbridge:HIS:51>  (338) 
0

>  <pistack:HIS:51>  (338) 
0

>  <hydroph_interaction:HIS:51>  (338) 
1

>  <hbond:ALA:132>  (338) 
0

>  <hbond:SER:135>  (338) 
0

>  <hydroph_interaction:TYR:150>  (338) 
0

>  <pistack:TYR:161>  (338) 
1

>  <hydroph_interaction:TYR:161>  (338) 
1

>  <hydroph_interaction:ASP:83>  (338) 
1

>  <hbond:TYR:130>  (338) 
0

>  <hydroph_interaction:ALA:132>  (338) 
0

>  <hbond:HIS:51>  (338) 
0

>  <hbond:ASP:129>  (338) 
0

>  <hbond:TYR:150>  (338) 
0

>  <hbond:GLY:151>  (338) 
0

>  <hbond:TYR:161>  (338) 
1

>  <hydroph_interaction:TYR:130>  (338) 
0

>  <hydroph_interaction:PRO:131>  (338) 
0

>  <hydroph_interaction:ASP:129>  (338) 
0

>  <saltbridge:ASP:75>  (338) 
0

>  <saltbridge:ASP:83>  (338) 
0

>  <hydroph_interaction:ASN:152>  (338) 
0

>  <halogenbond:TYR:150>  (338) 
0

>  <hbond:ASP:83>  (338) 
0

>  <hydroph_interaction:VAL:155>  (338) 
0

>  <pication:TYR:161>  (338) 
0

>  <hbond:PRO:131>  (338) 
0

>  <hbond:LEU:128>  (338) 
0

>  <saltbridge:ASP:129>  (338) 
0

>  <hbond:THR:134>  (338) 
0

>  <pication:HIS:51>  (338) 
0

>  <hbond:SER:81>  (338) 
0

>  <hbond:GLY:159>  (338) 
0

>  <hydroph_interaction:PRO:101>  (338) 
0

>  <hydroph_interaction:THR:134>  (338) 
0

>  <hbond:GLY:82>  (338) 
0

>  <hydroph_interaction:GLU:104>  (338) 
0

>  <hydroph_interaction:VAL:36>  (338) 
0

>  <hydroph_interaction:MET:49>  (338) 
0

>  <halogenbond:GLU:104>  (338) 
0

>  <hydroph_interaction:LYS:107>  (338) 
0

$$$$
Z846935254
     RDKit          3D

 40 41  0  0  0  0  0  0  0  0999 V2000
   -7.6737    5.9497  -15.2811 C   0  0  0  0  0  0  0  0  0  0  0  0
   -8.1837    5.4488  -16.6044 C   0  0  0  0  0  0  0  0  0  0  0  0
   -9.5514    5.5596  -16.9089 C   0  0  0  0  0  0  0  0  0  0  0  0
  -10.0421    5.1090  -18.1362 C   0  0  0  0  0  0  0  0  0  0  0  0
   -9.1772    4.5313  -19.0657 C   0  0  0  0  0  0  0  0  0  0  0  0
   -7.8184    4.4043  -18.7719 C   0  0  0  0  0  0  0  0  0  0  0  0
   -7.3062    4.8679  -17.5487 C   0  0  0  0  0  0  0  0  0  0  0  0
   -5.9064    4.7271  -17.2547 N   0  0  0  0  0  0  0  0  0  0  0  0
   -4.8688    4.9882  -18.2132 C   0  0  0  0  0  0  0  0  0  0  0  0
   -3.3705    4.3981  -17.9169 S   0  0  0  0  0  0  0  0  0  0  0  0
   -5.0372    6.0102  -19.2125 N   0  0  0  0  0  0  0  0  0  0  0  0
   -5.5341    7.3372  -18.8816 C   0  0  0  0  0  0  0  0  0  0  0  0
   -5.7544    8.0451  -20.2101 C   0  0  0  0  0  0  0  0  0  0  0  0
   -5.7430    6.9512  -21.2745 C   0  0  0  0  0  0  0  0  0  0  0  0
   -4.9982    5.7595  -20.6521 C   0  0  0  0  0  0  0  0  0  0  0  0
   -3.5407    5.5766  -21.1708 C   0  0  0  0  0  0  0  0  0  0  0  0
   -3.5050    5.1776  -22.6542 C   0  0  0  0  0  0  0  0  0  0  0  0
   -2.6445    6.7987  -20.9170 C   0  0  0  0  0  0  0  0  0  0  0  0
   -7.3990    5.0879  -14.6377 H   0  0  0  0  0  0  0  0  0  0  0  0
   -6.7812    6.5924  -15.4361 H   0  0  0  0  0  0  0  0  0  0  0  0
   -8.4403    6.5547  -14.7516 H   0  0  0  0  0  0  0  0  0  0  0  0
  -10.2399    5.9994  -16.1980 H   0  0  0  0  0  0  0  0  0  0  0  0
  -11.0961    5.2015  -18.3640 H   0  0  0  0  0  0  0  0  0  0  0  0
   -9.5619    4.1708  -20.0109 H   0  0  0  0  0  0  0  0  0  0  0  0
   -7.1704    3.9182  -19.4868 H   0  0  0  0  0  0  0  0  0  0  0  0
   -5.6302    4.4079  -16.2987 H   0  0  0  0  0  0  0  0  0  0  0  0
   -4.7881    7.8805  -18.2625 H   0  0  0  0  0  0  0  0  0  0  0  0
   -6.4939    7.2712  -18.3298 H   0  0  0  0  0  0  0  0  0  0  0  0
   -4.9233    8.7596  -20.3962 H   0  0  0  0  0  0  0  0  0  0  0  0
   -6.7165    8.6024  -20.2171 H   0  0  0  0  0  0  0  0  0  0  0  0
   -6.7924    6.6504  -21.4899 H   0  0  0  0  0  0  0  0  0  0  0  0
   -5.2938    7.3252  -22.2166 H   0  0  0  0  0  0  0  0  0  0  0  0
   -5.5651    4.8302  -20.8757 H   0  0  0  0  0  0  0  0  0  0  0  0
   -3.0940    4.7218  -20.6237 H   0  0  0  0  0  0  0  0  0  0  0  0
   -3.8178    6.0139  -23.3122 H   0  0  0  0  0  0  0  0  0  0  0  0
   -4.1711    4.3075  -22.8360 H   0  0  0  0  0  0  0  0  0  0  0  0
   -2.4726    4.8832  -22.9406 H   0  0  0  0  0  0  0  0  0  0  0  0
   -2.6497    7.0692  -19.8404 H   0  0  0  0  0  0  0  0  0  0  0  0
   -2.9805    7.6724  -21.5131 H   0  0  0  0  0  0  0  0  0  0  0  0
   -1.5970    6.5645  -21.2031 H   0  0  0  0  0  0  0  0  0  0  0  0
  1  2  1  0
  2  3  2  0
  3  4  1  0
  4  5  2  0
  5  6  1  0
  6  7  2  0
  7  8  1  0
  8  9  1  0
  9 10  2  0
  9 11  1  0
 11 12  1  0
 12 13  1  0
 13 14  1  0
 14 15  1  0
 15 16  1  0
 16 17  1  0
 16 18  1  0
  7  2  1  0
 15 11  1  0
  1 19  1  0
  1 20  1  0
  1 21  1  0
  3 22  1  0
  4 23  1  0
  5 24  1  0
  6 25  1  0
  8 26  1  0
 12 27  1  0
 12 28  1  0
 13 29  1  0
 13 30  1  0
 14 31  1  0
 14 32  1  0
 15 33  1  0
 16 34  1  0
 17 35  1  0
 17 36  1  0
 17 37  1  0
 18 38  1  0
 18 39  1  0
 18 40  1  0
A    1
 C1 
A    2
 C2 
A    3
 C3 
A    4
 C4 
A    5
 C5 
A    6
 C6 
A    7
 C7 
A    8
 N1 
A    9
 C8 
A   10
 S1 
A   11
 N2 
A   12
 C9 
A   13
 C10
A   14
 C11
A   15
 C12
A   16
 C13
A   17
 C14
A   18
 C15
A   19
 H1 
A   20
 H2 
A   21
 H3 
A   22
 H4 
A   23
 H5 
A   24
 H6 
A   25
 H7 
A   26
 H8 
A   27
 H9 
A   28
 H10
A   29
 H11
A   30
 H12
A   31
 H13
A   32
 H14
A   33
 H15
A   34
 H16
A   35
 H17
A   36
 H18
A   37
 H19
A   38
 H20
A   39
 H21
A   40
 H22
M  END
>  <ref_pdb>  (339) 
x0051_0B

>  <ref_mols>  (339) 
x0229_0B,x0904_0B

>  <original SMILES>  (339) 
[H]c1c([H])c([H])c(C([H])([H])[H])c(N([H])C(=S)N2C([H])([H])C([H])([H])C([H])([H])C2([H])C([H])(C([H])([H])[H])C([H])([H])[H])c1[H]

>  <index>  (339) 
484

>  <∆∆G>  (339) 
-8.156419

>  <∆G_bound>  (339) 
-8.208108

>  <∆G_unbound>  (339) 
-0.051689

>  <comRMSD>  (339) 
0.708291

>  <N_constrained_atoms>  (339) 
21.0

>  <N_unconstrained_atoms>  (339) 
1.0

>  <runtime>  (339) 
42.700281

>  <LE>  (339) 
0.370746

>  <percent_hybrid>  (339) 
47.0

>  <dist>  (339) 
5.0

>  <ecfp4>  (339) 
0.205882

>  <daylight>  (339) 
0.254438

>  <topodist>  (339) 
2.0

>  <mces>  (339) 
19.0

>  <tdn>  (339) 
1.0

>  <tup>  (339) 
0.0

>  <rdn>  (339) 
1.0

>  <rup>  (339) 
0.0

>  <ldn>  (339) 
0.0

>  <lup>  (339) 
0.0

>  <mut>  (339) 
3.0

>  <maj>  (339) 
2.0

>  <min>  (339) 
1.0

>  <hyb>  (339) 
0.0

>  <sub>  (339) 
2.0

>  <query_index>  (339) 
66.0

>  <max_hit_Tanimoto>  (339) 
0.275391

>  <largest_ring>  (339) 
6

>  <N_interactions_kept>  (339) 
2.0

>  <N_interactions_lost>  (339) 
1.5

>  <interaction_uniqueness_metric>  (339) 
0.068525

>  <ad_hoc_penalty>  (339) 
-20.763773

>  <N_rotatable_bonds>  (339) 
5

>  <N_HA>  (339) 
18

>  <cluster>  (339) 
5777

>  <N_interactions>  (339) 
5

>  <Enamine>  (339) 
1

>  <Mcule>  (339) 
0

>  <N_PAINS>  (339) 
0

>  <UFF_Gibbs>  (339) 
89.130074

>  <strain_per_HA>  (339) 
4.051367

>  <saltbridge:HIS:51>  (339) 
0

>  <pistack:HIS:51>  (339) 
0

>  <hydroph_interaction:HIS:51>  (339) 
0

>  <hbond:ALA:132>  (339) 
0

>  <hbond:SER:135>  (339) 
0

>  <hydroph_interaction:TYR:150>  (339) 
1

>  <pistack:TYR:161>  (339) 
0

>  <hydroph_interaction:TYR:161>  (339) 
3

>  <hydroph_interaction:ASP:83>  (339) 
0

>  <hbond:TYR:130>  (339) 
0

>  <hydroph_interaction:ALA:132>  (339) 
0

>  <hbond:HIS:51>  (339) 
0

>  <hbond:ASP:129>  (339) 
0

>  <hbond:TYR:150>  (339) 
0

>  <hbond:GLY:151>  (339) 
0

>  <hbond:TYR:161>  (339) 
0

>  <hydroph_interaction:TYR:130>  (339) 
0

>  <hydroph_interaction:PRO:131>  (339) 
0

>  <hydroph_interaction:ASP:129>  (339) 
1

>  <saltbridge:ASP:75>  (339) 
0

>  <saltbridge:ASP:83>  (339) 
0

>  <hydroph_interaction:ASN:152>  (339) 
0

>  <halogenbond:TYR:150>  (339) 
0

>  <hbond:ASP:83>  (339) 
0

>  <hydroph_interaction:VAL:155>  (339) 
0

>  <pication:TYR:161>  (339) 
0

>  <hbond:PRO:131>  (339) 
0

>  <hbond:LEU:128>  (339) 
0

>  <saltbridge:ASP:129>  (339) 
0

>  <hbond:THR:134>  (339) 
0

>  <pication:HIS:51>  (339) 
0

>  <hbond:SER:81>  (339) 
0

>  <hbond:GLY:159>  (339) 
0

>  <hydroph_interaction:PRO:101>  (339) 
0

>  <hydroph_interaction:THR:134>  (339) 
0

>  <hbond:GLY:82>  (339) 
0

>  <hydroph_interaction:GLU:104>  (339) 
0

>  <hydroph_interaction:VAL:36>  (339) 
0

>  <hydroph_interaction:MET:49>  (339) 
0

>  <halogenbond:GLU:104>  (339) 
0

>  <hydroph_interaction:LYS:107>  (339) 
0

$$$$
JSYWJPUIXGVHTL-UHFFFAOYSA-N
     RDKit          3D

 51 53  0  0  0  0  0  0  0  0999 V2000
   -9.6884    7.4799  -14.1288 C   0  0  0  0  0  0  0  0  0  0  0  0
   -9.2864    6.9922  -15.4175 N   0  0  0  0  0  0  0  0  0  0  0  0
   -8.0239    6.2779  -15.6202 C   0  0  0  0  0  0  0  0  0  0  0  0
   -8.1212    5.3057  -16.7737 C   0  0  0  0  0  0  0  0  0  0  0  0
   -7.0076    5.0694  -17.6091 C   0  0  0  0  0  0  0  0  0  0  0  0
   -5.8119    5.7631  -17.4187 O   0  0  0  0  0  0  0  0  0  0  0  0
   -4.7885    5.2470  -16.5761 C   0  0  0  0  0  0  0  0  0  0  0  0
   -3.6231    6.2230  -16.5371 C   0  0  0  0  0  0  0  0  0  0  0  0
   -7.0942    4.1312  -18.6455 C   0  0  0  0  0  0  0  0  0  0  0  0
   -8.2720    3.4083  -18.8453 C   0  0  0  0  0  0  0  0  0  0  0  0
   -9.3680    3.6140  -18.0061 C   0  0  0  0  0  0  0  0  0  0  0  0
   -9.2924    4.5489  -16.9702 C   0  0  0  0  0  0  0  0  0  0  0  0
  -10.2053    8.6262  -14.0448 O   0  0  0  0  0  0  0  0  0  0  0  0
   -9.5388    6.6627  -12.9034 C   0  0  0  0  0  0  0  0  0  0  0  0
   -9.2795    7.2823  -11.6702 C   0  0  0  0  0  0  0  0  0  0  0  0
   -9.1444    6.5168  -10.5085 C   0  0  0  0  0  0  0  0  0  0  0  0
   -9.2799    5.1210  -10.5570 C   0  0  0  0  0  0  0  0  0  0  0  0
   -9.1374    4.3393   -9.3565 N   0  0  0  0  0  0  0  0  0  0  0  0
  -10.0578    3.2275   -9.0839 C   0  0  0  0  0  0  0  0  0  0  0  0
  -10.3464    3.1350   -7.5827 C   0  0  0  0  0  0  0  0  0  0  0  0
   -9.0452    3.1011   -6.7730 C   0  0  0  0  0  0  0  0  0  0  0  0
   -8.1746    4.3211   -7.0917 C   0  0  0  0  0  0  0  0  0  0  0  0
   -7.8846    4.4040   -8.5923 C   0  0  0  0  0  0  0  0  0  0  0  0
   -9.5634    4.5027  -11.7854 C   0  0  0  0  0  0  0  0  0  0  0  0
   -9.6952    5.2673  -12.9474 C   0  0  0  0  0  0  0  0  0  0  0  0
   -9.7061    7.4587  -16.2541 H   0  0  0  0  0  0  0  0  0  0  0  0
   -7.7278    5.7143  -14.7124 H   0  0  0  0  0  0  0  0  0  0  0  0
   -7.2326    7.0334  -15.8110 H   0  0  0  0  0  0  0  0  0  0  0  0
   -5.1856    5.1064  -15.5456 H   0  0  0  0  0  0  0  0  0  0  0  0
   -4.4369    4.2656  -16.9672 H   0  0  0  0  0  0  0  0  0  0  0  0
   -3.1908    6.3400  -17.5547 H   0  0  0  0  0  0  0  0  0  0  0  0
   -3.9693    7.2146  -16.1710 H   0  0  0  0  0  0  0  0  0  0  0  0
   -2.8368    5.8397  -15.8529 H   0  0  0  0  0  0  0  0  0  0  0  0
   -6.2432    3.9588  -19.2921 H   0  0  0  0  0  0  0  0  0  0  0  0
   -8.3334    2.6837  -19.6478 H   0  0  0  0  0  0  0  0  0  0  0  0
  -10.2768    3.0451  -18.1554 H   0  0  0  0  0  0  0  0  0  0  0  0
  -10.1514    4.6821  -16.3255 H   0  0  0  0  0  0  0  0  0  0  0  0
   -9.1694    8.3580  -11.6077 H   0  0  0  0  0  0  0  0  0  0  0  0
   -8.9465    7.0136   -9.5671 H   0  0  0  0  0  0  0  0  0  0  0  0
   -9.6042    2.2768   -9.4399 H   0  0  0  0  0  0  0  0  0  0  0  0
  -11.0218    3.3795   -9.6175 H   0  0  0  0  0  0  0  0  0  0  0  0
  -10.9541    4.0128   -7.2697 H   0  0  0  0  0  0  0  0  0  0  0  0
  -10.9361    2.2166   -7.3756 H   0  0  0  0  0  0  0  0  0  0  0  0
   -8.4841    2.1689   -7.0039 H   0  0  0  0  0  0  0  0  0  0  0  0
   -9.2884    3.0969   -5.6885 H   0  0  0  0  0  0  0  0  0  0  0  0
   -8.6975    5.2474   -6.7654 H   0  0  0  0  0  0  0  0  0  0  0  0
   -7.2165    4.2488   -6.5337 H   0  0  0  0  0  0  0  0  0  0  0  0
   -7.3356    5.3474   -8.8000 H   0  0  0  0  0  0  0  0  0  0  0  0
   -7.2296    3.5584   -8.8947 H   0  0  0  0  0  0  0  0  0  0  0  0
   -9.6725    3.4273  -11.8461 H   0  0  0  0  0  0  0  0  0  0  0  0
   -9.9279    4.7677  -13.8784 H   0  0  0  0  0  0  0  0  0  0  0  0
  1  2  1  0
  2  3  1  0
  3  4  1  0
  4  5  2  0
  5  6  1  0
  6  7  1  0
  7  8  1  0
  5  9  1  0
  9 10  2  0
 10 11  1  0
 11 12  2  0
  1 13  2  0
  1 14  1  0
 14 15  2  0
 15 16  1  0
 16 17  2  0
 17 18  1  0
 18 19  1  0
 19 20  1  0
 20 21  1  0
 21 22  1  0
 22 23  1  0
 17 24  1  0
 24 25  2  0
 12  4  1  0
 25 14  1  0
 23 18  1  0
  2 26  1  0
  3 27  1  0
  3 28  1  0
  7 29  1  0
  7 30  1  0
  8 31  1  0
  8 32  1  0
  8 33  1  0
  9 34  1  0
 10 35  1  0
 11 36  1  0
 12 37  1  0
 15 38  1  0
 16 39  1  0
 19 40  1  0
 19 41  1  0
 20 42  1  0
 20 43  1  0
 21 44  1  0
 21 45  1  0
 22 46  1  0
 22 47  1  0
 23 48  1  0
 23 49  1  0
 24 50  1  0
 25 51  1  0
A    1
 C1 
A    2
 N1 
A    3
 C2 
A    4
 C3 
A    5
 C4 
A    6
 O1 
A    7
 C5 
A    8
 C6 
A    9
 C7 
A   10
 C8 
A   11
 C9 
A   12
 C10
A   13
 O2 
A   14
 C11
A   15
 C12
A   16
 C13
A   17
 C14
A   18
 N2 
A   19
 C15
A   20
 C16
A   21
 C17
A   22
 C18
A   23
 C19
A   24
 C20
A   25
 C21
A   26
 H1 
A   27
 H2 
A   28
 H3 
A   29
 H4 
A   30
 H5 
A   31
 H6 
A   32
 H7 
A   33
 H8 
A   34
 H9 
A   35
 H10
A   36
 H11
A   37
 H12
A   38
 H13
A   39
 H14
A   40
 H15
A   41
 H16
A   42
 H17
A   43
 H18
A   44
 H19
A   45
 H20
A   46
 H21
A   47
 H22
A   48
 H23
A   49
 H24
A   50
 H25
A   51
 H26
M  END
>  <ref_pdb>  (340) 
x0051_0B

>  <ref_mols>  (340) 
x0490_0B,x0404_0B

>  <original SMILES>  (340) 
[H]c1c([H])c([H])c(C([H])([H])N([H])C(=O)c2c([H])c([H])c(N3C([H])([H])C([H])([H])C([H])([H])C([H])([H])C3([H])[H])c([H])c2[H])c(OC([H])([H])C([H])([H])[H])c1[H]

>  <index>  (340) 
209

>  <∆∆G>  (340) 
-9.445464

>  <∆G_bound>  (340) 
-8.903422

>  <∆G_unbound>  (340) 
0.542042

>  <comRMSD>  (340) 
0.623089

>  <N_constrained_atoms>  (340) 
26.0

>  <N_unconstrained_atoms>  (340) 
0.0

>  <runtime>  (340) 
63.451398

>  <LE>  (340) 
0.363287

>  <percent_hybrid>  (340) 
39.0

>  <dist>  (340) 
9.0

>  <ecfp4>  (340) 
0.234568

>  <daylight>  (340) 
0.178138

>  <topodist>  (340) 
4.0

>  <mces>  (340) 
27.0

>  <tdn>  (340) 
3.0

>  <tup>  (340) 
0.0

>  <rdn>  (340) 
1.0

>  <rup>  (340) 
0.0

>  <ldn>  (340) 
0.0

>  <lup>  (340) 
0.0

>  <mut>  (340) 
4.0

>  <maj>  (340) 
4.0

>  <min>  (340) 
0.0

>  <hyb>  (340) 
1.0

>  <sub>  (340) 
1.0

>  <query_index>  (340) 
10.0

>  <max_hit_Tanimoto>  (340) 
0.232221

>  <largest_ring>  (340) 
6

>  <N_interactions_kept>  (340) 
2.0

>  <N_interactions_lost>  (340) 
2.5

>  <interaction_uniqueness_metric>  (340) 
0.178764

>  <ad_hoc_penalty>  (340) 
-20.742573

>  <N_rotatable_bonds>  (340) 
7

>  <N_HA>  (340) 
25

>  <cluster>  (340) 
6028

>  <N_interactions>  (340) 
8

>  <Enamine>  (340) 
0

>  <Mcule>  (340) 
1

>  <N_PAINS>  (340) 
0

>  <UFF_Gibbs>  (340) 
275.634501

>  <strain_per_HA>  (340) 
10.601327

>  <saltbridge:HIS:51>  (340) 
0

>  <pistack:HIS:51>  (340) 
1

>  <hydroph_interaction:HIS:51>  (340) 
1

>  <hbond:ALA:132>  (340) 
1

>  <hbond:SER:135>  (340) 
0

>  <hydroph_interaction:TYR:150>  (340) 
1

>  <pistack:TYR:161>  (340) 
0

>  <hydroph_interaction:TYR:161>  (340) 
3

>  <hydroph_interaction:ASP:83>  (340) 
0

>  <hbond:TYR:130>  (340) 
0

>  <hydroph_interaction:ALA:132>  (340) 
1

>  <hbond:HIS:51>  (340) 
0

>  <hbond:ASP:129>  (340) 
0

>  <hbond:TYR:150>  (340) 
0

>  <hbond:GLY:151>  (340) 
0

>  <hbond:TYR:161>  (340) 
0

>  <hydroph_interaction:TYR:130>  (340) 
0

>  <hydroph_interaction:PRO:131>  (340) 
0

>  <hydroph_interaction:ASP:129>  (340) 
0

>  <saltbridge:ASP:75>  (340) 
0

>  <saltbridge:ASP:83>  (340) 
0

>  <hydroph_interaction:ASN:152>  (340) 
0

>  <halogenbond:TYR:150>  (340) 
0

>  <hbond:ASP:83>  (340) 
0

>  <hydroph_interaction:VAL:155>  (340) 
0

>  <pication:TYR:161>  (340) 
0

>  <hbond:PRO:131>  (340) 
0

>  <hbond:LEU:128>  (340) 
0

>  <saltbridge:ASP:129>  (340) 
0

>  <hbond:THR:134>  (340) 
0

>  <pication:HIS:51>  (340) 
0

>  <hbond:SER:81>  (340) 
0

>  <hbond:GLY:159>  (340) 
0

>  <hydroph_interaction:PRO:101>  (340) 
0

>  <hydroph_interaction:THR:134>  (340) 
0

>  <hbond:GLY:82>  (340) 
0

>  <hydroph_interaction:GLU:104>  (340) 
0

>  <hydroph_interaction:VAL:36>  (340) 
0

>  <hydroph_interaction:MET:49>  (340) 
0

>  <halogenbond:GLU:104>  (340) 
0

>  <hydroph_interaction:LYS:107>  (340) 
0

$$$$
Z295742492
     RDKit          3D

 51 55  0  0  0  0  0  0  0  0999 V2000
   -7.5762    3.9221  -18.6493 C   0  0  0  0  0  0  0  0  0  0  0  0
   -7.1004    5.3764  -18.7080 C   0  0  0  0  0  0  0  0  0  0  0  0
   -7.0229    5.9594  -17.3247 C   0  0  0  0  0  0  0  0  0  0  0  0
   -8.0810    6.2421  -16.4830 C   0  0  0  0  0  0  0  0  0  0  0  0
   -7.5212    6.7537  -15.3246 C   0  0  0  0  0  0  0  0  0  0  0  0
   -6.1502    6.7602  -15.5093 C   0  0  0  0  0  0  0  0  0  0  0  0
   -5.8579    6.2587  -16.7233 N   0  0  0  0  0  0  0  0  0  0  0  0
   -4.5429    6.2020  -17.3573 C   0  0  0  0  0  0  0  0  0  0  0  0
   -4.5650    5.2340  -18.5472 C   0  0  0  0  0  0  0  0  0  0  0  0
   -5.7760    5.4510  -19.3547 N   0  0  0  0  0  0  0  0  0  0  0  0
   -5.6813    5.4077  -20.7890 C   0  0  0  0  0  0  0  0  0  0  0  0
   -4.9662    4.5233  -21.3337 O   0  0  0  0  0  0  0  0  0  0  0  0
   -6.3965    6.3919  -21.6331 C   0  0  0  0  0  0  0  0  0  0  0  0
   -6.7164    6.0841  -22.9666 C   0  0  0  0  0  0  0  0  0  0  0  0
   -7.3831    7.0157  -23.7676 C   0  0  0  0  0  0  0  0  0  0  0  0
   -7.7419    8.2686  -23.2487 C   0  0  0  0  0  0  0  0  0  0  0  0
   -8.4270    9.2777  -24.1232 C   0  0  0  0  0  0  0  0  0  0  0  0
   -7.1697   10.2266  -25.0497 S   0  0  0  0  0  0  0  0  0  0  0  0
   -7.8660    9.8857  -26.6640 C   0  0  0  0  0  0  0  0  0  0  0  0
   -7.5052    8.8089  -27.4100 N   0  0  0  0  0  0  0  0  0  0  0  0
   -8.2682    8.9476  -28.5089 C   0  0  0  0  0  0  0  0  0  0  0  0
   -8.3166    8.1142  -29.6233 C   0  0  0  0  0  0  0  0  0  0  0  0
   -9.2032    8.4615  -30.6610 C   0  0  0  0  0  0  0  0  0  0  0  0
  -10.0078    9.6203  -30.5586 C   0  0  0  0  0  0  0  0  0  0  0  0
   -9.9339   10.4401  -29.4171 C   0  0  0  0  0  0  0  0  0  0  0  0
   -9.0464   10.0632  -28.4121 C   0  0  0  0  0  0  0  0  0  0  0  0
   -8.8038   10.6712  -27.2456 N   0  0  0  0  0  0  0  0  0  0  0  0
   -7.3991    8.5896  -21.9267 C   0  0  0  0  0  0  0  0  0  0  0  0
   -6.7329    7.6587  -21.1249 C   0  0  0  0  0  0  0  0  0  0  0  0
   -7.6183    3.4953  -19.6740 H   0  0  0  0  0  0  0  0  0  0  0  0
   -8.5954    3.8686  -18.2100 H   0  0  0  0  0  0  0  0  0  0  0  0
   -6.8858    3.3073  -18.0325 H   0  0  0  0  0  0  0  0  0  0  0  0
   -7.8444    5.9645  -19.2864 H   0  0  0  0  0  0  0  0  0  0  0  0
   -9.1344    6.1015  -16.6892 H   0  0  0  0  0  0  0  0  0  0  0  0
   -8.0546    7.0976  -14.4493 H   0  0  0  0  0  0  0  0  0  0  0  0
   -5.4159    7.1264  -14.8035 H   0  0  0  0  0  0  0  0  0  0  0  0
   -4.2723    7.2187  -17.7164 H   0  0  0  0  0  0  0  0  0  0  0  0
   -3.7799    5.8698  -16.6203 H   0  0  0  0  0  0  0  0  0  0  0  0
   -3.6490    5.3973  -19.1566 H   0  0  0  0  0  0  0  0  0  0  0  0
   -4.5518    4.1860  -18.1773 H   0  0  0  0  0  0  0  0  0  0  0  0
   -6.4573    5.1205  -23.3875 H   0  0  0  0  0  0  0  0  0  0  0  0
   -7.6192    6.7607  -24.7935 H   0  0  0  0  0  0  0  0  0  0  0  0
   -9.1471    8.7601  -24.7951 H   0  0  0  0  0  0  0  0  0  0  0  0
   -9.0178    9.9870  -23.5048 H   0  0  0  0  0  0  0  0  0  0  0  0
   -7.6968    7.2291  -29.6900 H   0  0  0  0  0  0  0  0  0  0  0  0
   -9.2692    7.8370  -31.5436 H   0  0  0  0  0  0  0  0  0  0  0  0
  -10.6855    9.8778  -31.3621 H   0  0  0  0  0  0  0  0  0  0  0  0
  -10.5451   11.3285  -29.3240 H   0  0  0  0  0  0  0  0  0  0  0  0
   -9.2364   11.5437  -26.8698 H   0  0  0  0  0  0  0  0  0  0  0  0
   -7.6440    9.5618  -21.5173 H   0  0  0  0  0  0  0  0  0  0  0  0
   -6.4687    7.9349  -20.1115 H   0  0  0  0  0  0  0  0  0  0  0  0
  1  2  1  0
  2  3  1  0
  3  4  2  0
  4  5  1  0
  5  6  2  0
  6  7  1  0
  7  8  1  0
  8  9  1  0
  9 10  1  0
 10 11  1  0
 11 12  2  0
 11 13  1  0
 13 14  2  0
 14 15  1  0
 15 16  2  0
 16 17  1  0
 17 18  1  0
 18 19  1  0
 19 20  2  0
 20 21  1  0
 21 22  2  0
 22 23  1  0
 23 24  2  0
 24 25  1  0
 25 26  2  0
 26 27  1  0
 16 28  1  0
 28 29  2  0
 10  2  1  0
  7  3  1  0
 29 13  1  0
 27 19  1  0
 26 21  1  0
  1 30  1  0
  1 31  1  0
  1 32  1  0
  2 33  1  0
  4 34  1  0
  5 35  1  0
  6 36  1  0
  8 37  1  0
  8 38  1  0
  9 39  1  0
  9 40  1  0
 14 41  1  0
 15 42  1  0
 17 43  1  0
 17 44  1  0
 22 45  1  0
 23 46  1  0
 24 47  1  0
 25 48  1  0
 27 49  1  0
 28 50  1  0
 29 51  1  0
A    1
 C1 
A    2
 C2 
A    3
 C3 
A    4
 C4 
A    5
 C5 
A    6
 C6 
A    7
 N1 
A    8
 C7 
A    9
 C8 
A   10
 N2 
A   11
 C9 
A   12
 O1 
A   13
 C10
A   14
 C11
A   15
 C12
A   16
 C13
A   17
 C14
A   18
 S1 
A   19
 C15
A   20
 N3 
A   21
 C16
A   22
 C17
A   23
 C18
A   24
 C19
A   25
 C20
A   26
 C21
A   27
 N4 
A   28
 C22
A   29
 C23
A   30
 H1 
A   31
 H2 
A   32
 H3 
A   33
 H4 
A   34
 H5 
A   35
 H6 
A   36
 H7 
A   37
 H8 
A   38
 H9 
A   39
 H10
A   40
 H11
A   41
 H12
A   42
 H13
A   43
 H14
A   44
 H15
A   45
 H16
A   46
 H17
A   47
 H18
A   48
 H19
A   49
 H20
A   50
 H21
A   51
 H22
M  END
>  <ref_pdb>  (341) 
x0051_0B

>  <ref_mols>  (341) 
x0846_1B,x0969_0B

>  <original SMILES>  (341) 
[H]c1c([H])c(C([H])([H])Sc2nc3c([H])c([H])c([H])c([H])c3n2[H])c([H])c([H])c1C(=O)N1C([H])([H])C([H])([H])n2c([H])c([H])c([H])c2C1([H])C([H])([H])[H]

>  <index>  (341) 
518

>  <∆∆G>  (341) 
-9.243748

>  <∆G_bound>  (341) 
-9.111859

>  <∆G_unbound>  (341) 
0.131889

>  <comRMSD>  (341) 
0.742355

>  <N_constrained_atoms>  (341) 
28.0

>  <N_unconstrained_atoms>  (341) 
3.0

>  <runtime>  (341) 
44.201583

>  <LE>  (341) 
0.298185

>  <percent_hybrid>  (341) 
36.0

>  <dist>  (341) 
7.0

>  <ecfp4>  (341) 
0.207921

>  <daylight>  (341) 
0.319489

>  <topodist>  (341) 
4.0

>  <mces>  (341) 
31.0

>  <tdn>  (341) 
2.0

>  <tup>  (341) 
2.0

>  <rdn>  (341) 
0.0

>  <rup>  (341) 
0.0

>  <ldn>  (341) 
0.0

>  <lup>  (341) 
0.0

>  <mut>  (341) 
3.0

>  <maj>  (341) 
3.0

>  <min>  (341) 
0.0

>  <hyb>  (341) 
0.0

>  <sub>  (341) 
3.0

>  <query_index>  (341) 
45.0

>  <max_hit_Tanimoto>  (341) 
0.246903

>  <largest_ring>  (341) 
6

>  <N_interactions_kept>  (341) 
0.5

>  <N_interactions_lost>  (341) 
2.0

>  <interaction_uniqueness_metric>  (341) 
0.16668

>  <ad_hoc_penalty>  (341) 
-20.729062

>  <N_rotatable_bonds>  (341) 
5

>  <N_HA>  (341) 
29

>  <cluster>  (341) 
5746

>  <N_interactions>  (341) 
5

>  <Enamine>  (341) 
1

>  <Mcule>  (341) 
0

>  <N_PAINS>  (341) 
0

>  <UFF_Gibbs>  (341) 
145.163352

>  <strain_per_HA>  (341) 
4.682689

>  <saltbridge:HIS:51>  (341) 
0

>  <pistack:HIS:51>  (341) 
0

>  <hydroph_interaction:HIS:51>  (341) 
0

>  <hbond:ALA:132>  (341) 
0

>  <hbond:SER:135>  (341) 
0

>  <hydroph_interaction:TYR:150>  (341) 
0

>  <pistack:TYR:161>  (341) 
1

>  <hydroph_interaction:TYR:161>  (341) 
1

>  <hydroph_interaction:ASP:83>  (341) 
0

>  <hbond:TYR:130>  (341) 
0

>  <hydroph_interaction:ALA:132>  (341) 
0

>  <hbond:HIS:51>  (341) 
0

>  <hbond:ASP:129>  (341) 
1

>  <hbond:TYR:150>  (341) 
0

>  <hbond:GLY:151>  (341) 
0

>  <hbond:TYR:161>  (341) 
0

>  <hydroph_interaction:TYR:130>  (341) 
1

>  <hydroph_interaction:PRO:131>  (341) 
1

>  <hydroph_interaction:ASP:129>  (341) 
0

>  <saltbridge:ASP:75>  (341) 
0

>  <saltbridge:ASP:83>  (341) 
0

>  <hydroph_interaction:ASN:152>  (341) 
0

>  <halogenbond:TYR:150>  (341) 
0

>  <hbond:ASP:83>  (341) 
0

>  <hydroph_interaction:VAL:155>  (341) 
0

>  <pication:TYR:161>  (341) 
0

>  <hbond:PRO:131>  (341) 
0

>  <hbond:LEU:128>  (341) 
0

>  <saltbridge:ASP:129>  (341) 
0

>  <hbond:THR:134>  (341) 
0

>  <pication:HIS:51>  (341) 
0

>  <hbond:SER:81>  (341) 
0

>  <hbond:GLY:159>  (341) 
0

>  <hydroph_interaction:PRO:101>  (341) 
0

>  <hydroph_interaction:THR:134>  (341) 
0

>  <hbond:GLY:82>  (341) 
0

>  <hydroph_interaction:GLU:104>  (341) 
0

>  <hydroph_interaction:VAL:36>  (341) 
0

>  <hydroph_interaction:MET:49>  (341) 
0

>  <halogenbond:GLU:104>  (341) 
0

>  <hydroph_interaction:LYS:107>  (341) 
0

$$$$
PV-004232476262
     RDKit          3D

 21 22  0  0  0  0  0  0  0  0999 V2000
   -5.6995    4.8074  -16.3256 C   0  0  0  0  0  0  0  0  0  0  0  0
   -5.5344    5.2447  -17.7573 C   0  0  0  0  0  0  0  0  0  0  0  0
   -4.2439    5.5420  -18.2229 C   0  0  0  0  0  0  0  0  0  0  0  0
   -4.0523    5.9087  -19.5543 C   0  0  0  0  0  0  0  0  0  0  0  0
   -2.8065    6.1849  -20.0104 F   0  0  0  0  0  0  0  0  0  0  0  0
   -5.1117    5.9841  -20.3982 N   0  0  0  0  0  0  0  0  0  0  0  0
   -6.3773    5.7205  -19.9823 C   0  0  0  0  0  0  0  0  0  0  0  0
   -6.6322    5.3643  -18.6468 C   0  0  0  0  0  0  0  0  0  0  0  0
   -8.0341    5.1222  -18.2319 C   0  0  0  0  0  0  0  0  0  0  0  0
   -8.6646    5.5776  -17.0884 C   0  0  0  0  0  0  0  0  0  0  0  0
   -9.9225    5.2008  -17.1054 O   0  0  0  0  0  0  0  0  0  0  0  0
  -10.1535    4.5299  -18.2110 C   0  0  0  0  0  0  0  0  0  0  0  0
   -8.9999    4.4591  -18.9633 C   0  0  0  0  0  0  0  0  0  0  0  0
   -4.7586    4.3647  -15.9345 H   0  0  0  0  0  0  0  0  0  0  0  0
   -6.4859    4.0290  -16.2380 H   0  0  0  0  0  0  0  0  0  0  0  0
   -5.9614    5.6820  -15.6953 H   0  0  0  0  0  0  0  0  0  0  0  0
   -3.3881    5.4774  -17.5619 H   0  0  0  0  0  0  0  0  0  0  0  0
   -7.1899    5.8112  -20.6919 H   0  0  0  0  0  0  0  0  0  0  0  0
   -8.2211    6.1670  -16.2982 H   0  0  0  0  0  0  0  0  0  0  0  0
  -11.1119    4.1059  -18.4790 H   0  0  0  0  0  0  0  0  0  0  0  0
   -8.8808    3.9785  -19.9254 H   0  0  0  0  0  0  0  0  0  0  0  0
  1  2  1  0
  2  3  2  0
  3  4  1  0
  4  5  1  0
  4  6  2  0
  6  7  1  0
  7  8  2  0
  8  9  1  0
  9 10  2  0
 10 11  1  0
 11 12  1  0
 12 13  2  0
  8  2  1  0
 13  9  1  0
  1 14  1  0
  1 15  1  0
  1 16  1  0
  3 17  1  0
  7 18  1  0
 10 19  1  0
 12 20  1  0
 13 21  1  0
A    1
 C1 
A    2
 C2 
A    3
 C3 
A    4
 C4 
A    5
 F1 
A    6
 N1 
A    7
 C5 
A    8
 C6 
A    9
 C7 
A   10
 C8 
A   11
 O1 
A   12
 C9 
A   13
 C10
A   14
 H1 
A   15
 H2 
A   16
 H3 
A   17
 H4 
A   18
 H5 
A   19
 H6 
A   20
 H7 
A   21
 H8 
M  END
>  <ref_pdb>  (342) 
x0051_0B

>  <ref_mols>  (342) 
x0680_0B,x0386_0B

>  <original SMILES>  (342) 
[H]c1nc(F)c([H])c(C([H])([H])[H])c1-c1c([H])oc([H])c1[H]

>  <index>  (342) 
362

>  <∆∆G>  (342) 
-6.46834

>  <∆G_bound>  (342) 
-6.581225

>  <∆G_unbound>  (342) 
-0.112886

>  <comRMSD>  (342) 
0.783491

>  <N_constrained_atoms>  (342) 
13.0

>  <N_unconstrained_atoms>  (342) 
1.0

>  <runtime>  (342) 
24.222119

>  <LE>  (342) 
0.462024

>  <percent_hybrid>  (342) 
25.0

>  <dist>  (342) 
2.0

>  <ecfp4>  (342) 
0.269231

>  <daylight>  (342) 
0.453237

>  <topodist>  (342) 
1.0

>  <mces>  (342) 
13.0

>  <tdn>  (342) 
0.0

>  <tup>  (342) 
1.0

>  <rdn>  (342) 
0.0

>  <rup>  (342) 
0.0

>  <ldn>  (342) 
0.0

>  <lup>  (342) 
0.0

>  <mut>  (342) 
1.0

>  <maj>  (342) 
1.0

>  <min>  (342) 
0.0

>  <hyb>  (342) 
0.0

>  <sub>  (342) 
1.0

>  <query_index>  (342) 
296.0

>  <max_hit_Tanimoto>  (342) 
0.170992

>  <largest_ring>  (342) 
6

>  <N_interactions_kept>  (342) 
3.0

>  <N_interactions_lost>  (342) 
1.0

>  <interaction_uniqueness_metric>  (342) 
0.031789

>  <ad_hoc_penalty>  (342) 
-20.66996

>  <N_rotatable_bonds>  (342) 
2

>  <N_HA>  (342) 
13

>  <cluster>  (342) 
5887

>  <N_interactions>  (342) 
4

>  <Enamine>  (342) 
1

>  <Mcule>  (342) 
0

>  <N_PAINS>  (342) 
0

>  <UFF_Gibbs>  (342) 
78.985563

>  <strain_per_HA>  (342) 
5.641826

>  <saltbridge:HIS:51>  (342) 
0

>  <pistack:HIS:51>  (342) 
0

>  <hydroph_interaction:HIS:51>  (342) 
0

>  <hbond:ALA:132>  (342) 
0

>  <hbond:SER:135>  (342) 
0

>  <hydroph_interaction:TYR:150>  (342) 
1

>  <pistack:TYR:161>  (342) 
0

>  <hydroph_interaction:TYR:161>  (342) 
3

>  <hydroph_interaction:ASP:83>  (342) 
0

>  <hbond:TYR:130>  (342) 
0

>  <hydroph_interaction:ALA:132>  (342) 
0

>  <hbond:HIS:51>  (342) 
0

>  <hbond:ASP:129>  (342) 
0

>  <hbond:TYR:150>  (342) 
0

>  <hbond:GLY:151>  (342) 
0

>  <hbond:TYR:161>  (342) 
0

>  <hydroph_interaction:TYR:130>  (342) 
0

>  <hydroph_interaction:PRO:131>  (342) 
0

>  <hydroph_interaction:ASP:129>  (342) 
0

>  <saltbridge:ASP:75>  (342) 
0

>  <saltbridge:ASP:83>  (342) 
0

>  <hydroph_interaction:ASN:152>  (342) 
0

>  <halogenbond:TYR:150>  (342) 
0

>  <hbond:ASP:83>  (342) 
0

>  <hydroph_interaction:VAL:155>  (342) 
0

>  <pication:TYR:161>  (342) 
0

>  <hbond:PRO:131>  (342) 
0

>  <hbond:LEU:128>  (342) 
0

>  <saltbridge:ASP:129>  (342) 
0

>  <hbond:THR:134>  (342) 
0

>  <pication:HIS:51>  (342) 
0

>  <hbond:SER:81>  (342) 
0

>  <hbond:GLY:159>  (342) 
0

>  <hydroph_interaction:PRO:101>  (342) 
0

>  <hydroph_interaction:THR:134>  (342) 
0

>  <hbond:GLY:82>  (342) 
0

>  <hydroph_interaction:GLU:104>  (342) 
0

>  <hydroph_interaction:VAL:36>  (342) 
0

>  <hydroph_interaction:MET:49>  (342) 
0

>  <halogenbond:GLU:104>  (342) 
0

>  <hydroph_interaction:LYS:107>  (342) 
0

$$$$
PV-002737628761
     RDKit          3D

 23 24  0  0  0  0  0  0  0  0999 V2000
   -5.7606    4.9930  -16.2935 C   0  0  0  0  0  0  0  0  0  0  0  0
   -5.5575    5.2550  -17.7628 C   0  0  0  0  0  0  0  0  0  0  0  0
   -4.2539    5.4885  -18.2281 C   0  0  0  0  0  0  0  0  0  0  0  0
   -4.0249    5.6927  -19.5919 C   0  0  0  0  0  0  0  0  0  0  0  0
   -2.7016    5.9192  -20.0782 N   0  0  0  0  0  0  0  0  0  0  0  0
   -5.0673    5.6706  -20.4616 N   0  0  0  0  0  0  0  0  0  0  0  0
   -6.3439    5.4646  -20.0477 C   0  0  0  0  0  0  0  0  0  0  0  0
   -6.6327    5.2725  -18.6864 C   0  0  0  0  0  0  0  0  0  0  0  0
   -8.0458    5.0889  -18.2798 C   0  0  0  0  0  0  0  0  0  0  0  0
   -8.6999    5.6824  -17.2156 C   0  0  0  0  0  0  0  0  0  0  0  0
   -9.9598    5.3123  -17.2178 O   0  0  0  0  0  0  0  0  0  0  0  0
  -10.1697    4.5136  -18.2394 C   0  0  0  0  0  0  0  0  0  0  0  0
   -8.9990    4.3468  -18.9491 C   0  0  0  0  0  0  0  0  0  0  0  0
   -4.8333    4.5947  -15.8290 H   0  0  0  0  0  0  0  0  0  0  0  0
   -6.5556    4.2352  -16.1329 H   0  0  0  0  0  0  0  0  0  0  0  0
   -6.0298    5.9382  -15.7789 H   0  0  0  0  0  0  0  0  0  0  0  0
   -3.4191    5.4987  -17.5373 H   0  0  0  0  0  0  0  0  0  0  0  0
   -1.8853    5.9386  -19.4269 H   0  0  0  0  0  0  0  0  0  0  0  0
   -2.5350    6.0694  -21.0979 H   0  0  0  0  0  0  0  0  0  0  0  0
   -7.1389    5.4735  -20.7826 H   0  0  0  0  0  0  0  0  0  0  0  0
   -8.2707    6.3611  -16.4919 H   0  0  0  0  0  0  0  0  0  0  0  0
  -11.1246    4.0648  -18.4777 H   0  0  0  0  0  0  0  0  0  0  0  0
   -8.8608    3.7527  -19.8429 H   0  0  0  0  0  0  0  0  0  0  0  0
  1  2  1  0
  2  3  2  0
  3  4  1  0
  4  5  1  0
  4  6  2  0
  6  7  1  0
  7  8  2  0
  8  9  1  0
  9 10  2  0
 10 11  1  0
 11 12  1  0
 12 13  2  0
  8  2  1  0
 13  9  1  0
  1 14  1  0
  1 15  1  0
  1 16  1  0
  3 17  1  0
  5 18  1  0
  5 19  1  0
  7 20  1  0
 10 21  1  0
 12 22  1  0
 13 23  1  0
A    1
 C1 
A    2
 C2 
A    3
 C3 
A    4
 C4 
A    5
 N1 
A    6
 N2 
A    7
 C5 
A    8
 C6 
A    9
 C7 
A   10
 C8 
A   11
 O1 
A   12
 C9 
A   13
 C10
A   14
 H1 
A   15
 H2 
A   16
 H3 
A   17
 H4 
A   18
 H5 
A   19
 H6 
A   20
 H7 
A   21
 H8 
A   22
 H9 
A   23
 H10
M  END
>  <ref_pdb>  (343) 
x0051_0B

>  <ref_mols>  (343) 
x0680_0B,x0386_0B

>  <original SMILES>  (343) 
[H]c1nc(N([H])[H])c([H])c(C([H])([H])[H])c1-c1c([H])oc([H])c1[H]

>  <index>  (343) 
264

>  <∆∆G>  (343) 
-6.451253

>  <∆G_bound>  (343) 
-6.55483

>  <∆G_unbound>  (343) 
-0.103576

>  <comRMSD>  (343) 
0.78996

>  <N_constrained_atoms>  (343) 
13.0

>  <N_unconstrained_atoms>  (343) 
1.0

>  <runtime>  (343) 
21.371244

>  <LE>  (343) 
0.460804

>  <percent_hybrid>  (343) 
25.0

>  <dist>  (343) 
2.0

>  <ecfp4>  (343) 
0.269231

>  <daylight>  (343) 
0.453237

>  <topodist>  (343) 
1.0

>  <mces>  (343) 
13.0

>  <tdn>  (343) 
0.0

>  <tup>  (343) 
1.0

>  <rdn>  (343) 
0.0

>  <rup>  (343) 
0.0

>  <ldn>  (343) 
0.0

>  <lup>  (343) 
0.0

>  <mut>  (343) 
1.0

>  <maj>  (343) 
1.0

>  <min>  (343) 
0.0

>  <hyb>  (343) 
0.0

>  <sub>  (343) 
1.0

>  <query_index>  (343) 
296.0

>  <max_hit_Tanimoto>  (343) 
0.183801

>  <largest_ring>  (343) 
6

>  <N_interactions_kept>  (343) 
3.0

>  <N_interactions_lost>  (343) 
1.0

>  <interaction_uniqueness_metric>  (343) 
0.034305

>  <ad_hoc_penalty>  (343) 
-20.65932

>  <N_rotatable_bonds>  (343) 
3

>  <N_HA>  (343) 
13

>  <cluster>  (343) 
5976

>  <N_interactions>  (343) 
5

>  <Enamine>  (343) 
1

>  <Mcule>  (343) 
0

>  <N_PAINS>  (343) 
0

>  <UFF_Gibbs>  (343) 
107.300777

>  <strain_per_HA>  (343) 
7.664341

>  <saltbridge:HIS:51>  (343) 
0

>  <pistack:HIS:51>  (343) 
0

>  <hydroph_interaction:HIS:51>  (343) 
0

>  <hbond:ALA:132>  (343) 
0

>  <hbond:SER:135>  (343) 
0

>  <hydroph_interaction:TYR:150>  (343) 
1

>  <pistack:TYR:161>  (343) 
0

>  <hydroph_interaction:TYR:161>  (343) 
4

>  <hydroph_interaction:ASP:83>  (343) 
0

>  <hbond:TYR:130>  (343) 
0

>  <hydroph_interaction:ALA:132>  (343) 
0

>  <hbond:HIS:51>  (343) 
0

>  <hbond:ASP:129>  (343) 
0

>  <hbond:TYR:150>  (343) 
0

>  <hbond:GLY:151>  (343) 
0

>  <hbond:TYR:161>  (343) 
0

>  <hydroph_interaction:TYR:130>  (343) 
0

>  <hydroph_interaction:PRO:131>  (343) 
0

>  <hydroph_interaction:ASP:129>  (343) 
0

>  <saltbridge:ASP:75>  (343) 
0

>  <saltbridge:ASP:83>  (343) 
0

>  <hydroph_interaction:ASN:152>  (343) 
0

>  <halogenbond:TYR:150>  (343) 
0

>  <hbond:ASP:83>  (343) 
0

>  <hydroph_interaction:VAL:155>  (343) 
0

>  <pication:TYR:161>  (343) 
0

>  <hbond:PRO:131>  (343) 
0

>  <hbond:LEU:128>  (343) 
0

>  <saltbridge:ASP:129>  (343) 
0

>  <hbond:THR:134>  (343) 
0

>  <pication:HIS:51>  (343) 
0

>  <hbond:SER:81>  (343) 
0

>  <hbond:GLY:159>  (343) 
0

>  <hydroph_interaction:PRO:101>  (343) 
0

>  <hydroph_interaction:THR:134>  (343) 
0

>  <hbond:GLY:82>  (343) 
0

>  <hydroph_interaction:GLU:104>  (343) 
0

>  <hydroph_interaction:VAL:36>  (343) 
0

>  <hydroph_interaction:MET:49>  (343) 
0

>  <halogenbond:GLU:104>  (343) 
0

>  <hydroph_interaction:LYS:107>  (343) 
0

$$$$
Z5001525277
     RDKit          3D

 52 55  0  0  0  0  0  0  0  0999 V2000
  -10.0414    2.6926   -5.8923 C   0  0  0  0  0  0  0  0  0  0  0  0
   -9.8396    3.2576   -7.2347 N   0  0  0  0  0  0  0  0  0  0  0  0
   -9.9209    2.2008   -8.2581 C   0  0  0  0  0  0  0  0  0  0  0  0
  -10.0020    2.8513   -9.6432 C   0  0  0  0  0  0  0  0  0  0  0  0
   -9.1436    4.0418   -9.7105 N   0  0  0  0  0  0  0  0  0  0  0  0
   -9.3359    5.0149  -10.7561 C   0  0  0  0  0  0  0  0  0  0  0  0
   -9.3333    6.3874  -10.4585 C   0  0  0  0  0  0  0  0  0  0  0  0
   -9.5305    7.3326  -11.4690 C   0  0  0  0  0  0  0  0  0  0  0  0
   -9.7271    6.9239  -12.7978 C   0  0  0  0  0  0  0  0  0  0  0  0
   -9.9459    7.9332  -13.8597 C   0  0  0  0  0  0  0  0  0  0  0  0
  -10.5534    9.0005  -13.5757 O   0  0  0  0  0  0  0  0  0  0  0  0
   -9.5077    7.7258  -15.2113 N   0  0  0  0  0  0  0  0  0  0  0  0
   -8.2516    7.0530  -15.5527 C   0  0  0  0  0  0  0  0  0  0  0  0
   -8.4377    5.9648  -16.5910 C   0  0  0  0  0  0  0  0  0  0  0  0
   -9.7327    5.5239  -16.9746 C   0  0  0  0  0  0  0  0  0  0  0  0
   -9.9032    4.5030  -17.9305 C   0  0  0  0  0  0  0  0  0  0  0  0
   -8.7924    3.8879  -18.5207 C   0  0  0  0  0  0  0  0  0  0  0  0
   -7.5294    4.3117  -18.1272 C   0  0  0  0  0  0  0  0  0  0  0  0
   -7.3415    5.3036  -17.1974 C   0  0  0  0  0  0  0  0  0  0  0  0
   -6.0079    5.4576  -17.0285 N   0  0  0  0  0  0  0  0  0  0  0  0
   -5.2624    6.3728  -16.1673 C   0  0  0  0  0  0  0  0  0  0  0  0
   -5.4457    4.5589  -17.8733 C   0  0  0  0  0  0  0  0  0  0  0  0
   -6.3531    3.8312  -18.5665 N   0  0  0  0  0  0  0  0  0  0  0  0
   -9.7574    5.5506  -13.0910 C   0  0  0  0  0  0  0  0  0  0  0  0
   -9.5612    4.6054  -12.0806 C   0  0  0  0  0  0  0  0  0  0  0  0
   -8.0430    4.1773   -8.7479 C   0  0  0  0  0  0  0  0  0  0  0  0
   -8.5482    3.9825   -7.3027 C   0  0  0  0  0  0  0  0  0  0  0  0
  -11.0622    2.2614   -5.8111 H   0  0  0  0  0  0  0  0  0  0  0  0
   -9.2935    1.8979   -5.6733 H   0  0  0  0  0  0  0  0  0  0  0  0
   -9.9580    3.4916   -5.1241 H   0  0  0  0  0  0  0  0  0  0  0  0
   -9.0308    1.5326   -8.2027 H   0  0  0  0  0  0  0  0  0  0  0  0
  -10.8303    1.5765   -8.1094 H   0  0  0  0  0  0  0  0  0  0  0  0
   -9.6976    2.1170  -10.4191 H   0  0  0  0  0  0  0  0  0  0  0  0
  -11.0564    3.1521   -9.8310 H   0  0  0  0  0  0  0  0  0  0  0  0
   -9.1980    6.7272   -9.4397 H   0  0  0  0  0  0  0  0  0  0  0  0
   -9.5216    8.3851  -11.2132 H   0  0  0  0  0  0  0  0  0  0  0  0
   -9.9606    8.2981  -15.9601 H   0  0  0  0  0  0  0  0  0  0  0  0
   -7.7891    6.6110  -14.6477 H   0  0  0  0  0  0  0  0  0  0  0  0
   -7.5643    7.8248  -15.9510 H   0  0  0  0  0  0  0  0  0  0  0  0
  -10.6232    5.9566  -16.5393 H   0  0  0  0  0  0  0  0  0  0  0  0
  -10.9007    4.1881  -18.2085 H   0  0  0  0  0  0  0  0  0  0  0  0
   -8.9156    3.1012  -19.2540 H   0  0  0  0  0  0  0  0  0  0  0  0
   -5.5795    6.2533  -15.1123 H   0  0  0  0  0  0  0  0  0  0  0  0
   -5.4051    7.4178  -16.5095 H   0  0  0  0  0  0  0  0  0  0  0  0
   -4.1754    6.1479  -16.2144 H   0  0  0  0  0  0  0  0  0  0  0  0
   -4.3771    4.4280  -17.9864 H   0  0  0  0  0  0  0  0  0  0  0  0
   -9.9453    5.2058  -14.0986 H   0  0  0  0  0  0  0  0  0  0  0  0
   -9.5766    3.5542  -12.3364 H   0  0  0  0  0  0  0  0  0  0  0  0
   -7.5308    5.1588   -8.8414 H   0  0  0  0  0  0  0  0  0  0  0  0
   -7.2838    3.3977   -8.9759 H   0  0  0  0  0  0  0  0  0  0  0  0
   -8.6867    4.9836   -6.8397 H   0  0  0  0  0  0  0  0  0  0  0  0
   -7.7562    3.4529   -6.7245 H   0  0  0  0  0  0  0  0  0  0  0  0
  1  2  1  0
  2  3  1  0
  3  4  1  0
  4  5  1  0
  5  6  1  0
  6  7  2  0
  7  8  1  0
  8  9  2  0
  9 10  1  0
 10 11  2  0
 10 12  1  0
 12 13  1  0
 13 14  1  0
 14 15  2  0
 15 16  1  0
 16 17  2  0
 17 18  1  0
 18 19  2  0
 19 20  1  0
 20 21  1  0
 20 22  1  0
 22 23  2  0
  9 24  1  0
 24 25  2  0
  5 26  1  0
 26 27  1  0
 27  2  1  0
 25  6  1  0
 19 14  1  0
 23 18  1  0
  1 28  1  0
  1 29  1  0
  1 30  1  0
  3 31  1  0
  3 32  1  0
  4 33  1  0
  4 34  1  0
  7 35  1  0
  8 36  1  0
 12 37  1  0
 13 38  1  0
 13 39  1  0
 15 40  1  0
 16 41  1  0
 17 42  1  0
 21 43  1  0
 21 44  1  0
 21 45  1  0
 22 46  1  0
 24 47  1  0
 25 48  1  0
 26 49  1  0
 26 50  1  0
 27 51  1  0
 27 52  1  0
A    1
 C1 
A    2
 N1 
A    3
 C2 
A    4
 C3 
A    5
 N2 
A    6
 C4 
A    7
 C5 
A    8
 C6 
A    9
 C7 
A   10
 C8 
A   11
 O1 
A   12
 N3 
A   13
 C9 
A   14
 C10
A   15
 C11
A   16
 C12
A   17
 C13
A   18
 C14
A   19
 C15
A   20
 N4 
A   21
 C16
A   22
 C17
A   23
 N5 
A   24
 C18
A   25
 C19
A   26
 C20
A   27
 C21
A   28
 H1 
A   29
 H2 
A   30
 H3 
A   31
 H4 
A   32
 H5 
A   33
 H6 
A   34
 H7 
A   35
 H8 
A   36
 H9 
A   37
 H10
A   38
 H11
A   39
 H12
A   40
 H13
A   41
 H14
A   42
 H15
A   43
 H16
A   44
 H17
A   45
 H18
A   46
 H19
A   47
 H20
A   48
 H21
A   49
 H22
A   50
 H23
A   51
 H24
A   52
 H25
M  END
>  <ref_pdb>  (344) 
x0051_0B

>  <ref_mols>  (344) 
x0490_0B,x0404_0B

>  <original SMILES>  (344) 
[H]c1c([H])c(N2C([H])([H])C([H])([H])N(C([H])([H])[H])C([H])([H])C2([H])[H])c([H])c([H])c1C(=O)N([H])C([H])([H])c1c([H])c([H])c([H])c2nc([H])n(C([H])([H])[H])c12

>  <index>  (344) 
367

>  <∆∆G>  (344) 
-6.53236

>  <∆G_bound>  (344) 
-5.915081

>  <∆G_unbound>  (344) 
0.617279

>  <comRMSD>  (344) 
0.656272

>  <N_constrained_atoms>  (344) 
27.0

>  <N_unconstrained_atoms>  (344) 
1.0

>  <runtime>  (344) 
71.439461

>  <LE>  (344) 
0.233299

>  <percent_hybrid>  (344) 
41.0

>  <dist>  (344) 
6.0

>  <ecfp4>  (344) 
0.296296

>  <daylight>  (344) 
0.344538

>  <topodist>  (344) 
3.0

>  <mces>  (344) 
29.0

>  <tdn>  (344) 
2.0

>  <tup>  (344) 
1.0

>  <rdn>  (344) 
0.0

>  <rup>  (344) 
0.0

>  <ldn>  (344) 
0.0

>  <lup>  (344) 
0.0

>  <mut>  (344) 
2.0

>  <maj>  (344) 
2.0

>  <min>  (344) 
0.0

>  <hyb>  (344) 
1.0

>  <sub>  (344) 
2.0

>  <query_index>  (344) 
10.0

>  <max_hit_Tanimoto>  (344) 
0.332521

>  <largest_ring>  (344) 
6

>  <N_interactions_kept>  (344) 
1.0

>  <N_interactions_lost>  (344) 
3.5

>  <interaction_uniqueness_metric>  (344) 
0.42576

>  <ad_hoc_penalty>  (344) 
-20.641796

>  <N_rotatable_bonds>  (344) 
6

>  <N_HA>  (344) 
27

>  <cluster>  (344) 
5882

>  <N_interactions>  (344) 
10

>  <Enamine>  (344) 
1

>  <Mcule>  (344) 
0

>  <N_PAINS>  (344) 
0

>  <UFF_Gibbs>  (344) 
271.684396

>  <strain_per_HA>  (344) 
9.703014

>  <saltbridge:HIS:51>  (344) 
0

>  <pistack:HIS:51>  (344) 
1

>  <hydroph_interaction:HIS:51>  (344) 
1

>  <hbond:ALA:132>  (344) 
1

>  <hbond:SER:135>  (344) 
0

>  <hydroph_interaction:TYR:150>  (344) 
1

>  <pistack:TYR:161>  (344) 
1

>  <hydroph_interaction:TYR:161>  (344) 
2

>  <hydroph_interaction:ASP:83>  (344) 
0

>  <hbond:TYR:130>  (344) 
0

>  <hydroph_interaction:ALA:132>  (344) 
1

>  <hbond:HIS:51>  (344) 
0

>  <hbond:ASP:129>  (344) 
0

>  <hbond:TYR:150>  (344) 
0

>  <hbond:GLY:151>  (344) 
0

>  <hbond:TYR:161>  (344) 
0

>  <hydroph_interaction:TYR:130>  (344) 
0

>  <hydroph_interaction:PRO:131>  (344) 
0

>  <hydroph_interaction:ASP:129>  (344) 
0

>  <saltbridge:ASP:75>  (344) 
1

>  <saltbridge:ASP:83>  (344) 
1

>  <hydroph_interaction:ASN:152>  (344) 
0

>  <halogenbond:TYR:150>  (344) 
0

>  <hbond:ASP:83>  (344) 
0

>  <hydroph_interaction:VAL:155>  (344) 
0

>  <pication:TYR:161>  (344) 
0

>  <hbond:PRO:131>  (344) 
0

>  <hbond:LEU:128>  (344) 
0

>  <saltbridge:ASP:129>  (344) 
0

>  <hbond:THR:134>  (344) 
0

>  <pication:HIS:51>  (344) 
0

>  <hbond:SER:81>  (344) 
0

>  <hbond:GLY:159>  (344) 
0

>  <hydroph_interaction:PRO:101>  (344) 
0

>  <hydroph_interaction:THR:134>  (344) 
0

>  <hbond:GLY:82>  (344) 
0

>  <hydroph_interaction:GLU:104>  (344) 
0

>  <hydroph_interaction:VAL:36>  (344) 
0

>  <hydroph_interaction:MET:49>  (344) 
0

>  <halogenbond:GLU:104>  (344) 
0

>  <hydroph_interaction:LYS:107>  (344) 
0

$$$$
ANTUUSYICVMNET-UHFFFAOYSA-N
     RDKit          3D

 44 46  0  0  0  0  0  0  0  0999 V2000
   -8.6120    6.0201  -14.1055 C   0  0  0  0  0  0  0  0  0  0  0  0
   -7.8032    5.3282  -15.0721 N   0  0  0  0  0  0  0  0  0  0  0  0
   -7.9761    5.4799  -16.4938 C   0  0  0  0  0  0  0  0  0  0  0  0
   -6.8570    5.4943  -17.3592 C   0  0  0  0  0  0  0  0  0  0  0  0
   -5.4550    5.3965  -16.8213 C   0  0  0  0  0  0  0  0  0  0  0  0
   -7.0571    5.5856  -18.7464 C   0  0  0  0  0  0  0  0  0  0  0  0
   -8.3458    5.6786  -19.2739 C   0  0  0  0  0  0  0  0  0  0  0  0
   -9.4584    5.6831  -18.4243 C   0  0  0  0  0  0  0  0  0  0  0  0
  -10.8446    5.7309  -18.9959 C   0  0  0  0  0  0  0  0  0  0  0  0
   -9.2699    5.5614  -17.0407 C   0  0  0  0  0  0  0  0  0  0  0  0
   -9.2565    7.0478  -14.4528 O   0  0  0  0  0  0  0  0  0  0  0  0
   -8.6657    5.5693  -12.6938 C   0  0  0  0  0  0  0  0  0  0  0  0
   -9.0936    6.4445  -11.6829 C   0  0  0  0  0  0  0  0  0  0  0  0
   -9.1487    6.0165  -10.3558 C   0  0  0  0  0  0  0  0  0  0  0  0
   -8.7734    4.7038  -10.0356 C   0  0  0  0  0  0  0  0  0  0  0  0
   -8.8299    4.2260   -8.6780 N   0  0  0  0  0  0  0  0  0  0  0  0
   -9.0815    2.8029   -8.4308 C   0  0  0  0  0  0  0  0  0  0  0  0
   -9.6724    2.6147   -7.0301 C   0  0  0  0  0  0  0  0  0  0  0  0
   -8.8638    3.2434   -6.0539 O   0  0  0  0  0  0  0  0  0  0  0  0
   -8.8682    4.6432   -6.2599 C   0  0  0  0  0  0  0  0  0  0  0  0
   -8.2081    4.9984   -7.5956 C   0  0  0  0  0  0  0  0  0  0  0  0
   -8.3866    3.8619  -11.0337 N   0  0  0  0  0  0  0  0  0  0  0  0
   -8.3227    4.2556  -12.3331 C   0  0  0  0  0  0  0  0  0  0  0  0
   -6.9988    4.7603  -14.7253 H   0  0  0  0  0  0  0  0  0  0  0  0
   -4.7018    5.6400  -17.6008 H   0  0  0  0  0  0  0  0  0  0  0  0
   -5.2658    4.3640  -16.4602 H   0  0  0  0  0  0  0  0  0  0  0  0
   -5.3167    6.1123  -15.9836 H   0  0  0  0  0  0  0  0  0  0  0  0
   -6.2129    5.5843  -19.4249 H   0  0  0  0  0  0  0  0  0  0  0  0
   -8.4756    5.7426  -20.3473 H   0  0  0  0  0  0  0  0  0  0  0  0
  -10.8556    6.2954  -19.9527 H   0  0  0  0  0  0  0  0  0  0  0  0
  -11.5406    6.2357  -18.2924 H   0  0  0  0  0  0  0  0  0  0  0  0
  -11.2034    4.6970  -19.1812 H   0  0  0  0  0  0  0  0  0  0  0  0
  -10.1343    5.5080  -16.3903 H   0  0  0  0  0  0  0  0  0  0  0  0
   -9.3837    7.4612  -11.9175 H   0  0  0  0  0  0  0  0  0  0  0  0
   -9.5051    6.6977   -9.5948 H   0  0  0  0  0  0  0  0  0  0  0  0
   -9.7982    2.4000   -9.1798 H   0  0  0  0  0  0  0  0  0  0  0  0
   -8.1257    2.2408   -8.5111 H   0  0  0  0  0  0  0  0  0  0  0  0
  -10.7178    2.9985   -6.9938 H   0  0  0  0  0  0  0  0  0  0  0  0
   -9.7168    1.5282   -6.8057 H   0  0  0  0  0  0  0  0  0  0  0  0
   -9.9032    5.0534   -6.2161 H   0  0  0  0  0  0  0  0  0  0  0  0
   -8.2930    5.1226   -5.4400 H   0  0  0  0  0  0  0  0  0  0  0  0
   -8.3073    6.0903   -7.7637 H   0  0  0  0  0  0  0  0  0  0  0  0
   -7.1253    4.7518   -7.5493 H   0  0  0  0  0  0  0  0  0  0  0  0
   -8.0252    3.5320  -13.0794 H   0  0  0  0  0  0  0  0  0  0  0  0
  1  2  1  0
  2  3  1  0
  3  4  2  0
  4  5  1  0
  4  6  1  0
  6  7  2  0
  7  8  1  0
  8  9  1  0
  8 10  2  0
  1 11  2  0
  1 12  1  0
 12 13  2  0
 13 14  1  0
 14 15  2  0
 15 16  1  0
 16 17  1  0
 17 18  1  0
 18 19  1  0
 19 20  1  0
 20 21  1  0
 15 22  1  0
 22 23  2  0
  3 10  1  0
 23 12  1  0
 21 16  1  0
  2 24  1  0
  5 25  1  0
  5 26  1  0
  5 27  1  0
  6 28  1  0
  7 29  1  0
  9 30  1  0
  9 31  1  0
  9 32  1  0
 10 33  1  0
 13 34  1  0
 14 35  1  0
 17 36  1  0
 17 37  1  0
 18 38  1  0
 18 39  1  0
 20 40  1  0
 20 41  1  0
 21 42  1  0
 21 43  1  0
 23 44  1  0
A    1
 C1 
A    2
 N1 
A    3
 C2 
A    4
 C3 
A    5
 C4 
A    6
 C5 
A    7
 C6 
A    8
 C7 
A    9
 C8 
A   10
 C9 
A   11
 O1 
A   12
 C10
A   13
 C11
A   14
 C12
A   15
 C13
A   16
 N2 
A   17
 C14
A   18
 C15
A   19
 O2 
A   20
 C16
A   21
 C17
A   22
 N3 
A   23
 C18
A   24
 H1 
A   25
 H2 
A   26
 H3 
A   27
 H4 
A   28
 H5 
A   29
 H6 
A   30
 H7 
A   31
 H8 
A   32
 H9 
A   33
 H10
A   34
 H11
A   35
 H12
A   36
 H13
A   37
 H14
A   38
 H15
A   39
 H16
A   40
 H17
A   41
 H18
A   42
 H19
A   43
 H20
A   44
 H21
M  END
>  <ref_pdb>  (345) 
x0051_0B

>  <ref_mols>  (345) 
x0553_0B,x0404_0B

>  <original SMILES>  (345) 
[H]c1nc(N2C([H])([H])C([H])([H])OC([H])([H])C2([H])[H])c([H])c([H])c1C(=O)N([H])c1c([H])c(C([H])([H])[H])c([H])c([H])c1C([H])([H])[H]

>  <index>  (345) 
552

>  <∆∆G>  (345) 
-7.411848

>  <∆G_bound>  (345) 
-7.190155

>  <∆G_unbound>  (345) 
0.221692

>  <comRMSD>  (345) 
0.580787

>  <N_constrained_atoms>  (345) 
24.0

>  <N_unconstrained_atoms>  (345) 
0.0

>  <runtime>  (345) 
66.524384

>  <LE>  (345) 
0.308827

>  <percent_hybrid>  (345) 
38.0

>  <dist>  (345) 
8.0

>  <ecfp4>  (345) 
0.190476

>  <daylight>  (345) 
0.181435

>  <topodist>  (345) 
3.0

>  <mces>  (345) 
25.0

>  <tdn>  (345) 
2.0

>  <tup>  (345) 
0.0

>  <rdn>  (345) 
0.0

>  <rup>  (345) 
0.0

>  <ldn>  (345) 
1.0

>  <lup>  (345) 
0.0

>  <mut>  (345) 
3.0

>  <maj>  (345) 
3.0

>  <min>  (345) 
0.0

>  <hyb>  (345) 
2.0

>  <sub>  (345) 
0.0

>  <query_index>  (345) 
112.0

>  <max_hit_Tanimoto>  (345) 
0.201176

>  <largest_ring>  (345) 
6

>  <N_interactions_kept>  (345) 
2.0

>  <N_interactions_lost>  (345) 
1.5

>  <interaction_uniqueness_metric>  (345) 
0.112655

>  <ad_hoc_penalty>  (345) 
-20.622601

>  <N_rotatable_bonds>  (345) 
5

>  <N_HA>  (345) 
23

>  <cluster>  (345) 
5713

>  <N_interactions>  (345) 
5

>  <Enamine>  (345) 
0

>  <Mcule>  (345) 
1

>  <N_PAINS>  (345) 
0

>  <UFF_Gibbs>  (345) 
92.813124

>  <strain_per_HA>  (345) 
3.867214

>  <saltbridge:HIS:51>  (345) 
0

>  <pistack:HIS:51>  (345) 
1

>  <hydroph_interaction:HIS:51>  (345) 
1

>  <hbond:ALA:132>  (345) 
0

>  <hbond:SER:135>  (345) 
0

>  <hydroph_interaction:TYR:150>  (345) 
1

>  <pistack:TYR:161>  (345) 
0

>  <hydroph_interaction:TYR:161>  (345) 
1

>  <hydroph_interaction:ASP:83>  (345) 
0

>  <hbond:TYR:130>  (345) 
0

>  <hydroph_interaction:ALA:132>  (345) 
1

>  <hbond:HIS:51>  (345) 
0

>  <hbond:ASP:129>  (345) 
0

>  <hbond:TYR:150>  (345) 
0

>  <hbond:GLY:151>  (345) 
0

>  <hbond:TYR:161>  (345) 
0

>  <hydroph_interaction:TYR:130>  (345) 
0

>  <hydroph_interaction:PRO:131>  (345) 
0

>  <hydroph_interaction:ASP:129>  (345) 
0

>  <saltbridge:ASP:75>  (345) 
0

>  <saltbridge:ASP:83>  (345) 
0

>  <hydroph_interaction:ASN:152>  (345) 
0

>  <halogenbond:TYR:150>  (345) 
0

>  <hbond:ASP:83>  (345) 
0

>  <hydroph_interaction:VAL:155>  (345) 
0

>  <pication:TYR:161>  (345) 
0

>  <hbond:PRO:131>  (345) 
0

>  <hbond:LEU:128>  (345) 
0

>  <saltbridge:ASP:129>  (345) 
0

>  <hbond:THR:134>  (345) 
0

>  <pication:HIS:51>  (345) 
0

>  <hbond:SER:81>  (345) 
0

>  <hbond:GLY:159>  (345) 
0

>  <hydroph_interaction:PRO:101>  (345) 
0

>  <hydroph_interaction:THR:134>  (345) 
0

>  <hbond:GLY:82>  (345) 
0

>  <hydroph_interaction:GLU:104>  (345) 
0

>  <hydroph_interaction:VAL:36>  (345) 
0

>  <hydroph_interaction:MET:49>  (345) 
0

>  <halogenbond:GLU:104>  (345) 
0

>  <hydroph_interaction:LYS:107>  (345) 
0

$$$$
PV-002138587716
     RDKit          3D

 46 50  0  0  0  0  0  0  0  0999 V2000
   -5.6185    4.6581  -21.7451 O   0  0  0  0  0  0  0  0  0  0  0  0
   -6.0516    5.6219  -21.0525 C   0  0  0  0  0  0  0  0  0  0  0  0
   -6.7423    6.7553  -21.7142 C   0  0  0  0  0  0  0  0  0  0  0  0
   -7.3404    6.5908  -22.9790 C   0  0  0  0  0  0  0  0  0  0  0  0
   -8.0117    7.6571  -23.5891 C   0  0  0  0  0  0  0  0  0  0  0  0
   -8.0848    8.9075  -22.9507 C   0  0  0  0  0  0  0  0  0  0  0  0
   -8.7779   10.0650  -23.6146 C   0  0  0  0  0  0  0  0  0  0  0  0
   -7.5933   10.9998  -24.6464 S   0  0  0  0  0  0  0  0  0  0  0  0
   -7.9897   10.1220  -26.1651 C   0  0  0  0  0  0  0  0  0  0  0  0
   -7.2835    9.0443  -26.6083 N   0  0  0  0  0  0  0  0  0  0  0  0
   -7.9248    8.7265  -27.7539 C   0  0  0  0  0  0  0  0  0  0  0  0
   -7.6413    7.6800  -28.6323 C   0  0  0  0  0  0  0  0  0  0  0  0
   -8.4661    7.5407  -29.7695 C   0  0  0  0  0  0  0  0  0  0  0  0
   -9.5310    8.4462  -30.0026 C   0  0  0  0  0  0  0  0  0  0  0  0
   -9.7875    9.4927  -29.0961 C   0  0  0  0  0  0  0  0  0  0  0  0
   -8.9603    9.5919  -27.9749 C   0  0  0  0  0  0  0  0  0  0  0  0
   -9.0140   10.4861  -26.9788 N   0  0  0  0  0  0  0  0  0  0  0  0
   -7.4624    9.0813  -21.7031 C   0  0  0  0  0  0  0  0  0  0  0  0
   -6.8021    8.0138  -21.0869 C   0  0  0  0  0  0  0  0  0  0  0  0
   -5.8737    5.6013  -19.6267 N   0  0  0  0  0  0  0  0  0  0  0  0
   -4.5742    5.2021  -19.0568 C   0  0  0  0  0  0  0  0  0  0  0  0
   -4.2489    6.0603  -17.8222 C   0  0  0  0  0  0  0  0  0  0  0  0
   -5.4309    6.1839  -16.9756 N   0  0  0  0  0  0  0  0  0  0  0  0
   -5.4476    6.5485  -15.7046 N   0  0  0  0  0  0  0  0  0  0  0  0
   -6.7016    6.6145  -15.2711 N   0  0  0  0  0  0  0  0  0  0  0  0
   -7.5072    6.2944  -16.3084 C   0  0  0  0  0  0  0  0  0  0  0  0
   -6.6958    6.0388  -17.3877 C   0  0  0  0  0  0  0  0  0  0  0  0
   -7.0676    5.5953  -18.7647 C   0  0  0  0  0  0  0  0  0  0  0  0
   -7.3036    5.6334  -23.4870 H   0  0  0  0  0  0  0  0  0  0  0  0
   -8.4787    7.5058  -24.5555 H   0  0  0  0  0  0  0  0  0  0  0  0
   -9.6507    9.7126  -24.2100 H   0  0  0  0  0  0  0  0  0  0  0  0
   -9.1821   10.7563  -22.8410 H   0  0  0  0  0  0  0  0  0  0  0  0
   -6.8242    6.9932  -28.4437 H   0  0  0  0  0  0  0  0  0  0  0  0
   -8.2928    6.7315  -30.4687 H   0  0  0  0  0  0  0  0  0  0  0  0
  -10.1562    8.3307  -30.8798 H   0  0  0  0  0  0  0  0  0  0  0  0
  -10.6039   10.1871  -29.2561 H   0  0  0  0  0  0  0  0  0  0  0  0
   -9.6884   11.2784  -26.8523 H   0  0  0  0  0  0  0  0  0  0  0  0
   -7.4903   10.0433  -21.2041 H   0  0  0  0  0  0  0  0  0  0  0  0
   -6.3316    8.1748  -20.1219 H   0  0  0  0  0  0  0  0  0  0  0  0
   -3.7618    5.3260  -19.8072 H   0  0  0  0  0  0  0  0  0  0  0  0
   -4.6173    4.1305  -18.7638 H   0  0  0  0  0  0  0  0  0  0  0  0
   -3.9371    7.0742  -18.1515 H   0  0  0  0  0  0  0  0  0  0  0  0
   -3.4159    5.5977  -17.2486 H   0  0  0  0  0  0  0  0  0  0  0  0
   -8.5869    6.2482  -16.2674 H   0  0  0  0  0  0  0  0  0  0  0  0
   -7.4799    4.5659  -18.7178 H   0  0  0  0  0  0  0  0  0  0  0  0
   -7.8498    6.2751  -19.1650 H   0  0  0  0  0  0  0  0  0  0  0  0
  1  2  2  0
  2  3  1  0
  3  4  2  0
  4  5  1  0
  5  6  2  0
  6  7  1  0
  7  8  1  0
  8  9  1  0
  9 10  2  0
 10 11  1  0
 11 12  2  0
 12 13  1  0
 13 14  2  0
 14 15  1  0
 15 16  2  0
 16 17  1  0
  6 18  1  0
 18 19  2  0
  2 20  1  0
 20 21  1  0
 21 22  1  0
 22 23  1  0
 23 24  1  0
 24 25  2  0
 25 26  1  0
 26 27  2  0
 27 28  1  0
 19  3  1  0
 17  9  1  0
 16 11  1  0
 28 20  1  0
 27 23  1  0
  4 29  1  0
  5 30  1  0
  7 31  1  0
  7 32  1  0
 12 33  1  0
 13 34  1  0
 14 35  1  0
 15 36  1  0
 17 37  1  0
 18 38  1  0
 19 39  1  0
 21 40  1  0
 21 41  1  0
 22 42  1  0
 22 43  1  0
 26 44  1  0
 28 45  1  0
 28 46  1  0
A    1
 O1 
A    2
 C1 
A    3
 C2 
A    4
 C3 
A    5
 C4 
A    6
 C5 
A    7
 C6 
A    8
 S1 
A    9
 C7 
A   10
 N1 
A   11
 C8 
A   12
 C9 
A   13
 C10
A   14
 C11
A   15
 C12
A   16
 C13
A   17
 N2 
A   18
 C14
A   19
 C15
A   20
 N3 
A   21
 C16
A   22
 C17
A   23
 N4 
A   24
 N5 
A   25
 N6 
A   26
 C18
A   27
 C19
A   28
 C20
A   29
 H1 
A   30
 H2 
A   31
 H3 
A   32
 H4 
A   33
 H5 
A   34
 H6 
A   35
 H7 
A   36
 H8 
A   37
 H9 
A   38
 H10
A   39
 H11
A   40
 H12
A   41
 H13
A   42
 H14
A   43
 H15
A   44
 H16
A   45
 H17
A   46
 H18
M  END
>  <ref_pdb>  (346) 
x0051_0B

>  <ref_mols>  (346) 
x0846_1B,x0969_0B

>  <original SMILES>  (346) 
[H]c1nnn2c1C([H])([H])N(C(=O)c1c([H])c([H])c(C([H])([H])Sc3nc4c([H])c([H])c([H])c([H])c4n3[H])c([H])c1[H])C([H])([H])C2([H])[H]

>  <index>  (346) 
665

>  <∆∆G>  (346) 
-7.287344

>  <∆G_bound>  (346) 
-6.94445

>  <∆G_unbound>  (346) 
0.342894

>  <comRMSD>  (346) 
0.728381

>  <N_constrained_atoms>  (346) 
28.0

>  <N_unconstrained_atoms>  (346) 
2.0

>  <runtime>  (346) 
52.653686

>  <LE>  (346) 
0.242911

>  <percent_hybrid>  (346) 
36.0

>  <dist>  (346) 
6.0

>  <ecfp4>  (346) 
0.242105

>  <daylight>  (346) 
0.362179

>  <topodist>  (346) 
3.0

>  <mces>  (346) 
31.0

>  <tdn>  (346) 
2.0

>  <tup>  (346) 
1.0

>  <rdn>  (346) 
0.0

>  <rup>  (346) 
0.0

>  <ldn>  (346) 
0.0

>  <lup>  (346) 
0.0

>  <mut>  (346) 
3.0

>  <maj>  (346) 
3.0

>  <min>  (346) 
0.0

>  <hyb>  (346) 
0.0

>  <sub>  (346) 
2.0

>  <query_index>  (346) 
45.0

>  <max_hit_Tanimoto>  (346) 
0.262821

>  <largest_ring>  (346) 
6

>  <N_interactions_kept>  (346) 
0.5

>  <N_interactions_lost>  (346) 
2.0

>  <interaction_uniqueness_metric>  (346) 
0.199509

>  <ad_hoc_penalty>  (346) 
-20.597675

>  <N_rotatable_bonds>  (346) 
4

>  <N_HA>  (346) 
28

>  <cluster>  (346) 
5609

>  <N_interactions>  (346) 
5

>  <Enamine>  (346) 
1

>  <Mcule>  (346) 
0

>  <N_PAINS>  (346) 
0

>  <UFF_Gibbs>  (346) 
93.520845

>  <strain_per_HA>  (346) 
3.117362

>  <saltbridge:HIS:51>  (346) 
0

>  <pistack:HIS:51>  (346) 
0

>  <hydroph_interaction:HIS:51>  (346) 
0

>  <hbond:ALA:132>  (346) 
0

>  <hbond:SER:135>  (346) 
0

>  <hydroph_interaction:TYR:150>  (346) 
0

>  <pistack:TYR:161>  (346) 
1

>  <hydroph_interaction:TYR:161>  (346) 
0

>  <hydroph_interaction:ASP:83>  (346) 
0

>  <hbond:TYR:130>  (346) 
0

>  <hydroph_interaction:ALA:132>  (346) 
0

>  <hbond:HIS:51>  (346) 
0

>  <hbond:ASP:129>  (346) 
1

>  <hbond:TYR:150>  (346) 
0

>  <hbond:GLY:151>  (346) 
0

>  <hbond:TYR:161>  (346) 
1

>  <hydroph_interaction:TYR:130>  (346) 
1

>  <hydroph_interaction:PRO:131>  (346) 
1

>  <hydroph_interaction:ASP:129>  (346) 
0

>  <saltbridge:ASP:75>  (346) 
0

>  <saltbridge:ASP:83>  (346) 
0

>  <hydroph_interaction:ASN:152>  (346) 
0

>  <halogenbond:TYR:150>  (346) 
0

>  <hbond:ASP:83>  (346) 
0

>  <hydroph_interaction:VAL:155>  (346) 
0

>  <pication:TYR:161>  (346) 
0

>  <hbond:PRO:131>  (346) 
0

>  <hbond:LEU:128>  (346) 
0

>  <saltbridge:ASP:129>  (346) 
0

>  <hbond:THR:134>  (346) 
0

>  <pication:HIS:51>  (346) 
0

>  <hbond:SER:81>  (346) 
0

>  <hbond:GLY:159>  (346) 
0

>  <hydroph_interaction:PRO:101>  (346) 
0

>  <hydroph_interaction:THR:134>  (346) 
0

>  <hbond:GLY:82>  (346) 
0

>  <hydroph_interaction:GLU:104>  (346) 
0

>  <hydroph_interaction:VAL:36>  (346) 
0

>  <hydroph_interaction:MET:49>  (346) 
0

>  <halogenbond:GLU:104>  (346) 
0

>  <hydroph_interaction:LYS:107>  (346) 
0

$$$$
MCULE-5676934598
     RDKit          3D

 20 21  0  0  0  0  0  0  0  0999 V2000
   -7.6625    5.0297  -18.1773 C   0  0  0  0  0  0  0  0  0  0  0  0
   -8.0119    4.7919  -16.8432 C   0  0  0  0  0  0  0  0  0  0  0  0
   -9.6871    4.6749  -16.7532 S   0  0  0  0  0  0  0  0  0  0  0  0
   -9.9025    4.9087  -18.4005 C   0  0  0  0  0  0  0  0  0  0  0  0
  -11.2247    5.0007  -19.0819 C   0  0  0  0  0  0  0  0  0  0  0  0
   -8.7240    5.0988  -19.0300 N   0  0  0  0  0  0  0  0  0  0  0  0
   -6.2677    5.1972  -18.6647 C   0  0  0  0  0  0  0  0  0  0  0  0
   -6.0017    5.2215  -20.0466 C   0  0  0  0  0  0  0  0  0  0  0  0
   -4.7297    5.3753  -20.5020 N   0  0  0  0  0  0  0  0  0  0  0  0
   -3.6777    5.5133  -19.6545 C   0  0  0  0  0  0  0  0  0  0  0  0
   -3.8867    5.5011  -18.2763 C   0  0  0  0  0  0  0  0  0  0  0  0
   -5.1821    5.3441  -17.7803 C   0  0  0  0  0  0  0  0  0  0  0  0
   -7.3433    4.6883  -16.0009 H   0  0  0  0  0  0  0  0  0  0  0  0
  -11.9500    4.3156  -18.5954 H   0  0  0  0  0  0  0  0  0  0  0  0
  -11.6026    6.0419  -19.0156 H   0  0  0  0  0  0  0  0  0  0  0  0
  -11.1220    4.7157  -20.1500 H   0  0  0  0  0  0  0  0  0  0  0  0
   -6.8019    5.1126  -20.7668 H   0  0  0  0  0  0  0  0  0  0  0  0
   -2.6787    5.6345  -20.0515 H   0  0  0  0  0  0  0  0  0  0  0  0
   -3.0517    5.6156  -17.5971 H   0  0  0  0  0  0  0  0  0  0  0  0
   -5.3235    5.3516  -16.7093 H   0  0  0  0  0  0  0  0  0  0  0  0
  1  2  2  0
  2  3  1  0
  3  4  1  0
  4  5  1  0
  4  6  2  0
  1  7  1  0
  7  8  2  0
  8  9  1  0
  9 10  2  0
 10 11  1  0
 11 12  2  0
  6  1  1  0
  7 12  1  0
  2 13  1  0
  5 14  1  0
  5 15  1  0
  5 16  1  0
  8 17  1  0
 10 18  1  0
 11 19  1  0
 12 20  1  0
A    1
 C1 
A    2
 C2 
A    3
 S1 
A    4
 C3 
A    5
 C4 
A    6
 N1 
A    7
 C5 
A    8
 C6 
A    9
 N2 
A   10
 C7 
A   11
 C8 
A   12
 C9 
A   13
 H1 
A   14
 H2 
A   15
 H3 
A   16
 H4 
A   17
 H5 
A   18
 H6 
A   19
 H7 
A   20
 H8 
M  END
>  <ref_pdb>  (347) 
x0051_0B

>  <ref_mols>  (347) 
x0680_0B,x0386_0B

>  <original SMILES>  (347) 
[H]c1nc([H])c(-c2nc(C([H])([H])[H])sc2[H])c([H])c1[H]

>  <index>  (347) 
634

>  <∆∆G>  (347) 
-6.913918

>  <∆G_bound>  (347) 
-6.897857

>  <∆G_unbound>  (347) 
0.016061

>  <comRMSD>  (347) 
0.689884

>  <N_constrained_atoms>  (347) 
12.0

>  <N_unconstrained_atoms>  (347) 
1.0

>  <runtime>  (347) 
31.628931

>  <LE>  (347) 
0.53184

>  <percent_hybrid>  (347) 
17.0

>  <dist>  (347) 
3.0

>  <ecfp4>  (347) 
0.254902

>  <daylight>  (347) 
0.357616

>  <topodist>  (347) 
2.0

>  <mces>  (347) 
12.0

>  <tdn>  (347) 
1.0

>  <tup>  (347) 
1.0

>  <rdn>  (347) 
0.0

>  <rup>  (347) 
0.0

>  <ldn>  (347) 
0.0

>  <lup>  (347) 
0.0

>  <mut>  (347) 
1.0

>  <maj>  (347) 
0.0

>  <min>  (347) 
1.0

>  <hyb>  (347) 
0.0

>  <sub>  (347) 
2.0

>  <query_index>  (347) 
296.0

>  <max_hit_Tanimoto>  (347) 
0.117073

>  <largest_ring>  (347) 
6

>  <N_interactions_kept>  (347) 
3.0

>  <N_interactions_lost>  (347) 
1.0

>  <interaction_uniqueness_metric>  (347) 
0.028804

>  <ad_hoc_penalty>  (347) 
-20.59436

>  <N_rotatable_bonds>  (347) 
2

>  <N_HA>  (347) 
12

>  <cluster>  (347) 
5639

>  <N_interactions>  (347) 
3

>  <Enamine>  (347) 
0

>  <Mcule>  (347) 
1

>  <N_PAINS>  (347) 
0

>  <UFF_Gibbs>  (347) 
22.627101

>  <strain_per_HA>  (347) 
1.740546

>  <saltbridge:HIS:51>  (347) 
0

>  <pistack:HIS:51>  (347) 
0

>  <hydroph_interaction:HIS:51>  (347) 
0

>  <hbond:ALA:132>  (347) 
0

>  <hbond:SER:135>  (347) 
0

>  <hydroph_interaction:TYR:150>  (347) 
1

>  <pistack:TYR:161>  (347) 
0

>  <hydroph_interaction:TYR:161>  (347) 
2

>  <hydroph_interaction:ASP:83>  (347) 
0

>  <hbond:TYR:130>  (347) 
0

>  <hydroph_interaction:ALA:132>  (347) 
0

>  <hbond:HIS:51>  (347) 
0

>  <hbond:ASP:129>  (347) 
0

>  <hbond:TYR:150>  (347) 
0

>  <hbond:GLY:151>  (347) 
0

>  <hbond:TYR:161>  (347) 
0

>  <hydroph_interaction:TYR:130>  (347) 
0

>  <hydroph_interaction:PRO:131>  (347) 
0

>  <hydroph_interaction:ASP:129>  (347) 
0

>  <saltbridge:ASP:75>  (347) 
0

>  <saltbridge:ASP:83>  (347) 
0

>  <hydroph_interaction:ASN:152>  (347) 
0

>  <halogenbond:TYR:150>  (347) 
0

>  <hbond:ASP:83>  (347) 
0

>  <hydroph_interaction:VAL:155>  (347) 
0

>  <pication:TYR:161>  (347) 
0

>  <hbond:PRO:131>  (347) 
0

>  <hbond:LEU:128>  (347) 
0

>  <saltbridge:ASP:129>  (347) 
0

>  <hbond:THR:134>  (347) 
0

>  <pication:HIS:51>  (347) 
0

>  <hbond:SER:81>  (347) 
0

>  <hbond:GLY:159>  (347) 
0

>  <hydroph_interaction:PRO:101>  (347) 
0

>  <hydroph_interaction:THR:134>  (347) 
0

>  <hbond:GLY:82>  (347) 
0

>  <hydroph_interaction:GLU:104>  (347) 
0

>  <hydroph_interaction:VAL:36>  (347) 
0

>  <hydroph_interaction:MET:49>  (347) 
0

>  <halogenbond:GLU:104>  (347) 
0

>  <hydroph_interaction:LYS:107>  (347) 
0

$$$$
MCULE-1746965507
     RDKit          3D

 47 50  0  0  0  0  0  0  0  0999 V2000
   -6.2370    6.4186  -17.4167 O   0  0  0  0  0  0  0  0  0  0  0  0
   -5.4736    5.6443  -18.3515 C   0  0  0  0  0  0  0  0  0  0  0  0
   -4.7322    4.5379  -17.6029 C   0  0  0  0  0  0  0  0  0  0  0  0
   -6.3592    5.0466  -19.4132 C   0  0  0  0  0  0  0  0  0  0  0  0
   -5.8752    4.7185  -20.5301 O   0  0  0  0  0  0  0  0  0  0  0  0
   -7.7383    4.7916  -19.1265 N   0  0  0  0  0  0  0  0  0  0  0  0
   -8.3229    5.2866  -17.9163 C   0  0  0  0  0  0  0  0  0  0  0  0
   -9.6499    4.9826  -17.5906 C   0  0  0  0  0  0  0  0  0  0  0  0
  -10.2194    5.5013  -16.4256 C   0  0  0  0  0  0  0  0  0  0  0  0
   -9.4719    6.3315  -15.5852 C   0  0  0  0  0  0  0  0  0  0  0  0
   -8.1344    6.6526  -15.8990 C   0  0  0  0  0  0  0  0  0  0  0  0
   -7.3387    7.4952  -15.0398 N   0  0  0  0  0  0  0  0  0  0  0  0
   -7.8985    8.1720  -13.5419 S   0  0  0  0  0  6  0  0  0  0  0  0
   -6.8109    9.0283  -12.9526 O   0  0  0  0  0  0  0  0  0  0  0  0
   -9.1048    9.0310  -13.8095 O   0  0  0  0  0  0  0  0  0  0  0  0
   -8.2934    6.8905  -12.3994 C   0  0  0  0  0  0  0  0  0  0  0  0
   -9.2163    7.1228  -11.3725 C   0  0  0  0  0  0  0  0  0  0  0  0
   -9.5172    6.1141  -10.4516 C   0  0  0  0  0  0  0  0  0  0  0  0
   -8.8889    4.8583  -10.5407 C   0  0  0  0  0  0  0  0  0  0  0  0
   -7.9697    4.6282  -11.5828 C   0  0  0  0  0  0  0  0  0  0  0  0
   -7.6690    5.6400  -12.4989 C   0  0  0  0  0  0  0  0  0  0  0  0
   -9.1919    3.8143   -9.5943 N   0  0  0  0  0  0  0  0  0  0  0  0
   -9.2311    2.3950   -9.9126 C   0  0  0  0  0  0  0  0  0  0  0  0
   -9.8093    1.6949   -8.6676 C   0  0  0  0  0  0  0  0  0  0  0  0
   -9.8141    2.7261   -7.5304 C   0  0  0  0  0  0  0  0  0  0  0  0
   -9.4834    3.9898   -8.2173 C   0  0  0  0  0  0  0  0  0  0  0  0
   -9.4033    5.1003   -7.6245 O   0  0  0  0  0  0  0  0  0  0  0  0
   -7.5632    6.1157  -17.0714 C   0  0  0  0  0  0  0  0  0  0  0  0
   -4.7239    6.3119  -18.8340 H   0  0  0  0  0  0  0  0  0  0  0  0
   -4.0526    4.9883  -16.8470 H   0  0  0  0  0  0  0  0  0  0  0  0
   -5.4533    3.8718  -17.0797 H   0  0  0  0  0  0  0  0  0  0  0  0
   -4.1236    3.9323  -18.3093 H   0  0  0  0  0  0  0  0  0  0  0  0
   -8.3212    4.2651  -19.8171 H   0  0  0  0  0  0  0  0  0  0  0  0
  -10.2421    4.3503  -18.2412 H   0  0  0  0  0  0  0  0  0  0  0  0
  -11.2469    5.2642  -16.1752 H   0  0  0  0  0  0  0  0  0  0  0  0
   -9.9495    6.7143  -14.6944 H   0  0  0  0  0  0  0  0  0  0  0  0
   -6.3392    7.6816  -15.2829 H   0  0  0  0  0  0  0  0  0  0  0  0
   -9.7039    8.0843  -11.2840 H   0  0  0  0  0  0  0  0  0  0  0  0
  -10.2523    6.3121   -9.6823 H   0  0  0  0  0  0  0  0  0  0  0  0
   -7.4672    3.6732  -11.6774 H   0  0  0  0  0  0  0  0  0  0  0  0
   -6.9443    5.4472  -13.2818 H   0  0  0  0  0  0  0  0  0  0  0  0
   -9.8746    2.2157  -10.8027 H   0  0  0  0  0  0  0  0  0  0  0  0
   -8.2005    2.0245  -10.1087 H   0  0  0  0  0  0  0  0  0  0  0  0
   -9.1990    0.8064   -8.3932 H   0  0  0  0  0  0  0  0  0  0  0  0
  -10.8514    1.3637   -8.8757 H   0  0  0  0  0  0  0  0  0  0  0  0
  -10.8129    2.7920   -7.0468 H   0  0  0  0  0  0  0  0  0  0  0  0
   -9.0309    2.4883   -6.7778 H   0  0  0  0  0  0  0  0  0  0  0  0
  1  2  1  0
  2  3  1  0
  2  4  1  0
  4  5  2  0
  4  6  1  0
  6  7  1  0
  7  8  2  0
  8  9  1  0
  9 10  2  0
 10 11  1  0
 11 12  1  0
 12 13  1  0
 13 14  2  0
 13 15  2  0
 13 16  1  0
 16 17  2  0
 17 18  1  0
 18 19  2  0
 19 20  1  0
 20 21  2  0
 19 22  1  0
 22 23  1  0
 23 24  1  0
 24 25  1  0
 25 26  1  0
 26 27  2  0
 11 28  2  0
 28  1  1  0
 28  7  1  0
 21 16  1  0
 26 22  1  0
  2 29  1  0
  3 30  1  0
  3 31  1  0
  3 32  1  0
  6 33  1  0
  8 34  1  0
  9 35  1  0
 10 36  1  0
 12 37  1  0
 17 38  1  0
 18 39  1  0
 20 40  1  0
 21 41  1  0
 23 42  1  0
 23 43  1  0
 24 44  1  0
 24 45  1  0
 25 46  1  0
 25 47  1  0
A    1
 O1 
A    2
 C1 
A    3
 C2 
A    4
 C3 
A    5
 O2 
A    6
 N1 
A    7
 C4 
A    8
 C5 
A    9
 C6 
A   10
 C7 
A   11
 C8 
A   12
 N2 
A   13
 S1 
A   14
 O3 
A   15
 O4 
A   16
 C9 
A   17
 C10
A   18
 C11
A   19
 C12
A   20
 C13
A   21
 C14
A   22
 N3 
A   23
 C15
A   24
 C16
A   25
 C17
A   26
 C18
A   27
 O5 
A   28
 C19
A   29
 H1 
A   30
 H2 
A   31
 H3 
A   32
 H4 
A   33
 H5 
A   34
 H6 
A   35
 H7 
A   36
 H8 
A   37
 H9 
A   38
 H10
A   39
 H11
A   40
 H12
A   41
 H13
A   42
 H14
A   43
 H15
A   44
 H16
A   45
 H17
A   46
 H18
A   47
 H19
M  END
>  <ref_pdb>  (348) 
x0051_0B

>  <ref_mols>  (348) 
x0443_0B,x0404_0B

>  <original SMILES>  (348) 
[H]c1c([H])c2c(c(N([H])S(=O)(=O)c3c([H])c([H])c(N4C(=O)C([H])([H])C([H])([H])C4([H])[H])c([H])c3[H])c1[H])OC([H])(C([H])([H])[H])C(=O)N2[H]

>  <index>  (348) 
342

>  <∆∆G>  (348) 
-8.845766

>  <∆G_bound>  (348) 
-8.076844

>  <∆G_unbound>  (348) 
0.768922

>  <comRMSD>  (348) 
0.615505

>  <N_constrained_atoms>  (348) 
26.0

>  <N_unconstrained_atoms>  (348) 
3.0

>  <runtime>  (348) 
77.547989

>  <LE>  (348) 
0.305026

>  <percent_hybrid>  (348) 
43.0

>  <dist>  (348) 
10.0

>  <ecfp4>  (348) 
0.206522

>  <daylight>  (348) 
0.243986

>  <topodist>  (348) 
4.0

>  <mces>  (348) 
29.0

>  <tdn>  (348) 
0.0

>  <tup>  (348) 
1.0

>  <rdn>  (348) 
0.0

>  <rup>  (348) 
0.0

>  <ldn>  (348) 
2.0

>  <lup>  (348) 
1.0

>  <mut>  (348) 
3.0

>  <maj>  (348) 
3.0

>  <min>  (348) 
0.0

>  <hyb>  (348) 
3.0

>  <sub>  (348) 
0.0

>  <query_index>  (348) 
13.0

>  <max_hit_Tanimoto>  (348) 
0.258847

>  <largest_ring>  (348) 
6

>  <N_interactions_kept>  (348) 
2.5

>  <N_interactions_lost>  (348) 
2.0

>  <interaction_uniqueness_metric>  (348) 
0.084571

>  <ad_hoc_penalty>  (348) 
-20.51916

>  <N_rotatable_bonds>  (348) 
5

>  <N_HA>  (348) 
28

>  <cluster>  (348) 
5906

>  <N_interactions>  (348) 
6

>  <Enamine>  (348) 
0

>  <Mcule>  (348) 
1

>  <N_PAINS>  (348) 
0

>  <UFF_Gibbs>  (348) 
193.383806

>  <strain_per_HA>  (348) 
6.668407

>  <saltbridge:HIS:51>  (348) 
0

>  <pistack:HIS:51>  (348) 
1

>  <hydroph_interaction:HIS:51>  (348) 
0

>  <hbond:ALA:132>  (348) 
0

>  <hbond:SER:135>  (348) 
0

>  <hydroph_interaction:TYR:150>  (348) 
1

>  <pistack:TYR:161>  (348) 
0

>  <hydroph_interaction:TYR:161>  (348) 
3

>  <hydroph_interaction:ASP:83>  (348) 
0

>  <hbond:TYR:130>  (348) 
1

>  <hydroph_interaction:ALA:132>  (348) 
0

>  <hbond:HIS:51>  (348) 
0

>  <hbond:ASP:129>  (348) 
0

>  <hbond:TYR:150>  (348) 
0

>  <hbond:GLY:151>  (348) 
0

>  <hbond:TYR:161>  (348) 
0

>  <hydroph_interaction:TYR:130>  (348) 
0

>  <hydroph_interaction:PRO:131>  (348) 
0

>  <hydroph_interaction:ASP:129>  (348) 
0

>  <saltbridge:ASP:75>  (348) 
0

>  <saltbridge:ASP:83>  (348) 
0

>  <hydroph_interaction:ASN:152>  (348) 
0

>  <halogenbond:TYR:150>  (348) 
0

>  <hbond:ASP:83>  (348) 
0

>  <hydroph_interaction:VAL:155>  (348) 
0

>  <pication:TYR:161>  (348) 
0

>  <hbond:PRO:131>  (348) 
0

>  <hbond:LEU:128>  (348) 
0

>  <saltbridge:ASP:129>  (348) 
0

>  <hbond:THR:134>  (348) 
0

>  <pication:HIS:51>  (348) 
0

>  <hbond:SER:81>  (348) 
0

>  <hbond:GLY:159>  (348) 
0

>  <hydroph_interaction:PRO:101>  (348) 
0

>  <hydroph_interaction:THR:134>  (348) 
0

>  <hbond:GLY:82>  (348) 
0

>  <hydroph_interaction:GLU:104>  (348) 
0

>  <hydroph_interaction:VAL:36>  (348) 
0

>  <hydroph_interaction:MET:49>  (348) 
0

>  <halogenbond:GLU:104>  (348) 
0

>  <hydroph_interaction:LYS:107>  (348) 
0

$$$$
CSSB00020651157
     RDKit          3D

 40 42  0  0  0  0  0  0  0  0999 V2000
   -8.2831    8.3866  -13.7434 O   0  0  0  0  0  0  0  0  0  0  0  0
   -8.7679    7.2230  -13.7926 C   0  0  0  0  0  0  0  0  0  0  0  0
   -9.1849    6.6914  -15.1379 C   0  0  0  0  0  0  0  0  0  0  0  0
   -8.0520    5.8845  -15.7777 C   0  0  0  0  0  0  0  0  0  0  0  0
   -8.4892    5.3253  -17.0947 C   0  0  0  0  0  0  0  0  0  0  0  0
   -8.3821    5.9576  -18.3170 C   0  0  0  0  0  0  0  0  0  0  0  0
   -8.9360    5.0884  -19.2320 C   0  0  0  0  0  0  0  0  0  0  0  0
   -9.3496    3.9854  -18.5117 C   0  0  0  0  0  0  0  0  0  0  0  0
   -9.0720    4.1578  -17.2396 O   0  0  0  0  0  0  0  0  0  0  0  0
   -8.8752    6.4218  -12.5400 C   0  0  0  0  0  0  0  0  0  0  0  0
   -8.5751    7.0195  -11.3012 C   0  0  0  0  0  0  0  0  0  0  0  0
   -8.6660    6.2884  -10.1138 C   0  0  0  0  0  0  0  0  0  0  0  0
   -9.0547    4.9416  -10.1350 C   0  0  0  0  0  0  0  0  0  0  0  0
   -9.3589    4.3398  -11.3658 C   0  0  0  0  0  0  0  0  0  0  0  0
   -9.2685    5.0688  -12.5549 C   0  0  0  0  0  0  0  0  0  0  0  0
   -9.1504    4.1949   -8.9066 N   0  0  0  0  0  0  0  0  0  0  0  0
  -10.2471    3.2438   -8.7014 C   0  0  0  0  0  0  0  0  0  0  0  0
  -10.5414    3.1118   -7.2039 C   0  0  0  0  0  0  0  0  0  0  0  0
   -9.3608    2.8107   -6.4837 O   0  0  0  0  0  0  0  0  0  0  0  0
   -8.4540    3.8935   -6.5761 C   0  0  0  0  0  0  0  0  0  0  0  0
   -7.9861    4.0892   -8.0213 C   0  0  0  0  0  0  0  0  0  0  0  0
  -10.1046    6.0757  -15.0437 H   0  0  0  0  0  0  0  0  0  0  0  0
   -9.4408    7.5467  -15.8020 H   0  0  0  0  0  0  0  0  0  0  0  0
   -7.1640    6.5366  -15.9288 H   0  0  0  0  0  0  0  0  0  0  0  0
   -7.7530    5.0455  -15.1140 H   0  0  0  0  0  0  0  0  0  0  0  0
   -7.9584    6.9330  -18.5167 H   0  0  0  0  0  0  0  0  0  0  0  0
   -9.0319    5.2416  -20.2984 H   0  0  0  0  0  0  0  0  0  0  0  0
   -9.8321    3.1067  -18.9181 H   0  0  0  0  0  0  0  0  0  0  0  0
   -8.2760    8.0587  -11.2459 H   0  0  0  0  0  0  0  0  0  0  0  0
   -8.4500    6.7807   -9.1743 H   0  0  0  0  0  0  0  0  0  0  0  0
   -9.6524    3.2988  -11.4091 H   0  0  0  0  0  0  0  0  0  0  0  0
   -9.4994    4.5582  -13.4787 H   0  0  0  0  0  0  0  0  0  0  0  0
  -11.1662    3.5932   -9.2210 H   0  0  0  0  0  0  0  0  0  0  0  0
   -9.9566    2.2522   -9.1111 H   0  0  0  0  0  0  0  0  0  0  0  0
  -11.0214    4.0404   -6.8184 H   0  0  0  0  0  0  0  0  0  0  0  0
  -11.2669    2.2845   -7.0554 H   0  0  0  0  0  0  0  0  0  0  0  0
   -8.9074    4.8325   -6.1837 H   0  0  0  0  0  0  0  0  0  0  0  0
   -7.5699    3.6691   -5.9429 H   0  0  0  0  0  0  0  0  0  0  0  0
   -7.3712    3.2172   -8.3327 H   0  0  0  0  0  0  0  0  0  0  0  0
   -7.3519    4.9991   -8.0768 H   0  0  0  0  0  0  0  0  0  0  0  0
  1  2  2  0
  2  3  1  0
  3  4  1  0
  4  5  1  0
  5  6  2  0
  6  7  1  0
  7  8  2  0
  8  9  1  0
  2 10  1  0
 10 11  2  0
 11 12  1  0
 12 13  2  0
 13 14  1  0
 14 15  2  0
 13 16  1  0
 16 17  1  0
 17 18  1  0
 18 19  1  0
 19 20  1  0
 20 21  1  0
  9  5  1  0
 15 10  1  0
 21 16  1  0
  3 22  1  0
  3 23  1  0
  4 24  1  0
  4 25  1  0
  6 26  1  0
  7 27  1  0
  8 28  1  0
 11 29  1  0
 12 30  1  0
 14 31  1  0
 15 32  1  0
 17 33  1  0
 17 34  1  0
 18 35  1  0
 18 36  1  0
 20 37  1  0
 20 38  1  0
 21 39  1  0
 21 40  1  0
A    1
 O1 
A    2
 C1 
A    3
 C2 
A    4
 C3 
A    5
 C4 
A    6
 C5 
A    7
 C6 
A    8
 C7 
A    9
 O2 
A   10
 C8 
A   11
 C9 
A   12
 C10
A   13
 C11
A   14
 C12
A   15
 C13
A   16
 N1 
A   17
 C14
A   18
 C15
A   19
 O3 
A   20
 C16
A   21
 C17
A   22
 H1 
A   23
 H2 
A   24
 H3 
A   25
 H4 
A   26
 H5 
A   27
 H6 
A   28
 H7 
A   29
 H8 
A   30
 H9 
A   31
 H10
A   32
 H11
A   33
 H12
A   34
 H13
A   35
 H14
A   36
 H15
A   37
 H16
A   38
 H17
A   39
 H18
A   40
 H19
M  END
>  <ref_pdb>  (349) 
x0051_0B

>  <ref_mols>  (349) 
x0386_0B,x0404_0B

>  <original SMILES>  (349) 
[H]c1oc(C([H])([H])C([H])([H])C(=O)c2c([H])c([H])c(N3C([H])([H])C([H])([H])OC([H])([H])C3([H])[H])c([H])c2[H])c([H])c1[H]

>  <index>  (349) 
516

>  <∆∆G>  (349) 
-6.008296

>  <∆G_bound>  (349) 
-5.516335

>  <∆G_unbound>  (349) 
0.491961

>  <comRMSD>  (349) 
0.605501

>  <N_constrained_atoms>  (349) 
22.0

>  <N_unconstrained_atoms>  (349) 
0.0

>  <runtime>  (349) 
56.832074

>  <LE>  (349) 
0.273104

>  <percent_hybrid>  (349) 
28.0

>  <dist>  (349) 
8.0

>  <ecfp4>  (349) 
0.213333

>  <daylight>  (349) 
0.18107

>  <topodist>  (349) 
3.0

>  <mces>  (349) 
23.0

>  <tdn>  (349) 
3.0

>  <tup>  (349) 
0.0

>  <rdn>  (349) 
0.0

>  <rup>  (349) 
0.0

>  <ldn>  (349) 
0.0

>  <lup>  (349) 
0.0

>  <mut>  (349) 
5.0

>  <maj>  (349) 
5.0

>  <min>  (349) 
0.0

>  <hyb>  (349) 
0.0

>  <sub>  (349) 
1.0

>  <query_index>  (349) 
109.0

>  <max_hit_Tanimoto>  (349) 
0.242138

>  <largest_ring>  (349) 
6

>  <N_interactions_kept>  (349) 
2.0

>  <N_interactions_lost>  (349) 
1.5

>  <interaction_uniqueness_metric>  (349) 
0.116545

>  <ad_hoc_penalty>  (349) 
-20.490605

>  <N_rotatable_bonds>  (349) 
5

>  <N_HA>  (349) 
21

>  <cluster>  (349) 
5748

>  <N_interactions>  (349) 
6

>  <Enamine>  (349) 
1

>  <Mcule>  (349) 
0

>  <N_PAINS>  (349) 
0

>  <UFF_Gibbs>  (349) 
99.16094

>  <strain_per_HA>  (349) 
4.507315

>  <saltbridge:HIS:51>  (349) 
0

>  <pistack:HIS:51>  (349) 
1

>  <hydroph_interaction:HIS:51>  (349) 
1

>  <hbond:ALA:132>  (349) 
0

>  <hbond:SER:135>  (349) 
0

>  <hydroph_interaction:TYR:150>  (349) 
1

>  <pistack:TYR:161>  (349) 
0

>  <hydroph_interaction:TYR:161>  (349) 
2

>  <hydroph_interaction:ASP:83>  (349) 
0

>  <hbond:TYR:130>  (349) 
0

>  <hydroph_interaction:ALA:132>  (349) 
1

>  <hbond:HIS:51>  (349) 
0

>  <hbond:ASP:129>  (349) 
0

>  <hbond:TYR:150>  (349) 
0

>  <hbond:GLY:151>  (349) 
0

>  <hbond:TYR:161>  (349) 
0

>  <hydroph_interaction:TYR:130>  (349) 
0

>  <hydroph_interaction:PRO:131>  (349) 
0

>  <hydroph_interaction:ASP:129>  (349) 
0

>  <saltbridge:ASP:75>  (349) 
0

>  <saltbridge:ASP:83>  (349) 
0

>  <hydroph_interaction:ASN:152>  (349) 
0

>  <halogenbond:TYR:150>  (349) 
0

>  <hbond:ASP:83>  (349) 
0

>  <hydroph_interaction:VAL:155>  (349) 
0

>  <pication:TYR:161>  (349) 
0

>  <hbond:PRO:131>  (349) 
0

>  <hbond:LEU:128>  (349) 
0

>  <saltbridge:ASP:129>  (349) 
0

>  <hbond:THR:134>  (349) 
0

>  <pication:HIS:51>  (349) 
0

>  <hbond:SER:81>  (349) 
0

>  <hbond:GLY:159>  (349) 
0

>  <hydroph_interaction:PRO:101>  (349) 
0

>  <hydroph_interaction:THR:134>  (349) 
0

>  <hbond:GLY:82>  (349) 
0

>  <hydroph_interaction:GLU:104>  (349) 
0

>  <hydroph_interaction:VAL:36>  (349) 
0

>  <hydroph_interaction:MET:49>  (349) 
0

>  <halogenbond:GLU:104>  (349) 
0

>  <hydroph_interaction:LYS:107>  (349) 
0

$$$$
MCULE-8998858896
     RDKit          3D

 48 50  0  0  0  0  0  0  0  0999 V2000
   -8.6185    6.8507  -15.2433 O   0  0  0  0  0  0  0  0  0  0  0  0
   -8.0347    5.5599  -15.4024 C   0  0  0  0  0  0  0  0  0  0  0  0
   -7.7353    5.3286  -16.8609 C   0  0  0  0  0  0  0  0  0  0  0  0
   -6.4273    5.5447  -17.3298 C   0  0  0  0  0  0  0  0  0  0  0  0
   -6.1166    5.3601  -18.6782 C   0  0  0  0  0  0  0  0  0  0  0  0
   -7.1073    4.9660  -19.5766 C   0  0  0  0  0  0  0  0  0  0  0  0
   -8.4152    4.7634  -19.1323 C   0  0  0  0  0  0  0  0  0  0  0  0
   -8.7489    4.9551  -17.7799 C   0  0  0  0  0  0  0  0  0  0  0  0
  -10.1698    4.7254  -17.3348 C   0  0  0  0  0  0  0  0  0  0  0  0
   -8.8718    7.4507  -14.0032 C   0  0  0  0  0  0  0  0  0  0  0  0
   -8.8856    6.6864  -12.7403 C   0  0  0  0  0  0  0  0  0  0  0  0
   -8.1289    7.1297  -11.6459 C   0  0  0  0  0  0  0  0  0  0  0  0
   -8.1485    6.4214  -10.4410 C   0  0  0  0  0  0  0  0  0  0  0  0
   -8.9357    5.2649  -10.3089 C   0  0  0  0  0  0  0  0  0  0  0  0
   -8.9634    4.5309   -9.0698 N   0  0  0  0  0  0  0  0  0  0  0  0
   -8.6083    3.1092   -9.0579 C   0  0  0  0  0  0  0  0  0  0  0  0
   -9.4333    2.3678   -7.9977 C   0  0  0  0  0  0  0  0  0  0  0  0
   -9.3905    3.0307   -6.6779 N   0  0  0  0  0  0  0  0  0  0  0  0
   -8.0984    2.8499   -5.9947 C   0  0  0  0  0  0  0  0  0  0  0  0
   -9.7971    4.4490   -6.7564 C   0  0  0  0  0  0  0  0  0  0  0  0
   -8.9844    5.2425   -7.7891 C   0  0  0  0  0  0  0  0  0  0  0  0
   -9.7134    4.8395  -11.3974 C   0  0  0  0  0  0  0  0  0  0  0  0
   -9.6936    5.5482  -12.6018 C   0  0  0  0  0  0  0  0  0  0  0  0
   -9.0793    8.6921  -13.9657 O   0  0  0  0  0  0  0  0  0  0  0  0
   -7.1025    5.4973  -14.7988 H   0  0  0  0  0  0  0  0  0  0  0  0
   -8.7197    4.7716  -15.0332 H   0  0  0  0  0  0  0  0  0  0  0  0
   -5.6438    5.8552  -16.6495 H   0  0  0  0  0  0  0  0  0  0  0  0
   -5.1050    5.5232  -19.0270 H   0  0  0  0  0  0  0  0  0  0  0  0
   -6.8624    4.8203  -20.6208 H   0  0  0  0  0  0  0  0  0  0  0  0
   -9.1694    4.4600  -19.8481 H   0  0  0  0  0  0  0  0  0  0  0  0
  -10.5296    5.5879  -16.7359 H   0  0  0  0  0  0  0  0  0  0  0  0
  -10.2238    3.8020  -16.7211 H   0  0  0  0  0  0  0  0  0  0  0  0
  -10.8550    4.6091  -18.2013 H   0  0  0  0  0  0  0  0  0  0  0  0
   -7.5120    8.0162  -11.7297 H   0  0  0  0  0  0  0  0  0  0  0  0
   -7.5402    6.7687   -9.6157 H   0  0  0  0  0  0  0  0  0  0  0  0
   -7.5235    3.0024   -8.8466 H   0  0  0  0  0  0  0  0  0  0  0  0
   -8.7989    2.6410  -10.0471 H   0  0  0  0  0  0  0  0  0  0  0  0
  -10.4904    2.3172   -8.3395 H   0  0  0  0  0  0  0  0  0  0  0  0
   -9.0755    1.3180   -7.9157 H   0  0  0  0  0  0  0  0  0  0  0  0
   -7.8744    1.7675   -5.8845 H   0  0  0  0  0  0  0  0  0  0  0  0
   -7.2659    3.3328   -6.5470 H   0  0  0  0  0  0  0  0  0  0  0  0
   -8.1460    3.2808   -4.9720 H   0  0  0  0  0  0  0  0  0  0  0  0
  -10.8727    4.4977   -7.0352 H   0  0  0  0  0  0  0  0  0  0  0  0
   -9.7057    4.9341   -5.7598 H   0  0  0  0  0  0  0  0  0  0  0  0
   -9.4552    6.2427   -7.9110 H   0  0  0  0  0  0  0  0  0  0  0  0
   -7.9447    5.3951   -7.4298 H   0  0  0  0  0  0  0  0  0  0  0  0
  -10.3537    3.9715  -11.3052 H   0  0  0  0  0  0  0  0  0  0  0  0
  -10.3294    5.2227  -13.4155 H   0  0  0  0  0  0  0  0  0  0  0  0
  1  2  1  0
  2  3  1  0
  3  4  2  0
  4  5  1  0
  5  6  2  0
  6  7  1  0
  7  8  2  0
  8  9  1  0
  1 10  1  0
 10 11  1  0
 11 12  2  0
 12 13  1  0
 13 14  2  0
 14 15  1  0
 15 16  1  0
 16 17  1  0
 17 18  1  0
 18 19  1  0
 18 20  1  0
 20 21  1  0
 14 22  1  0
 22 23  2  0
 10 24  2  0
  3  8  1  0
 11 23  1  0
 21 15  1  0
  2 25  1  0
  2 26  1  0
  4 27  1  0
  5 28  1  0
  6 29  1  0
  7 30  1  0
  9 31  1  0
  9 32  1  0
  9 33  1  0
 12 34  1  0
 13 35  1  0
 16 36  1  0
 16 37  1  0
 17 38  1  0
 17 39  1  0
 19 40  1  0
 19 41  1  0
 19 42  1  0
 20 43  1  0
 20 44  1  0
 21 45  1  0
 21 46  1  0
 22 47  1  0
 23 48  1  0
A    1
 O1 
A    2
 C1 
A    3
 C2 
A    4
 C3 
A    5
 C4 
A    6
 C5 
A    7
 C6 
A    8
 C7 
A    9
 C8 
A   10
 C9 
A   11
 C10
A   12
 C11
A   13
 C12
A   14
 C13
A   15
 N1 
A   16
 C14
A   17
 C15
A   18
 N2 
A   19
 C16
A   20
 C17
A   21
 C18
A   22
 C19
A   23
 C20
A   24
 O2 
A   25
 H1 
A   26
 H2 
A   27
 H3 
A   28
 H4 
A   29
 H5 
A   30
 H6 
A   31
 H7 
A   32
 H8 
A   33
 H9 
A   34
 H10
A   35
 H11
A   36
 H12
A   37
 H13
A   38
 H14
A   39
 H15
A   40
 H16
A   41
 H17
A   42
 H18
A   43
 H19
A   44
 H20
A   45
 H21
A   46
 H22
A   47
 H23
A   48
 H24
M  END
>  <ref_pdb>  (350) 
x0051_0B

>  <ref_mols>  (350) 
x0605_0B,x0404_0B

>  <original SMILES>  (350) 
[H]c1c([H])c([H])c(C([H])([H])OC(=O)c2c([H])c([H])c(N3C([H])([H])C([H])([H])N(C([H])([H])[H])C([H])([H])C3([H])[H])c([H])c2[H])c(C([H])([H])[H])c1[H]

>  <index>  (350) 
351

>  <∆∆G>  (350) 
-8.959608

>  <∆G_bound>  (350) 
-8.521184

>  <∆G_unbound>  (350) 
0.438424

>  <comRMSD>  (350) 
0.804741

>  <N_constrained_atoms>  (350) 
24.0

>  <N_unconstrained_atoms>  (350) 
2.0

>  <runtime>  (350) 
99.24785

>  <LE>  (350) 
0.3446

>  <percent_hybrid>  (350) 
38.0

>  <dist>  (350) 
7.0

>  <ecfp4>  (350) 
0.25

>  <daylight>  (350) 
0.28655

>  <topodist>  (350) 
4.0

>  <mces>  (350) 
25.0

>  <tdn>  (350) 
3.0

>  <tup>  (350) 
1.0

>  <rdn>  (350) 
0.0

>  <rup>  (350) 
0.0

>  <ldn>  (350) 
0.0

>  <lup>  (350) 
0.0

>  <mut>  (350) 
3.0

>  <maj>  (350) 
3.0

>  <min>  (350) 
0.0

>  <hyb>  (350) 
0.0

>  <sub>  (350) 
2.0

>  <query_index>  (350) 
27.0

>  <max_hit_Tanimoto>  (350) 
0.333333

>  <largest_ring>  (350) 
6

>  <N_interactions_kept>  (350) 
1.0

>  <N_interactions_lost>  (350) 
3.0

>  <interaction_uniqueness_metric>  (350) 
0.316184

>  <ad_hoc_penalty>  (350) 
-20.439281

>  <N_rotatable_bonds>  (350) 
6

>  <N_HA>  (350) 
24

>  <cluster>  (350) 
5898

>  <N_interactions>  (350) 
8

>  <Enamine>  (350) 
0

>  <Mcule>  (350) 
1

>  <N_PAINS>  (350) 
0

>  <UFF_Gibbs>  (350) 
231.310553

>  <strain_per_HA>  (350) 
8.89656

>  <saltbridge:HIS:51>  (350) 
1

>  <pistack:HIS:51>  (350) 
1

>  <hydroph_interaction:HIS:51>  (350) 
1

>  <hbond:ALA:132>  (350) 
0

>  <hbond:SER:135>  (350) 
0

>  <hydroph_interaction:TYR:150>  (350) 
1

>  <pistack:TYR:161>  (350) 
1

>  <hydroph_interaction:TYR:161>  (350) 
1

>  <hydroph_interaction:ASP:83>  (350) 
0

>  <hbond:TYR:130>  (350) 
0

>  <hydroph_interaction:ALA:132>  (350) 
1

>  <hbond:HIS:51>  (350) 
0

>  <hbond:ASP:129>  (350) 
0

>  <hbond:TYR:150>  (350) 
0

>  <hbond:GLY:151>  (350) 
0

>  <hbond:TYR:161>  (350) 
0

>  <hydroph_interaction:TYR:130>  (350) 
0

>  <hydroph_interaction:PRO:131>  (350) 
0

>  <hydroph_interaction:ASP:129>  (350) 
0

>  <saltbridge:ASP:75>  (350) 
1

>  <saltbridge:ASP:83>  (350) 
0

>  <hydroph_interaction:ASN:152>  (350) 
0

>  <halogenbond:TYR:150>  (350) 
0

>  <hbond:ASP:83>  (350) 
0

>  <hydroph_interaction:VAL:155>  (350) 
0

>  <pication:TYR:161>  (350) 
0

>  <hbond:PRO:131>  (350) 
0

>  <hbond:LEU:128>  (350) 
0

>  <saltbridge:ASP:129>  (350) 
0

>  <hbond:THR:134>  (350) 
0

>  <pication:HIS:51>  (350) 
0

>  <hbond:SER:81>  (350) 
0

>  <hbond:GLY:159>  (350) 
0

>  <hydroph_interaction:PRO:101>  (350) 
0

>  <hydroph_interaction:THR:134>  (350) 
0

>  <hbond:GLY:82>  (350) 
0

>  <hydroph_interaction:GLU:104>  (350) 
0

>  <hydroph_interaction:VAL:36>  (350) 
0

>  <hydroph_interaction:MET:49>  (350) 
0

>  <halogenbond:GLU:104>  (350) 
0

>  <hydroph_interaction:LYS:107>  (350) 
0

$$$$
CSCS03437706644
     RDKit          3D

 33 35  0  0  0  0  0  0  0  0999 V2000
   -8.3600    6.2824   -8.5269 C   0  0  0  0  0  0  0  0  0  0  0  0
   -8.5457    5.7646   -9.9222 C   0  0  0  0  0  0  0  0  0  0  0  0
   -7.8104    4.6552  -10.3687 C   0  0  0  0  0  0  0  0  0  0  0  0
   -8.0100    4.1501  -11.6570 C   0  0  0  0  0  0  0  0  0  0  0  0
   -8.9501    4.7444  -12.5068 C   0  0  0  0  0  0  0  0  0  0  0  0
   -9.2113    4.0969  -14.1608 S   0  0  0  0  0  0  0  0  0  0  0  0
   -8.0410    5.2546  -14.9666 C   0  0  0  0  0  0  0  0  0  0  0  0
   -6.5781    4.7466  -14.8424 C   0  0  0  0  0  0  0  0  0  0  0  0
   -5.9882    4.3967  -16.4866 S   0  0  0  0  0  6  0  0  0  0  0  0
   -4.7780    5.2163  -16.8350 O   0  0  0  0  0  0  0  0  0  0  0  0
   -5.7441    2.9289  -16.6957 O   0  0  0  0  0  0  0  0  0  0  0  0
   -7.4004    4.9412  -17.3039 C   0  0  0  0  0  0  0  0  0  0  0  0
   -7.5772    4.9961  -18.6871 C   0  0  0  0  0  0  0  0  0  0  0  0
   -8.7840    5.4978  -19.1927 C   0  0  0  0  0  0  0  0  0  0  0  0
   -9.7864    5.9402  -18.3137 C   0  0  0  0  0  0  0  0  0  0  0  0
   -9.5857    5.8791  -16.9266 C   0  0  0  0  0  0  0  0  0  0  0  0
   -8.3802    5.3667  -16.4291 C   0  0  0  0  0  0  0  0  0  0  0  0
   -9.7049    5.8336  -12.0562 C   0  0  0  0  0  0  0  0  0  0  0  0
   -9.5067    6.3403  -10.7683 C   0  0  0  0  0  0  0  0  0  0  0  0
   -7.3149    6.1226   -8.1857 H   0  0  0  0  0  0  0  0  0  0  0  0
   -8.5727    7.3718   -8.4818 H   0  0  0  0  0  0  0  0  0  0  0  0
   -9.0507    5.7497   -7.8405 H   0  0  0  0  0  0  0  0  0  0  0  0
   -7.0842    4.1813   -9.7197 H   0  0  0  0  0  0  0  0  0  0  0  0
   -7.4378    3.2937  -11.9896 H   0  0  0  0  0  0  0  0  0  0  0  0
   -8.1283    6.2661  -14.5124 H   0  0  0  0  0  0  0  0  0  0  0  0
   -6.5028    3.8275  -14.2253 H   0  0  0  0  0  0  0  0  0  0  0  0
   -5.9409    5.5328  -14.3845 H   0  0  0  0  0  0  0  0  0  0  0  0
   -6.7964    4.6619  -19.3581 H   0  0  0  0  0  0  0  0  0  0  0  0
   -8.9419    5.5489  -20.2621 H   0  0  0  0  0  0  0  0  0  0  0  0
  -10.7155    6.3312  -18.7076 H   0  0  0  0  0  0  0  0  0  0  0  0
  -10.3574    6.2240  -16.2501 H   0  0  0  0  0  0  0  0  0  0  0  0
  -10.4430    6.2895  -12.7039 H   0  0  0  0  0  0  0  0  0  0  0  0
  -10.1012    7.1807  -10.4315 H   0  0  0  0  0  0  0  0  0  0  0  0
  1  2  1  0
  2  3  2  0
  3  4  1  0
  4  5  2  0
  5  6  1  0
  6  7  1  0
  7  8  1  0
  8  9  1  0
  9 10  2  0
  9 11  2  0
  9 12  1  0
 12 13  2  0
 13 14  1  0
 14 15  2  0
 15 16  1  0
 16 17  2  0
  5 18  1  0
 18 19  2  0
 19  2  1  0
 17  7  1  0
 17 12  1  0
  1 20  1  0
  1 21  1  0
  1 22  1  0
  3 23  1  0
  4 24  1  0
  7 25  1  0
  8 26  1  0
  8 27  1  0
 13 28  1  0
 14 29  1  0
 15 30  1  0
 16 31  1  0
 18 32  1  0
 19 33  1  0
A    1
 C1 
A    2
 C2 
A    3
 C3 
A    4
 C4 
A    5
 C5 
A    6
 S1 
A    7
 C6 
A    8
 C7 
A    9
 S2 
A   10
 O1 
A   11
 O2 
A   12
 C8 
A   13
 C9 
A   14
 C10
A   15
 C11
A   16
 C12
A   17
 C13
A   18
 C14
A   19
 C15
A   20
 H1 
A   21
 H2 
A   22
 H3 
A   23
 H4 
A   24
 H5 
A   25
 H6 
A   26
 H7 
A   27
 H8 
A   28
 H9 
A   29
 H10
A   30
 H11
A   31
 H12
A   32
 H13
A   33
 H14
M  END
>  <ref_pdb>  (351) 
x0051_0B

>  <ref_mols>  (351) 
x1098_0B,x0455_0B

>  <original SMILES>  (351) 
[H]c1c([H])c([H])c2c(c1[H])C([H])(Sc1c([H])c([H])c(C([H])([H])[H])c([H])c1[H])C([H])([H])S2(=O)=O

>  <index>  (351) 
582

>  <∆∆G>  (351) 
-7.652226

>  <∆G_bound>  (351) 
-7.56563

>  <∆G_unbound>  (351) 
0.086596

>  <comRMSD>  (351) 
0.682583

>  <N_constrained_atoms>  (351) 
18.0

>  <N_unconstrained_atoms>  (351) 
2.0

>  <runtime>  (351) 
72.365422

>  <LE>  (351) 
0.382611

>  <percent_hybrid>  (351) 
12.0

>  <dist>  (351) 
9.0

>  <ecfp4>  (351) 
0.097222

>  <daylight>  (351) 
0.126087

>  <topodist>  (351) 
3.0

>  <mces>  (351) 
20.0

>  <tdn>  (351) 
1.0

>  <tup>  (351) 
0.0

>  <rdn>  (351) 
0.0

>  <rup>  (351) 
0.0

>  <ldn>  (351) 
1.0

>  <lup>  (351) 
1.0

>  <mut>  (351) 
6.0

>  <maj>  (351) 
6.0

>  <min>  (351) 
0.0

>  <hyb>  (351) 
0.0

>  <sub>  (351) 
1.0

>  <query_index>  (351) 
72.0

>  <max_hit_Tanimoto>  (351) 
0.202128

>  <largest_ring>  (351) 
6

>  <N_interactions_kept>  (351) 
3.0

>  <N_interactions_lost>  (351) 
2.0

>  <interaction_uniqueness_metric>  (351) 
0.116343

>  <ad_hoc_penalty>  (351) 
-20.412972

>  <N_rotatable_bonds>  (351) 
3

>  <N_HA>  (351) 
19

>  <cluster>  (351) 
5686

>  <N_interactions>  (351) 
5

>  <Enamine>  (351) 
1

>  <Mcule>  (351) 
0

>  <N_PAINS>  (351) 
0

>  <UFF_Gibbs>  (351) 
73.453726

>  <strain_per_HA>  (351) 
3.672686

>  <saltbridge:HIS:51>  (351) 
0

>  <pistack:HIS:51>  (351) 
1

>  <hydroph_interaction:HIS:51>  (351) 
1

>  <hbond:ALA:132>  (351) 
0

>  <hbond:SER:135>  (351) 
0

>  <hydroph_interaction:TYR:150>  (351) 
1

>  <pistack:TYR:161>  (351) 
1

>  <hydroph_interaction:TYR:161>  (351) 
0

>  <hydroph_interaction:ASP:83>  (351) 
0

>  <hbond:TYR:130>  (351) 
0

>  <hydroph_interaction:ALA:132>  (351) 
1

>  <hbond:HIS:51>  (351) 
0

>  <hbond:ASP:129>  (351) 
0

>  <hbond:TYR:150>  (351) 
0

>  <hbond:GLY:151>  (351) 
0

>  <hbond:TYR:161>  (351) 
0

>  <hydroph_interaction:TYR:130>  (351) 
0

>  <hydroph_interaction:PRO:131>  (351) 
0

>  <hydroph_interaction:ASP:129>  (351) 
0

>  <saltbridge:ASP:75>  (351) 
0

>  <saltbridge:ASP:83>  (351) 
0

>  <hydroph_interaction:ASN:152>  (351) 
0

>  <halogenbond:TYR:150>  (351) 
0

>  <hbond:ASP:83>  (351) 
0

>  <hydroph_interaction:VAL:155>  (351) 
0

>  <pication:TYR:161>  (351) 
0

>  <hbond:PRO:131>  (351) 
0

>  <hbond:LEU:128>  (351) 
0

>  <saltbridge:ASP:129>  (351) 
0

>  <hbond:THR:134>  (351) 
0

>  <pication:HIS:51>  (351) 
0

>  <hbond:SER:81>  (351) 
0

>  <hbond:GLY:159>  (351) 
0

>  <hydroph_interaction:PRO:101>  (351) 
0

>  <hydroph_interaction:THR:134>  (351) 
0

>  <hbond:GLY:82>  (351) 
0

>  <hydroph_interaction:GLU:104>  (351) 
0

>  <hydroph_interaction:VAL:36>  (351) 
0

>  <hydroph_interaction:MET:49>  (351) 
0

>  <halogenbond:GLU:104>  (351) 
0

>  <hydroph_interaction:LYS:107>  (351) 
0

$$$$
PV-002529810358
     RDKit          3D

 56 58  0  0  0  0  0  0  0  0999 V2000
   -9.8159    4.2770  -18.7248 C   0  0  0  0  0  0  0  0  0  0  0  0
   -8.9244    5.0514  -17.7436 C   0  0  1  0  0  0  0  0  0  0  0  0
   -8.3501    6.3380  -18.3972 C   0  0  0  0  0  0  0  0  0  0  0  0
   -6.8450    6.2380  -18.7422 C   0  0  0  0  0  0  0  0  0  0  0  0
   -6.5780    5.1925  -19.8494 C   0  0  0  0  0  0  0  0  0  0  0  0
   -5.0911    5.1435  -20.2230 C   0  0  0  0  0  0  0  0  0  0  0  0
   -4.5857    6.5219  -20.6576 C   0  0  0  0  0  0  0  0  0  0  0  0
   -4.8326    7.5630  -19.5615 C   0  0  0  0  0  0  0  0  0  0  0  0
   -6.3169    7.6221  -19.1795 C   0  0  0  0  0  0  0  0  0  0  0  0
   -9.6974    5.3955  -16.5454 N   0  0  0  0  0  0  0  0  0  0  0  0
   -9.0726    5.6739  -15.2846 C   0  0  0  0  0  0  0  0  0  0  0  0
   -7.8141    5.6762  -15.1877 O   0  0  0  0  0  0  0  0  0  0  0  0
   -9.8866    5.9457  -14.1347 N   0  0  0  0  0  0  0  0  0  0  0  0
   -9.3254    6.2260  -12.8137 C   0  0  0  0  0  0  0  0  0  0  0  0
   -8.7296    4.9534  -12.1984 C   0  0  0  0  0  0  0  0  0  0  0  0
   -8.4085    5.1409  -10.7418 C   0  0  0  0  0  0  0  0  0  0  0  0
   -8.5706    4.2267   -9.7185 C   0  0  0  0  0  0  0  0  0  0  0  0
   -9.2167    2.8729   -9.7805 C   0  0  0  0  0  0  0  0  0  0  0  0
   -8.8680    2.0553   -8.5256 C   0  0  0  0  0  0  0  0  0  0  0  0
   -9.0177    2.8986   -7.2499 C   0  0  0  0  0  0  0  0  0  0  0  0
   -8.0708    4.1092   -7.2781 C   0  0  0  0  0  0  0  0  0  0  0  0
   -8.1338    4.7837   -8.5737 N   0  0  0  0  0  0  0  0  0  0  0  0
   -7.6378    5.9865   -8.8180 N   0  0  0  0  0  0  0  0  0  0  0  0
   -7.7934    6.2307  -10.1379 C   0  0  0  0  0  0  0  0  0  0  0  0
  -10.2061    3.3620  -18.2331 H   0  0  0  0  0  0  0  0  0  0  0  0
   -9.2428    3.9725  -19.6250 H   0  0  0  0  0  0  0  0  0  0  0  0
  -10.6766    4.9019  -19.0449 H   0  0  0  0  0  0  0  0  0  0  0  0
   -8.1027    4.3634  -17.4406 H   0  0  0  0  0  0  0  0  0  0  0  0
   -8.4882    7.1920  -17.6981 H   0  0  0  0  0  0  0  0  0  0  0  0
   -8.9180    6.6019  -19.3145 H   0  0  0  0  0  0  0  0  0  0  0  0
   -6.2922    5.9325  -17.8240 H   0  0  0  0  0  0  0  0  0  0  0  0
   -6.8720    4.1811  -19.4993 H   0  0  0  0  0  0  0  0  0  0  0  0
   -7.1773    5.4349  -20.7545 H   0  0  0  0  0  0  0  0  0  0  0  0
   -4.4981    4.7878  -19.3525 H   0  0  0  0  0  0  0  0  0  0  0  0
   -4.9458    4.4213  -21.0555 H   0  0  0  0  0  0  0  0  0  0  0  0
   -5.0994    6.8310  -21.5936 H   0  0  0  0  0  0  0  0  0  0  0  0
   -3.4979    6.4621  -20.8656 H   0  0  0  0  0  0  0  0  0  0  0  0
   -4.2268    7.3138  -18.6620 H   0  0  0  0  0  0  0  0  0  0  0  0
   -4.5076    8.5623  -19.9230 H   0  0  0  0  0  0  0  0  0  0  0  0
   -6.9057    7.9981  -20.0492 H   0  0  0  0  0  0  0  0  0  0  0  0
   -6.4349    8.3487  -18.3433 H   0  0  0  0  0  0  0  0  0  0  0  0
  -10.7398    5.4561  -16.6055 H   0  0  0  0  0  0  0  0  0  0  0  0
  -10.9233    5.9802  -14.2499 H   0  0  0  0  0  0  0  0  0  0  0  0
   -8.5504    7.0210  -12.8968 H   0  0  0  0  0  0  0  0  0  0  0  0
  -10.1401    6.6057  -12.1565 H   0  0  0  0  0  0  0  0  0  0  0  0
   -7.7981    4.6691  -12.7340 H   0  0  0  0  0  0  0  0  0  0  0  0
   -9.4622    4.1219  -12.3089 H   0  0  0  0  0  0  0  0  0  0  0  0
   -8.8733    2.3272  -10.6841 H   0  0  0  0  0  0  0  0  0  0  0  0
  -10.3189    3.0061   -9.8417 H   0  0  0  0  0  0  0  0  0  0  0  0
   -9.5395    1.1720   -8.4652 H   0  0  0  0  0  0  0  0  0  0  0  0
   -7.8217    1.6850   -8.6015 H   0  0  0  0  0  0  0  0  0  0  0  0
  -10.0688    3.2533   -7.1653 H   0  0  0  0  0  0  0  0  0  0  0  0
   -8.7910    2.2723   -6.3600 H   0  0  0  0  0  0  0  0  0  0  0  0
   -7.0281    3.7665   -7.0979 H   0  0  0  0  0  0  0  0  0  0  0  0
   -8.3531    4.8195   -6.4730 H   0  0  0  0  0  0  0  0  0  0  0  0
   -7.4751    7.1411  -10.6286 H   0  0  0  0  0  0  0  0  0  0  0  0
  1  2  1  0
  2  3  1  0
  3  4  1  0
  4  5  1  0
  5  6  1  0
  6  7  1  0
  7  8  1  0
  8  9  1  0
  2 10  1  0
 10 11  1  0
 11 12  2  0
 11 13  1  0
 13 14  1  0
 14 15  1  0
 15 16  1  0
 16 17  2  0
 17 18  1  0
 18 19  1  0
 19 20  1  0
 20 21  1  0
 21 22  1  0
 22 23  1  0
 23 24  2  0
  9  4  1  0
 24 16  1  0
 22 17  1  0
  1 25  1  0
  1 26  1  0
  1 27  1  0
  2 28  1  1
  3 29  1  0
  3 30  1  0
  4 31  1  0
  5 32  1  0
  5 33  1  0
  6 34  1  0
  6 35  1  0
  7 36  1  0
  7 37  1  0
  8 38  1  0
  8 39  1  0
  9 40  1  0
  9 41  1  0
 10 42  1  0
 13 43  1  0
 14 44  1  0
 14 45  1  0
 15 46  1  0
 15 47  1  0
 18 48  1  0
 18 49  1  0
 19 50  1  0
 19 51  1  0
 20 52  1  0
 20 53  1  0
 21 54  1  0
 21 55  1  0
 24 56  1  0
A    1
 C1 
A    2
 C2 
A    3
 C3 
A    4
 C4 
A    5
 C5 
A    6
 C6 
A    7
 C7 
A    8
 C8 
A    9
 C9 
A   10
 N1 
A   11
 C10
A   12
 O1 
A   13
 N2 
A   14
 C11
A   15
 C12
A   16
 C13
A   17
 C14
A   18
 C15
A   19
 C16
A   20
 C17
A   21
 C18
A   22
 N3 
A   23
 N4 
A   24
 C19
A   25
 H1 
A   26
 H2 
A   27
 H3 
A   28
 H4 
A   29
 H5 
A   30
 H6 
A   31
 H7 
A   32
 H8 
A   33
 H9 
A   34
 H10
A   35
 H11
A   36
 H12
A   37
 H13
A   38
 H14
A   39
 H15
A   40
 H16
A   41
 H17
A   42
 H18
A   43
 H19
A   44
 H20
A   45
 H21
A   46
 H22
A   47
 H23
A   48
 H24
A   49
 H25
A   50
 H26
A   51
 H27
A   52
 H28
A   53
 H29
A   54
 H30
A   55
 H31
A   56
 H32
M  END
>  <ref_pdb>  (352) 
x0051_0B

>  <ref_mols>  (352) 
x0969_1B,x0803_0B

>  <original SMILES>  (352) 
[H]c1nn2c(c1C([H])([H])C([H])([H])N([H])C(=O)N([H])[C@@]([H])(C([H])([H])[H])C([H])([H])C1([H])C([H])([H])C([H])([H])C([H])([H])C([H])([H])C1([H])[H])C([H])([H])C([H])([H])C([H])([H])C2([H])[H]

>  <index>  (352) 
490

>  <∆∆G>  (352) 
-6.601496

>  <∆G_bound>  (352) 
-5.220449

>  <∆G_unbound>  (352) 
1.381047

>  <comRMSD>  (352) 
0.706992

>  <N_constrained_atoms>  (352) 
22.0

>  <N_unconstrained_atoms>  (352) 
2.0

>  <runtime>  (352) 
73.964389

>  <LE>  (352) 
0.275062

>  <percent_hybrid>  (352) 
46.0

>  <dist>  (352) 
10.0

>  <ecfp4>  (352) 
0.2375

>  <daylight>  (352) 
0.279863

>  <topodist>  (352) 
1.0

>  <mces>  (352) 
26.0

>  <tdn>  (352) 
0.0

>  <tup>  (352) 
0.0

>  <rdn>  (352) 
1.0

>  <rup>  (352) 
0.0

>  <ldn>  (352) 
0.0

>  <lup>  (352) 
0.0

>  <mut>  (352) 
6.0

>  <maj>  (352) 
6.0

>  <min>  (352) 
0.0

>  <hyb>  (352) 
3.0

>  <sub>  (352) 
0.0

>  <query_index>  (352) 
360.0

>  <max_hit_Tanimoto>  (352) 
0.350446

>  <largest_ring>  (352) 
6

>  <N_interactions_kept>  (352) 
5.0

>  <N_interactions_lost>  (352) 
1.0

>  <interaction_uniqueness_metric>  (352) 
0.144425

>  <ad_hoc_penalty>  (352) 
-20.411052

>  <N_rotatable_bonds>  (352) 
7

>  <N_HA>  (352) 
24

>  <cluster>  (352) 
5771

>  <N_interactions>  (352) 
6

>  <Enamine>  (352) 
1

>  <Mcule>  (352) 
0

>  <N_PAINS>  (352) 
0

>  <UFF_Gibbs>  (352) 
120.777165

>  <strain_per_HA>  (352) 
5.032382

>  <saltbridge:HIS:51>  (352) 
0

>  <pistack:HIS:51>  (352) 
1

>  <hydroph_interaction:HIS:51>  (352) 
0

>  <hbond:ALA:132>  (352) 
0

>  <hbond:SER:135>  (352) 
0

>  <hydroph_interaction:TYR:150>  (352) 
1

>  <pistack:TYR:161>  (352) 
0

>  <hydroph_interaction:TYR:161>  (352) 
3

>  <hydroph_interaction:ASP:83>  (352) 
1

>  <hbond:TYR:130>  (352) 
0

>  <hydroph_interaction:ALA:132>  (352) 
0

>  <hbond:HIS:51>  (352) 
0

>  <hbond:ASP:129>  (352) 
0

>  <hbond:TYR:150>  (352) 
0

>  <hbond:GLY:151>  (352) 
0

>  <hbond:TYR:161>  (352) 
0

>  <hydroph_interaction:TYR:130>  (352) 
0

>  <hydroph_interaction:PRO:131>  (352) 
0

>  <hydroph_interaction:ASP:129>  (352) 
0

>  <saltbridge:ASP:75>  (352) 
0

>  <saltbridge:ASP:83>  (352) 
0

>  <hydroph_interaction:ASN:152>  (352) 
0

>  <halogenbond:TYR:150>  (352) 
0

>  <hbond:ASP:83>  (352) 
0

>  <hydroph_interaction:VAL:155>  (352) 
0

>  <pication:TYR:161>  (352) 
0

>  <hbond:PRO:131>  (352) 
0

>  <hbond:LEU:128>  (352) 
0

>  <saltbridge:ASP:129>  (352) 
0

>  <hbond:THR:134>  (352) 
0

>  <pication:HIS:51>  (352) 
0

>  <hbond:SER:81>  (352) 
0

>  <hbond:GLY:159>  (352) 
0

>  <hydroph_interaction:PRO:101>  (352) 
0

>  <hydroph_interaction:THR:134>  (352) 
0

>  <hbond:GLY:82>  (352) 
0

>  <hydroph_interaction:GLU:104>  (352) 
0

>  <hydroph_interaction:VAL:36>  (352) 
0

>  <hydroph_interaction:MET:49>  (352) 
0

>  <halogenbond:GLU:104>  (352) 
0

>  <hydroph_interaction:LYS:107>  (352) 
0

$$$$
MCULE-8625907228
     RDKit          3D

 44 47  0  0  0  0  0  0  0  0999 V2000
   -9.3093    6.1528  -15.3574 O   0  0  0  0  0  0  0  0  0  0  0  0
   -8.5239    4.9637  -15.4094 C   0  0  0  0  0  0  0  0  0  0  0  0
   -8.2512    4.6178  -16.8422 C   0  0  0  0  0  0  0  0  0  0  0  0
   -8.9835    3.6125  -17.5127 C   0  0  0  0  0  0  0  0  0  0  0  0
   -8.7276    3.3298  -18.8737 C   0  0  0  0  0  0  0  0  0  0  0  0
   -7.7503    4.0541  -19.5798 C   0  0  0  0  0  0  0  0  0  0  0  0
   -7.0586    5.0480  -18.8935 C   0  0  0  0  0  0  0  0  0  0  0  0
   -6.0718    5.8907  -19.3680 O   0  0  0  0  0  0  0  0  0  0  0  0
   -5.6620    6.7457  -18.2911 C   0  0  0  0  0  0  0  0  0  0  0  0
   -6.4706    6.3514  -17.1737 O   0  0  0  0  0  0  0  0  0  0  0  0
   -7.2977    5.3211  -17.5841 C   0  0  0  0  0  0  0  0  0  0  0  0
   -9.5791    6.8624  -14.1796 C   0  0  0  0  0  0  0  0  0  0  0  0
   -9.4232    6.2614  -12.8398 C   0  0  0  0  0  0  0  0  0  0  0  0
   -8.6963    6.9380  -11.8492 C   0  0  0  0  0  0  0  0  0  0  0  0
   -8.5512    6.3803  -10.5753 C   0  0  0  0  0  0  0  0  0  0  0  0
   -9.1364    5.1403  -10.2689 C   0  0  0  0  0  0  0  0  0  0  0  0
   -8.9853    4.5725   -8.9524 N   0  0  0  0  0  0  0  0  0  0  0  0
  -10.1002    3.8559   -8.3250 C   0  0  0  0  0  0  0  0  0  0  0  0
   -9.9663    3.9203   -6.7999 C   0  0  0  0  0  0  0  0  0  0  0  0
   -8.6837    3.4876   -6.3883 O   0  0  0  0  0  0  0  0  0  0  0  0
   -7.6990    4.3824   -6.8710 C   0  0  0  0  0  0  0  0  0  0  0  0
   -7.6427    4.3553   -8.4023 C   0  0  0  0  0  0  0  0  0  0  0  0
   -9.8883    4.4794  -11.2556 C   0  0  0  0  0  0  0  0  0  0  0  0
  -10.0350    5.0389  -12.5280 C   0  0  0  0  0  0  0  0  0  0  0  0
   -9.9466    8.0637  -14.2703 O   0  0  0  0  0  0  0  0  0  0  0  0
   -7.5596    5.1266  -14.8793 H   0  0  0  0  0  0  0  0  0  0  0  0
   -9.0569    4.1255  -14.9143 H   0  0  0  0  0  0  0  0  0  0  0  0
   -9.7457    3.0478  -16.9883 H   0  0  0  0  0  0  0  0  0  0  0  0
   -9.2883    2.5537  -19.3767 H   0  0  0  0  0  0  0  0  0  0  0  0
   -7.5458    3.8493  -20.6229 H   0  0  0  0  0  0  0  0  0  0  0  0
   -5.8566    7.8081  -18.5488 H   0  0  0  0  0  0  0  0  0  0  0  0
   -4.5875    6.5835  -18.0619 H   0  0  0  0  0  0  0  0  0  0  0  0
   -8.2358    7.8949  -12.0649 H   0  0  0  0  0  0  0  0  0  0  0  0
   -7.9964    6.9260   -9.8227 H   0  0  0  0  0  0  0  0  0  0  0  0
  -10.0878    2.7943   -8.6533 H   0  0  0  0  0  0  0  0  0  0  0  0
  -11.0700    4.3133   -8.6205 H   0  0  0  0  0  0  0  0  0  0  0  0
  -10.1797    4.9506   -6.4328 H   0  0  0  0  0  0  0  0  0  0  0  0
  -10.7279    3.2495   -6.3476 H   0  0  0  0  0  0  0  0  0  0  0  0
   -6.7106    4.0691   -6.4733 H   0  0  0  0  0  0  0  0  0  0  0  0
   -7.8840    5.4186   -6.5063 H   0  0  0  0  0  0  0  0  0  0  0  0
   -7.2666    3.3657   -8.7428 H   0  0  0  0  0  0  0  0  0  0  0  0
   -6.9327    5.1361   -8.7482 H   0  0  0  0  0  0  0  0  0  0  0  0
  -10.3573    3.5278  -11.0443 H   0  0  0  0  0  0  0  0  0  0  0  0
  -10.6433    4.5259  -13.2617 H   0  0  0  0  0  0  0  0  0  0  0  0
  1  2  1  0
  2  3  1  0
  3  4  2  0
  4  5  1  0
  5  6  2  0
  6  7  1  0
  7  8  1  0
  8  9  1  0
  9 10  1  0
 10 11  1  0
  1 12  1  0
 12 13  1  0
 13 14  2  0
 14 15  1  0
 15 16  2  0
 16 17  1  0
 17 18  1  0
 18 19  1  0
 19 20  1  0
 20 21  1  0
 21 22  1  0
 16 23  1  0
 23 24  2  0
 12 25  2  0
  3 11  1  0
 11  7  2  0
 13 24  1  0
 22 17  1  0
  2 26  1  0
  2 27  1  0
  4 28  1  0
  5 29  1  0
  6 30  1  0
  9 31  1  0
  9 32  1  0
 14 33  1  0
 15 34  1  0
 18 35  1  0
 18 36  1  0
 19 37  1  0
 19 38  1  0
 21 39  1  0
 21 40  1  0
 22 41  1  0
 22 42  1  0
 23 43  1  0
 24 44  1  0
A    1
 O1 
A    2
 C1 
A    3
 C2 
A    4
 C3 
A    5
 C4 
A    6
 C5 
A    7
 C6 
A    8
 O2 
A    9
 C7 
A   10
 O3 
A   11
 C8 
A   12
 C9 
A   13
 C10
A   14
 C11
A   15
 C12
A   16
 C13
A   17
 N1 
A   18
 C14
A   19
 C15
A   20
 O4 
A   21
 C16
A   22
 C17
A   23
 C18
A   24
 C19
A   25
 O5 
A   26
 H1 
A   27
 H2 
A   28
 H3 
A   29
 H4 
A   30
 H5 
A   31
 H6 
A   32
 H7 
A   33
 H8 
A   34
 H9 
A   35
 H10
A   36
 H11
A   37
 H12
A   38
 H13
A   39
 H14
A   40
 H15
A   41
 H16
A   42
 H17
A   43
 H18
A   44
 H19
M  END
>  <ref_pdb>  (353) 
x0051_0B

>  <ref_mols>  (353) 
x0089_0B,x0404_0B

>  <original SMILES>  (353) 
[H]c1c([H])c2c(c(C([H])([H])OC(=O)c3c([H])c([H])c(N4C([H])([H])C([H])([H])OC([H])([H])C4([H])[H])c([H])c3[H])c1[H])OC([H])([H])O2

>  <index>  (353) 
662

>  <∆∆G>  (353) 
-7.3429

>  <∆G_bound>  (353) 
-6.744654

>  <∆G_unbound>  (353) 
0.598245

>  <comRMSD>  (353) 
0.616007

>  <N_constrained_atoms>  (353) 
25.0

>  <N_unconstrained_atoms>  (353) 
1.0

>  <runtime>  (353) 
276.328109

>  <LE>  (353) 
0.282419

>  <percent_hybrid>  (353) 
40.0

>  <dist>  (353) 
12.0

>  <ecfp4>  (353) 
0.214286

>  <daylight>  (353) 
0.155556

>  <topodist>  (353) 
5.0

>  <mces>  (353) 
28.0

>  <tdn>  (353) 
5.0

>  <tup>  (353) 
0.0

>  <rdn>  (353) 
0.0

>  <rup>  (353) 
0.0

>  <ldn>  (353) 
0.0

>  <lup>  (353) 
0.0

>  <mut>  (353) 
6.0

>  <maj>  (353) 
6.0

>  <min>  (353) 
0.0

>  <hyb>  (353) 
1.0

>  <sub>  (353) 
0.0

>  <query_index>  (353) 
3.0

>  <max_hit_Tanimoto>  (353) 
0.217337

>  <largest_ring>  (353) 
6

>  <N_interactions_kept>  (353) 
2.0

>  <N_interactions_lost>  (353) 
2.5

>  <interaction_uniqueness_metric>  (353) 
0.201043

>  <ad_hoc_penalty>  (353) 
-20.407222

>  <N_rotatable_bonds>  (353) 
4

>  <N_HA>  (353) 
25

>  <cluster>  (353) 
5612

>  <N_interactions>  (353) 
6

>  <Enamine>  (353) 
0

>  <Mcule>  (353) 
1

>  <N_PAINS>  (353) 
0

>  <UFF_Gibbs>  (353) 
87.351581

>  <strain_per_HA>  (353) 
3.359676

>  <saltbridge:HIS:51>  (353) 
1

>  <pistack:HIS:51>  (353) 
1

>  <hydroph_interaction:HIS:51>  (353) 
1

>  <hbond:ALA:132>  (353) 
0

>  <hbond:SER:135>  (353) 
0

>  <hydroph_interaction:TYR:150>  (353) 
1

>  <pistack:TYR:161>  (353) 
0

>  <hydroph_interaction:TYR:161>  (353) 
1

>  <hydroph_interaction:ASP:83>  (353) 
0

>  <hbond:TYR:130>  (353) 
0

>  <hydroph_interaction:ALA:132>  (353) 
1

>  <hbond:HIS:51>  (353) 
0

>  <hbond:ASP:129>  (353) 
0

>  <hbond:TYR:150>  (353) 
0

>  <hbond:GLY:151>  (353) 
0

>  <hbond:TYR:161>  (353) 
0

>  <hydroph_interaction:TYR:130>  (353) 
0

>  <hydroph_interaction:PRO:131>  (353) 
0

>  <hydroph_interaction:ASP:129>  (353) 
0

>  <saltbridge:ASP:75>  (353) 
0

>  <saltbridge:ASP:83>  (353) 
0

>  <hydroph_interaction:ASN:152>  (353) 
0

>  <halogenbond:TYR:150>  (353) 
0

>  <hbond:ASP:83>  (353) 
0

>  <hydroph_interaction:VAL:155>  (353) 
0

>  <pication:TYR:161>  (353) 
0

>  <hbond:PRO:131>  (353) 
0

>  <hbond:LEU:128>  (353) 
0

>  <saltbridge:ASP:129>  (353) 
0

>  <hbond:THR:134>  (353) 
0

>  <pication:HIS:51>  (353) 
0

>  <hbond:SER:81>  (353) 
0

>  <hbond:GLY:159>  (353) 
0

>  <hydroph_interaction:PRO:101>  (353) 
0

>  <hydroph_interaction:THR:134>  (353) 
0

>  <hbond:GLY:82>  (353) 
0

>  <hydroph_interaction:GLU:104>  (353) 
0

>  <hydroph_interaction:VAL:36>  (353) 
0

>  <hydroph_interaction:MET:49>  (353) 
0

>  <halogenbond:GLU:104>  (353) 
0

>  <hydroph_interaction:LYS:107>  (353) 
0

$$$$
BVIDOPBENIRTLO-UHFFFAOYSA-N
     RDKit          3D

 47 49  0  0  0  0  0  0  0  0999 V2000
   -8.2714    5.7475  -14.4169 C   0  0  0  0  0  0  0  0  0  0  0  0
   -8.3031    4.7800  -15.4778 N   0  0  0  0  0  0  0  0  0  0  0  0
   -7.9157    5.1121  -16.8208 C   0  0  0  0  0  0  0  0  0  0  0  0
   -6.5774    5.4678  -17.1168 C   0  0  0  0  0  0  0  0  0  0  0  0
   -5.5177    5.5011  -16.0480 C   0  0  0  0  0  0  0  0  0  0  0  0
   -6.2292    5.8119  -18.4321 C   0  0  0  0  0  0  0  0  0  0  0  0
   -7.1786    5.7615  -19.4520 C   0  0  0  0  0  0  0  0  0  0  0  0
   -8.4888    5.3759  -19.1724 C   0  0  0  0  0  0  0  0  0  0  0  0
   -8.8713    5.0552  -17.8606 C   0  0  0  0  0  0  0  0  0  0  0  0
  -10.2928    4.6500  -17.5793 C   0  0  0  0  0  0  0  0  0  0  0  0
   -8.1232    6.9696  -14.6944 O   0  0  0  0  0  0  0  0  0  0  0  0
   -8.4352    5.3343  -13.0028 C   0  0  0  0  0  0  0  0  0  0  0  0
   -8.8307    6.2731  -12.0338 C   0  0  0  0  0  0  0  0  0  0  0  0
   -8.9809    5.8940  -10.6971 C   0  0  0  0  0  0  0  0  0  0  0  0
   -8.7310    4.5721  -10.3004 C   0  0  0  0  0  0  0  0  0  0  0  0
   -8.8907    4.1875   -8.9217 N   0  0  0  0  0  0  0  0  0  0  0  0
   -9.5201    2.9060   -8.5769 C   0  0  0  0  0  0  0  0  0  0  0  0
  -10.3862    3.0619   -7.3228 C   0  0  0  0  0  0  0  0  0  0  0  0
   -9.5915    3.7104   -6.1839 C   0  0  0  0  0  0  0  0  0  0  0  0
   -9.0120    5.0591   -6.6243 C   0  0  0  0  0  0  0  0  0  0  0  0
   -8.1426    4.8942   -7.8735 C   0  0  0  0  0  0  0  0  0  0  0  0
   -8.3281    3.6339  -11.2639 C   0  0  0  0  0  0  0  0  0  0  0  0
   -8.1775    4.0114  -12.6012 C   0  0  0  0  0  0  0  0  0  0  0  0
   -8.7931    3.8716  -15.3188 H   0  0  0  0  0  0  0  0  0  0  0  0
   -5.6682    4.6774  -15.3186 H   0  0  0  0  0  0  0  0  0  0  0  0
   -4.5054    5.3739  -16.4875 H   0  0  0  0  0  0  0  0  0  0  0  0
   -5.5528    6.4749  -15.5174 H   0  0  0  0  0  0  0  0  0  0  0  0
   -5.2153    6.1074  -18.6726 H   0  0  0  0  0  0  0  0  0  0  0  0
   -6.8960    6.0172  -20.4651 H   0  0  0  0  0  0  0  0  0  0  0  0
   -9.2077    5.3353  -19.9814 H   0  0  0  0  0  0  0  0  0  0  0  0
  -10.3291    3.5684  -17.3320 H   0  0  0  0  0  0  0  0  0  0  0  0
  -10.6932    5.2351  -16.7245 H   0  0  0  0  0  0  0  0  0  0  0  0
  -10.9508    4.8333  -18.4554 H   0  0  0  0  0  0  0  0  0  0  0  0
   -9.0369    7.2994  -12.3114 H   0  0  0  0  0  0  0  0  0  0  0  0
   -9.3075    6.6289   -9.9722 H   0  0  0  0  0  0  0  0  0  0  0  0
   -8.7309    2.1436   -8.3981 H   0  0  0  0  0  0  0  0  0  0  0  0
  -10.1673    2.5521   -9.4092 H   0  0  0  0  0  0  0  0  0  0  0  0
  -11.2712    3.6916   -7.5623 H   0  0  0  0  0  0  0  0  0  0  0  0
  -10.7507    2.0634   -6.9987 H   0  0  0  0  0  0  0  0  0  0  0  0
  -10.2612    3.8659   -5.3109 H   0  0  0  0  0  0  0  0  0  0  0  0
   -8.7675    3.0329   -5.8688 H   0  0  0  0  0  0  0  0  0  0  0  0
   -9.8411    5.7676   -6.8426 H   0  0  0  0  0  0  0  0  0  0  0  0
   -8.3998    5.4859   -5.8010 H   0  0  0  0  0  0  0  0  0  0  0  0
   -7.2309    4.3105   -7.6200 H   0  0  0  0  0  0  0  0  0  0  0  0
   -7.8147    5.8980   -8.2188 H   0  0  0  0  0  0  0  0  0  0  0  0
   -8.1120    2.6127  -10.9767 H   0  0  0  0  0  0  0  0  0  0  0  0
   -7.8370    3.2698  -13.3117 H   0  0  0  0  0  0  0  0  0  0  0  0
  1  2  1  0
  2  3  1  0
  3  4  2  0
  4  5  1  0
  4  6  1  0
  6  7  2  0
  7  8  1  0
  8  9  2  0
  9 10  1  0
  1 11  2  0
  1 12  1  0
 12 13  2  0
 13 14  1  0
 14 15  2  0
 15 16  1  0
 16 17  1  0
 17 18  1  0
 18 19  1  0
 19 20  1  0
 20 21  1  0
 15 22  1  0
 22 23  2  0
  9  3  1  0
 23 12  1  0
 21 16  1  0
  2 24  1  0
  5 25  1  0
  5 26  1  0
  5 27  1  0
  6 28  1  0
  7 29  1  0
  8 30  1  0
 10 31  1  0
 10 32  1  0
 10 33  1  0
 13 34  1  0
 14 35  1  0
 17 36  1  0
 17 37  1  0
 18 38  1  0
 18 39  1  0
 19 40  1  0
 19 41  1  0
 20 42  1  0
 20 43  1  0
 21 44  1  0
 21 45  1  0
 22 46  1  0
 23 47  1  0
A    1
 C1 
A    2
 N1 
A    3
 C2 
A    4
 C3 
A    5
 C4 
A    6
 C5 
A    7
 C6 
A    8
 C7 
A    9
 C8 
A   10
 C9 
A   11
 O1 
A   12
 C10
A   13
 C11
A   14
 C12
A   15
 C13
A   16
 N2 
A   17
 C14
A   18
 C15
A   19
 C16
A   20
 C17
A   21
 C18
A   22
 C19
A   23
 C20
A   24
 H1 
A   25
 H2 
A   26
 H3 
A   27
 H4 
A   28
 H5 
A   29
 H6 
A   30
 H7 
A   31
 H8 
A   32
 H9 
A   33
 H10
A   34
 H11
A   35
 H12
A   36
 H13
A   37
 H14
A   38
 H15
A   39
 H16
A   40
 H17
A   41
 H18
A   42
 H19
A   43
 H20
A   44
 H21
A   45
 H22
A   46
 H23
A   47
 H24
M  END
>  <ref_pdb>  (354) 
x0051_0B

>  <ref_mols>  (354) 
x0404_0B,x0605_0B

>  <original SMILES>  (354) 
[H]c1c([H])c(C([H])([H])[H])c(N([H])C(=O)c2c([H])c([H])c(N3C([H])([H])C([H])([H])C([H])([H])C([H])([H])C3([H])[H])c([H])c2[H])c(C([H])([H])[H])c1[H]

>  <index>  (354) 
410

>  <∆∆G>  (354) 
-9.739076

>  <∆G_bound>  (354) 
-9.870416

>  <∆G_unbound>  (354) 
-0.131339

>  <comRMSD>  (354) 
0.601106

>  <N_constrained_atoms>  (354) 
23.0

>  <N_unconstrained_atoms>  (354) 
1.0

>  <runtime>  (354) 
71.067965

>  <LE>  (354) 
0.405795

>  <percent_hybrid>  (354) 
40.0

>  <dist>  (354) 
7.0

>  <ecfp4>  (354) 
0.289855

>  <daylight>  (354) 
0.264368

>  <topodist>  (354) 
3.0

>  <mces>  (354) 
25.0

>  <tdn>  (354) 
2.0

>  <tup>  (354) 
0.0

>  <rdn>  (354) 
0.0

>  <rup>  (354) 
0.0

>  <ldn>  (354) 
1.0

>  <lup>  (354) 
0.0

>  <mut>  (354) 
2.0

>  <maj>  (354) 
2.0

>  <min>  (354) 
0.0

>  <hyb>  (354) 
2.0

>  <sub>  (354) 
0.0

>  <query_index>  (354) 
352.0

>  <max_hit_Tanimoto>  (354) 
0.253894

>  <largest_ring>  (354) 
6

>  <N_interactions_kept>  (354) 
1.0

>  <N_interactions_lost>  (354) 
3.0

>  <interaction_uniqueness_metric>  (354) 
0.183404

>  <ad_hoc_penalty>  (354) 
-20.389275

>  <N_rotatable_bonds>  (354) 
5

>  <N_HA>  (354) 
23

>  <cluster>  (354) 
524

>  <N_interactions>  (354) 
7

>  <Enamine>  (354) 
0

>  <Mcule>  (354) 
1

>  <N_PAINS>  (354) 
0

>  <UFF_Gibbs>  (354) 
164.398118

>  <strain_per_HA>  (354) 
6.849922

>  <saltbridge:HIS:51>  (354) 
0

>  <pistack:HIS:51>  (354) 
1

>  <hydroph_interaction:HIS:51>  (354) 
1

>  <hbond:ALA:132>  (354) 
0

>  <hbond:SER:135>  (354) 
0

>  <hydroph_interaction:TYR:150>  (354) 
1

>  <pistack:TYR:161>  (354) 
1

>  <hydroph_interaction:TYR:161>  (354) 
1

>  <hydroph_interaction:ASP:83>  (354) 
0

>  <hbond:TYR:130>  (354) 
0

>  <hydroph_interaction:ALA:132>  (354) 
0

>  <hbond:HIS:51>  (354) 
0

>  <hbond:ASP:129>  (354) 
0

>  <hbond:TYR:150>  (354) 
0

>  <hbond:GLY:151>  (354) 
1

>  <hbond:TYR:161>  (354) 
1

>  <hydroph_interaction:TYR:130>  (354) 
0

>  <hydroph_interaction:PRO:131>  (354) 
0

>  <hydroph_interaction:ASP:129>  (354) 
0

>  <saltbridge:ASP:75>  (354) 
0

>  <saltbridge:ASP:83>  (354) 
0

>  <hydroph_interaction:ASN:152>  (354) 
0

>  <halogenbond:TYR:150>  (354) 
0

>  <hbond:ASP:83>  (354) 
0

>  <hydroph_interaction:VAL:155>  (354) 
0

>  <pication:TYR:161>  (354) 
0

>  <hbond:PRO:131>  (354) 
0

>  <hbond:LEU:128>  (354) 
0

>  <saltbridge:ASP:129>  (354) 
0

>  <hbond:THR:134>  (354) 
0

>  <pication:HIS:51>  (354) 
0

>  <hbond:SER:81>  (354) 
0

>  <hbond:GLY:159>  (354) 
0

>  <hydroph_interaction:PRO:101>  (354) 
0

>  <hydroph_interaction:THR:134>  (354) 
0

>  <hbond:GLY:82>  (354) 
0

>  <hydroph_interaction:GLU:104>  (354) 
0

>  <hydroph_interaction:VAL:36>  (354) 
0

>  <hydroph_interaction:MET:49>  (354) 
0

>  <halogenbond:GLU:104>  (354) 
0

>  <hydroph_interaction:LYS:107>  (354) 
0

$$$$
RIFDEYZNUXHVFN-UHFFFAOYSA-N
     RDKit          3D

 38 40  0  0  0  0  0  0  0  0999 V2000
   -7.7878    4.6879  -14.7630 C   0  0  0  0  0  0  0  0  0  0  0  0
   -8.5245    5.2528  -13.6653 N   0  0  0  0  0  0  0  0  0  0  0  0
   -8.9755    6.6508  -13.5715 C   0  0  0  0  0  0  0  0  0  0  0  0
   -7.8092    7.6496  -13.7747 C   0  0  0  0  0  0  0  0  0  0  0  0
   -8.2811    9.0415  -14.2467 C   0  0  0  0  0  0  0  0  0  0  0  0
   -9.6893    9.3737  -13.7358 C   0  0  0  0  0  0  0  0  0  0  0  0
  -10.7401    8.3522  -14.2246 C   0  0  0  0  0  0  0  0  0  0  0  0
  -10.1487    6.9582  -14.5164 C   0  0  0  0  0  0  0  0  0  0  0  0
   -6.8262    3.9110  -14.5191 O   0  0  0  0  0  0  0  0  0  0  0  0
   -8.1850    4.9138  -16.1671 C   0  0  0  0  0  0  0  0  0  0  0  0
   -7.3052    5.4762  -17.1281 C   0  0  0  0  0  0  0  0  0  0  0  0
   -7.7551    5.6437  -18.4660 C   0  0  0  0  0  0  0  0  0  0  0  0
   -6.9044    6.2125  -19.4269 C   0  0  0  0  0  0  0  0  0  0  0  0
   -5.6159    6.6164  -19.0751 C   0  0  0  0  0  0  0  0  0  0  0  0
   -5.1650    6.4571  -17.7650 C   0  0  0  0  0  0  0  0  0  0  0  0
   -5.9981    5.8925  -16.7961 C   0  0  0  0  0  0  0  0  0  0  0  0
   -9.0487    5.2411  -18.8262 C   0  0  0  0  0  0  0  0  0  0  0  0
   -9.8964    4.6707  -17.8785 C   0  0  0  0  0  0  0  0  0  0  0  0
   -9.4674    4.5014  -16.5628 C   0  0  0  0  0  0  0  0  0  0  0  0
   -8.5417    4.6967  -12.7804 H   0  0  0  0  0  0  0  0  0  0  0  0
   -9.3577    6.8023  -12.5356 H   0  0  0  0  0  0  0  0  0  0  0  0
   -7.2611    7.7546  -12.8129 H   0  0  0  0  0  0  0  0  0  0  0  0
   -7.0843    7.2660  -14.5196 H   0  0  0  0  0  0  0  0  0  0  0  0
   -8.2869    9.0724  -15.3589 H   0  0  0  0  0  0  0  0  0  0  0  0
   -7.5650    9.8151  -13.8945 H   0  0  0  0  0  0  0  0  0  0  0  0
   -9.6726    9.3843  -12.6236 H   0  0  0  0  0  0  0  0  0  0  0  0
   -9.9765   10.3925  -14.0747 H   0  0  0  0  0  0  0  0  0  0  0  0
  -11.5341    8.2602  -13.4517 H   0  0  0  0  0  0  0  0  0  0  0  0
  -11.2241    8.7342  -15.1499 H   0  0  0  0  0  0  0  0  0  0  0  0
   -9.7948    6.9560  -15.5674 H   0  0  0  0  0  0  0  0  0  0  0  0
  -10.9416    6.1867  -14.4092 H   0  0  0  0  0  0  0  0  0  0  0  0
   -7.2364    6.3451  -20.4499 H   0  0  0  0  0  0  0  0  0  0  0  0
   -4.9649    7.0550  -19.8203 H   0  0  0  0  0  0  0  0  0  0  0  0
   -4.1650    6.7738  -17.4978 H   0  0  0  0  0  0  0  0  0  0  0  0
   -5.6105    5.7914  -15.7918 H   0  0  0  0  0  0  0  0  0  0  0  0
   -9.4029    5.3638  -19.8429 H   0  0  0  0  0  0  0  0  0  0  0  0
  -10.8915    4.3560  -18.1654 H   0  0  0  0  0  0  0  0  0  0  0  0
  -10.1417    4.0499  -15.8448 H   0  0  0  0  0  0  0  0  0  0  0  0
  1  2  1  0
  2  3  1  0
  3  4  1  0
  4  5  1  0
  5  6  1  0
  6  7  1  0
  7  8  1  0
  1  9  2  0
  1 10  1  0
 10 11  1  0
 11 12  1  0
 12 13  2  0
 13 14  1  0
 14 15  2  0
 15 16  1  0
 12 17  1  0
 17 18  2  0
 18 19  1  0
  8  3  1  0
 10 19  2  0
 11 16  2  0
  2 20  1  0
  3 21  1  0
  4 22  1  0
  4 23  1  0
  5 24  1  0
  5 25  1  0
  6 26  1  0
  6 27  1  0
  7 28  1  0
  7 29  1  0
  8 30  1  0
  8 31  1  0
 13 32  1  0
 14 33  1  0
 15 34  1  0
 16 35  1  0
 17 36  1  0
 18 37  1  0
 19 38  1  0
A    1
 C1 
A    2
 N1 
A    3
 C2 
A    4
 C3 
A    5
 C4 
A    6
 C5 
A    7
 C6 
A    8
 C7 
A    9
 O1 
A   10
 C8 
A   11
 C9 
A   12
 C10
A   13
 C11
A   14
 C12
A   15
 C13
A   16
 C14
A   17
 C15
A   18
 C16
A   19
 C17
A   20
 H1 
A   21
 H2 
A   22
 H3 
A   23
 H4 
A   24
 H5 
A   25
 H6 
A   26
 H7 
A   27
 H8 
A   28
 H9 
A   29
 H10
A   30
 H11
A   31
 H12
A   32
 H13
A   33
 H14
A   34
 H15
A   35
 H16
A   36
 H17
A   37
 H18
A   38
 H19
M  END
>  <ref_pdb>  (355) 
x0051_0B

>  <ref_mols>  (355) 
x0429_0B,x0951_0B

>  <original SMILES>  (355) 
[H]c1c([H])c([H])c2c(C(=O)N([H])C3([H])C([H])([H])C([H])([H])C([H])([H])C([H])([H])C3([H])[H])c([H])c([H])c([H])c2c1[H]

>  <index>  (355) 
451

>  <∆∆G>  (355) 
-7.766974

>  <∆G_bound>  (355) 
-7.252442

>  <∆G_unbound>  (355) 
0.514533

>  <comRMSD>  (355) 
0.338944

>  <N_constrained_atoms>  (355) 
16.0

>  <N_unconstrained_atoms>  (355) 
4.0

>  <runtime>  (355) 
56.031305

>  <LE>  (355) 
0.388349

>  <percent_hybrid>  (355) 
45.0

>  <dist>  (355) 
7.0

>  <ecfp4>  (355) 
0.132353

>  <daylight>  (355) 
0.302013

>  <topodist>  (355) 
3.0

>  <mces>  (355) 
21.0

>  <tdn>  (355) 
2.0

>  <tup>  (355) 
0.0

>  <rdn>  (355) 
1.0

>  <rup>  (355) 
0.0

>  <ldn>  (355) 
0.0

>  <lup>  (355) 
0.0

>  <mut>  (355) 
3.0

>  <maj>  (355) 
3.0

>  <min>  (355) 
0.0

>  <hyb>  (355) 
1.0

>  <sub>  (355) 
2.0

>  <query_index>  (355) 
76.0

>  <max_hit_Tanimoto>  (355) 
0.159379

>  <largest_ring>  (355) 
6

>  <N_interactions_kept>  (355) 
0.0

>  <N_interactions_lost>  (355) 
3.0

>  <interaction_uniqueness_metric>  (355) 
0.104266

>  <ad_hoc_penalty>  (355) 
-20.383281

>  <N_rotatable_bonds>  (355) 
2

>  <N_HA>  (355) 
19

>  <cluster>  (355) 
5809

>  <N_interactions>  (355) 
7

>  <Enamine>  (355) 
0

>  <Mcule>  (355) 
1

>  <N_PAINS>  (355) 
0

>  <UFF_Gibbs>  (355) 
107.246698

>  <strain_per_HA>  (355) 
5.362335

>  <saltbridge:HIS:51>  (355) 
0

>  <pistack:HIS:51>  (355) 
0

>  <hydroph_interaction:HIS:51>  (355) 
0

>  <hbond:ALA:132>  (355) 
0

>  <hbond:SER:135>  (355) 
0

>  <hydroph_interaction:TYR:150>  (355) 
1

>  <pistack:TYR:161>  (355) 
1

>  <hydroph_interaction:TYR:161>  (355) 
3

>  <hydroph_interaction:ASP:83>  (355) 
0

>  <hbond:TYR:130>  (355) 
0

>  <hydroph_interaction:ALA:132>  (355) 
1

>  <hbond:HIS:51>  (355) 
0

>  <hbond:ASP:129>  (355) 
0

>  <hbond:TYR:150>  (355) 
0

>  <hbond:GLY:151>  (355) 
1

>  <hbond:TYR:161>  (355) 
0

>  <hydroph_interaction:TYR:130>  (355) 
0

>  <hydroph_interaction:PRO:131>  (355) 
0

>  <hydroph_interaction:ASP:129>  (355) 
0

>  <saltbridge:ASP:75>  (355) 
0

>  <saltbridge:ASP:83>  (355) 
0

>  <hydroph_interaction:ASN:152>  (355) 
0

>  <halogenbond:TYR:150>  (355) 
0

>  <hbond:ASP:83>  (355) 
0

>  <hydroph_interaction:VAL:155>  (355) 
0

>  <pication:TYR:161>  (355) 
0

>  <hbond:PRO:131>  (355) 
0

>  <hbond:LEU:128>  (355) 
0

>  <saltbridge:ASP:129>  (355) 
0

>  <hbond:THR:134>  (355) 
0

>  <pication:HIS:51>  (355) 
0

>  <hbond:SER:81>  (355) 
0

>  <hbond:GLY:159>  (355) 
0

>  <hydroph_interaction:PRO:101>  (355) 
0

>  <hydroph_interaction:THR:134>  (355) 
0

>  <hbond:GLY:82>  (355) 
0

>  <hydroph_interaction:GLU:104>  (355) 
0

>  <hydroph_interaction:VAL:36>  (355) 
0

>  <hydroph_interaction:MET:49>  (355) 
0

>  <halogenbond:GLU:104>  (355) 
0

>  <hydroph_interaction:LYS:107>  (355) 
0

$$$$
ZGOOZLPRAWTXJJ-UHFFFAOYSA-N
     RDKit          3D

 42 44  0  0  0  0  0  0  0  0999 V2000
   -9.1812    5.4580  -14.5870 C   0  0  0  0  0  0  0  0  0  0  0  0
  -10.1343    5.0347  -13.5977 N   0  0  0  0  0  0  0  0  0  0  0  0
  -10.4832    5.8629  -12.4457 C   0  0  0  0  0  0  0  0  0  0  0  0
   -9.3706    5.8448  -11.4429 C   0  0  0  0  0  0  0  0  0  0  0  0
   -9.0085    4.8160  -10.5981 C   0  0  0  0  0  0  0  0  0  0  0  0
   -7.9295    5.2036   -9.8949 N   0  0  0  0  0  0  0  0  0  0  0  0
   -7.1944    4.3664   -8.9484 C   0  0  0  0  0  0  0  0  0  0  0  0
   -8.0708    3.2006   -8.4603 C   0  0  0  0  0  0  0  0  0  0  0  0
   -8.7887    2.5242   -9.6404 C   0  0  0  0  0  0  0  0  0  0  0  0
   -9.7124    3.5102  -10.3730 C   0  0  0  0  0  0  0  0  0  0  0  0
   -7.5481    6.4108  -10.2827 N   0  0  0  0  0  0  0  0  0  0  0  0
   -8.4190    6.8281  -11.2266 C   0  0  0  0  0  0  0  0  0  0  0  0
   -8.6205    6.5820  -14.4705 O   0  0  0  0  0  0  0  0  0  0  0  0
   -8.8405    4.5869  -15.7386 C   0  0  0  0  0  0  0  0  0  0  0  0
   -7.5563    4.6173  -16.3239 C   0  0  0  0  0  0  0  0  0  0  0  0
   -6.5659    5.4623  -15.8046 O   0  0  0  0  0  0  0  0  0  0  0  0
   -5.2678    5.6095  -16.3782 C   0  0  0  0  0  0  0  0  0  0  0  0
   -5.3291    6.4697  -17.6355 C   0  0  0  0  0  0  0  0  0  0  0  0
   -7.2767    3.8066  -17.3842 N   0  0  0  0  0  0  0  0  0  0  0  0
   -8.1993    2.9620  -17.9121 C   0  0  0  0  0  0  0  0  0  0  0  0
   -9.4817    2.9051  -17.3705 C   0  0  0  0  0  0  0  0  0  0  0  0
   -9.8023    3.7192  -16.2844 C   0  0  0  0  0  0  0  0  0  0  0  0
  -10.5557    4.0812  -13.6554 H   0  0  0  0  0  0  0  0  0  0  0  0
  -11.4032    5.4631  -11.9678 H   0  0  0  0  0  0  0  0  0  0  0  0
  -10.6975    6.9029  -12.7740 H   0  0  0  0  0  0  0  0  0  0  0  0
   -6.8701    4.9778   -8.0791 H   0  0  0  0  0  0  0  0  0  0  0  0
   -6.2907    3.9621   -9.4527 H   0  0  0  0  0  0  0  0  0  0  0  0
   -7.4354    2.4559   -7.9350 H   0  0  0  0  0  0  0  0  0  0  0  0
   -8.8257    3.5816   -7.7378 H   0  0  0  0  0  0  0  0  0  0  0  0
   -9.3895    1.6676   -9.2662 H   0  0  0  0  0  0  0  0  0  0  0  0
   -8.0326    2.1258  -10.3528 H   0  0  0  0  0  0  0  0  0  0  0  0
  -10.0245    3.0724  -11.3445 H   0  0  0  0  0  0  0  0  0  0  0  0
  -10.6193    3.6961   -9.7583 H   0  0  0  0  0  0  0  0  0  0  0  0
   -8.3560    7.7810  -11.7348 H   0  0  0  0  0  0  0  0  0  0  0  0
   -4.6092    6.1091  -15.6371 H   0  0  0  0  0  0  0  0  0  0  0  0
   -4.8302    4.6143  -16.6113 H   0  0  0  0  0  0  0  0  0  0  0  0
   -4.3040    6.6167  -18.0382 H   0  0  0  0  0  0  0  0  0  0  0  0
   -5.9498    5.9775  -18.4127 H   0  0  0  0  0  0  0  0  0  0  0  0
   -5.7665    7.4614  -17.3941 H   0  0  0  0  0  0  0  0  0  0  0  0
   -7.9361    2.3361  -18.7543 H   0  0  0  0  0  0  0  0  0  0  0  0
  -10.2238    2.2393  -17.7925 H   0  0  0  0  0  0  0  0  0  0  0  0
  -10.8095    3.6842  -15.8903 H   0  0  0  0  0  0  0  0  0  0  0  0
  1  2  1  0
  2  3  1  0
  3  4  1  0
  4  5  2  0
  5  6  1  0
  6  7  1  0
  7  8  1  0
  8  9  1  0
  9 10  1  0
  6 11  1  0
 11 12  2  0
  1 13  2  0
  1 14  1  0
 14 15  2  0
 15 16  1  0
 16 17  1  0
 17 18  1  0
 15 19  1  0
 19 20  2  0
 20 21  1  0
 21 22  2  0
 12  4  1  0
 10  5  1  0
 22 14  1  0
  2 23  1  0
  3 24  1  0
  3 25  1  0
  7 26  1  0
  7 27  1  0
  8 28  1  0
  8 29  1  0
  9 30  1  0
  9 31  1  0
 10 32  1  0
 10 33  1  0
 12 34  1  0
 17 35  1  0
 17 36  1  0
 18 37  1  0
 18 38  1  0
 18 39  1  0
 20 40  1  0
 21 41  1  0
 22 42  1  0
A    1
 C1 
A    2
 N1 
A    3
 C2 
A    4
 C3 
A    5
 C4 
A    6
 N2 
A    7
 C5 
A    8
 C6 
A    9
 C7 
A   10
 C8 
A   11
 N3 
A   12
 C9 
A   13
 O1 
A   14
 C10
A   15
 C11
A   16
 O2 
A   17
 C12
A   18
 C13
A   19
 N4 
A   20
 C14
A   21
 C15
A   22
 C16
A   23
 H1 
A   24
 H2 
A   25
 H3 
A   26
 H4 
A   27
 H5 
A   28
 H6 
A   29
 H7 
A   30
 H8 
A   31
 H9 
A   32
 H10
A   33
 H11
A   34
 H12
A   35
 H13
A   36
 H14
A   37
 H15
A   38
 H16
A   39
 H17
A   40
 H18
A   41
 H19
A   42
 H20
M  END
>  <ref_pdb>  (356) 
x0051_0B

>  <ref_mols>  (356) 
x0435_0B,x0969_1B

>  <original SMILES>  (356) 
[H]c1nc(OC([H])([H])C([H])([H])[H])c(C(=O)N([H])C([H])([H])c2c([H])nn3c2C([H])([H])C([H])([H])C([H])([H])C3([H])[H])c([H])c1[H]

>  <index>  (356) 
207

>  <∆∆G>  (356) 
-7.542696

>  <∆G_bound>  (356) 
-6.225377

>  <∆G_unbound>  (356) 
1.317319

>  <comRMSD>  (356) 
0.557512

>  <N_constrained_atoms>  (356) 
20.0

>  <N_unconstrained_atoms>  (356) 
3.0

>  <runtime>  (356) 
41.659139

>  <LE>  (356) 
0.327943

>  <percent_hybrid>  (356) 
50.0

>  <dist>  (356) 
10.0

>  <ecfp4>  (356) 
0.204545

>  <daylight>  (356) 
0.361446

>  <topodist>  (356) 
3.0

>  <mces>  (356) 
23.0

>  <tdn>  (356) 
1.0

>  <tup>  (356) 
1.0

>  <rdn>  (356) 
1.0

>  <rup>  (356) 
0.0

>  <ldn>  (356) 
0.0

>  <lup>  (356) 
0.0

>  <mut>  (356) 
5.0

>  <maj>  (356) 
5.0

>  <min>  (356) 
0.0

>  <hyb>  (356) 
2.0

>  <sub>  (356) 
0.0

>  <query_index>  (356) 
311.0

>  <max_hit_Tanimoto>  (356) 
0.323392

>  <largest_ring>  (356) 
6

>  <N_interactions_kept>  (356) 
3.0

>  <N_interactions_lost>  (356) 
0.5

>  <interaction_uniqueness_metric>  (356) 
0.201593

>  <ad_hoc_penalty>  (356) 
-20.367055

>  <N_rotatable_bonds>  (356) 
6

>  <N_HA>  (356) 
22

>  <cluster>  (356) 
6030

>  <N_interactions>  (356) 
5

>  <Enamine>  (356) 
0

>  <Mcule>  (356) 
1

>  <N_PAINS>  (356) 
0

>  <UFF_Gibbs>  (356) 
255.674526

>  <strain_per_HA>  (356) 
11.116284

>  <saltbridge:HIS:51>  (356) 
0

>  <pistack:HIS:51>  (356) 
1

>  <hydroph_interaction:HIS:51>  (356) 
1

>  <hbond:ALA:132>  (356) 
0

>  <hbond:SER:135>  (356) 
0

>  <hydroph_interaction:TYR:150>  (356) 
0

>  <pistack:TYR:161>  (356) 
0

>  <hydroph_interaction:TYR:161>  (356) 
1

>  <hydroph_interaction:ASP:83>  (356) 
1

>  <hbond:TYR:130>  (356) 
0

>  <hydroph_interaction:ALA:132>  (356) 
0

>  <hbond:HIS:51>  (356) 
0

>  <hbond:ASP:129>  (356) 
0

>  <hbond:TYR:150>  (356) 
0

>  <hbond:GLY:151>  (356) 
0

>  <hbond:TYR:161>  (356) 
1

>  <hydroph_interaction:TYR:130>  (356) 
0

>  <hydroph_interaction:PRO:131>  (356) 
0

>  <hydroph_interaction:ASP:129>  (356) 
0

>  <saltbridge:ASP:75>  (356) 
0

>  <saltbridge:ASP:83>  (356) 
0

>  <hydroph_interaction:ASN:152>  (356) 
0

>  <halogenbond:TYR:150>  (356) 
0

>  <hbond:ASP:83>  (356) 
0

>  <hydroph_interaction:VAL:155>  (356) 
0

>  <pication:TYR:161>  (356) 
0

>  <hbond:PRO:131>  (356) 
0

>  <hbond:LEU:128>  (356) 
0

>  <saltbridge:ASP:129>  (356) 
0

>  <hbond:THR:134>  (356) 
0

>  <pication:HIS:51>  (356) 
0

>  <hbond:SER:81>  (356) 
0

>  <hbond:GLY:159>  (356) 
0

>  <hydroph_interaction:PRO:101>  (356) 
0

>  <hydroph_interaction:THR:134>  (356) 
0

>  <hbond:GLY:82>  (356) 
0

>  <hydroph_interaction:GLU:104>  (356) 
0

>  <hydroph_interaction:VAL:36>  (356) 
0

>  <hydroph_interaction:MET:49>  (356) 
0

>  <halogenbond:GLU:104>  (356) 
0

>  <hydroph_interaction:LYS:107>  (356) 
0

$$$$
WFQHJORKRAFLBA-UHFFFAOYSA-N
     RDKit          3D

 36 38  0  0  0  0  0  0  0  0999 V2000
   -7.6769    5.3305  -12.5539 C   0  0  0  0  0  0  0  0  0  0  0  0
   -7.7846    4.0795  -13.2492 N   0  0  0  0  0  0  0  0  0  0  0  0
   -7.0515    3.8069  -14.4831 C   0  0  0  0  0  0  0  0  0  0  0  0
   -7.7100    4.5011  -15.6440 C   0  0  0  0  0  0  0  0  0  0  0  0
   -7.1027    5.6128  -16.2512 C   0  0  0  0  0  0  0  0  0  0  0  0
   -7.7324    6.2645  -17.3164 C   0  0  0  0  0  0  0  0  0  0  0  0
   -7.1411    7.3364  -17.8992 F   0  0  0  0  0  0  0  0  0  0  0  0
   -8.9719    5.8137  -17.7795 C   0  0  0  0  0  0  0  0  0  0  0  0
   -9.5854    4.7105  -17.1772 C   0  0  0  0  0  0  0  0  0  0  0  0
  -11.2816    4.0992  -17.8067 Br  0  0  0  0  0  0  0  0  0  0  0  0
   -8.9575    4.0565  -16.1114 C   0  0  0  0  0  0  0  0  0  0  0  0
   -7.0450    6.2867  -13.0797 O   0  0  0  0  0  0  0  0  0  0  0  0
   -8.3207    5.5395  -11.2424 C   0  0  0  0  0  0  0  0  0  0  0  0
   -8.6413    4.6209  -10.2543 C   0  0  0  0  0  0  0  0  0  0  0  0
   -9.1945    5.2864   -9.2221 N   0  0  0  0  0  0  0  0  0  0  0  0
   -9.5720    4.6997   -7.9367 C   0  0  0  0  0  0  0  0  0  0  0  0
   -9.6981    3.1722   -8.0470 C   0  0  0  0  0  0  0  0  0  0  0  0
   -8.5072    2.5827   -8.8179 C   0  0  0  0  0  0  0  0  0  0  0  0
   -8.4497    3.1304  -10.2516 C   0  0  0  0  0  0  0  0  0  0  0  0
   -9.2064    6.5849   -9.4747 N   0  0  0  0  0  0  0  0  0  0  0  0
   -8.6816    6.7650  -10.7038 C   0  0  0  0  0  0  0  0  0  0  0  0
   -8.4760    3.3673  -12.9300 H   0  0  0  0  0  0  0  0  0  0  0  0
   -7.0491    2.7116  -14.6731 H   0  0  0  0  0  0  0  0  0  0  0  0
   -5.9901    4.1180  -14.3684 H   0  0  0  0  0  0  0  0  0  0  0  0
   -6.1449    5.9755  -15.8993 H   0  0  0  0  0  0  0  0  0  0  0  0
   -9.4561    6.3217  -18.6036 H   0  0  0  0  0  0  0  0  0  0  0  0
   -9.4403    3.2057  -15.6462 H   0  0  0  0  0  0  0  0  0  0  0  0
   -8.7937    4.9511   -7.1842 H   0  0  0  0  0  0  0  0  0  0  0  0
  -10.5393    5.1291   -7.5985 H   0  0  0  0  0  0  0  0  0  0  0  0
   -9.7385    2.7304   -7.0281 H   0  0  0  0  0  0  0  0  0  0  0  0
  -10.6436    2.9146   -8.5729 H   0  0  0  0  0  0  0  0  0  0  0  0
   -7.5624    2.8315   -8.2859 H   0  0  0  0  0  0  0  0  0  0  0  0
   -8.5991    1.4758   -8.8513 H   0  0  0  0  0  0  0  0  0  0  0  0
   -9.2625    2.6633  -10.8475 H   0  0  0  0  0  0  0  0  0  0  0  0
   -7.4691    2.8700  -10.7039 H   0  0  0  0  0  0  0  0  0  0  0  0
   -8.5641    7.7313  -11.1763 H   0  0  0  0  0  0  0  0  0  0  0  0
  1  2  1  0
  2  3  1  0
  3  4  1  0
  4  5  2  0
  5  6  1  0
  6  7  1  0
  6  8  2  0
  8  9  1  0
  9 10  1  0
  9 11  2  0
  1 12  2  0
  1 13  1  0
 13 14  2  0
 14 15  1  0
 15 16  1  0
 16 17  1  0
 17 18  1  0
 18 19  1  0
 15 20  1  0
 20 21  2  0
 11  4  1  0
 21 13  1  0
 19 14  1  0
  2 22  1  0
  3 23  1  0
  3 24  1  0
  5 25  1  0
  8 26  1  0
 11 27  1  0
 16 28  1  0
 16 29  1  0
 17 30  1  0
 17 31  1  0
 18 32  1  0
 18 33  1  0
 19 34  1  0
 19 35  1  0
 21 36  1  0
A    1
 C1 
A    2
 N1 
A    3
 C2 
A    4
 C3 
A    5
 C4 
A    6
 C5 
A    7
 F1 
A    8
 C6 
A    9
 C7 
A   10
BR1 
A   11
 C8 
A   12
 O1 
A   13
 C9 
A   14
 C10
A   15
 N2 
A   16
 C11
A   17
 C12
A   18
 C13
A   19
 C14
A   20
 N3 
A   21
 C15
A   22
 H1 
A   23
 H2 
A   24
 H3 
A   25
 H4 
A   26
 H5 
A   27
 H6 
A   28
 H7 
A   29
 H8 
A   30
 H9 
A   31
 H10
A   32
 H11
A   33
 H12
A   34
 H13
A   35
 H14
A   36
 H15
M  END
>  <ref_pdb>  (357) 
x0051_0B

>  <ref_mols>  (357) 
x0589_0B,x0969_1B

>  <original SMILES>  (357) 
[H]c1nn2c(c1C(=O)N([H])C([H])([H])c1c([H])c(F)c([H])c(Br)c1[H])C([H])([H])C([H])([H])C([H])([H])C2([H])[H]

>  <index>  (357) 
600

>  <∆∆G>  (357) 
-5.76183

>  <∆G_bound>  (357) 
-5.079616

>  <∆G_unbound>  (357) 
0.682214

>  <comRMSD>  (357) 
0.467025

>  <N_constrained_atoms>  (357) 
18.0

>  <N_unconstrained_atoms>  (357) 
3.0

>  <runtime>  (357) 
47.16018

>  <LE>  (357) 
0.274373

>  <percent_hybrid>  (357) 
45.0

>  <dist>  (357) 
6.0

>  <ecfp4>  (357) 
0.285714

>  <daylight>  (357) 
0.333333

>  <topodist>  (357) 
1.0

>  <mces>  (357) 
22.0

>  <tdn>  (357) 
0.0

>  <tup>  (357) 
1.0

>  <rdn>  (357) 
0.0

>  <rup>  (357) 
0.0

>  <ldn>  (357) 
0.0

>  <lup>  (357) 
0.0

>  <mut>  (357) 
4.0

>  <maj>  (357) 
4.0

>  <min>  (357) 
0.0

>  <hyb>  (357) 
1.0

>  <sub>  (357) 
0.0

>  <query_index>  (357) 
379.0

>  <max_hit_Tanimoto>  (357) 
0.338294

>  <largest_ring>  (357) 
6

>  <N_interactions_kept>  (357) 
1.5

>  <N_interactions_lost>  (357) 
1.0

>  <interaction_uniqueness_metric>  (357) 
0.163139

>  <ad_hoc_penalty>  (357) 
-20.310712

>  <N_rotatable_bonds>  (357) 
3

>  <N_HA>  (357) 
21

>  <cluster>  (357) 
5669

>  <N_interactions>  (357) 
4

>  <Enamine>  (357) 
0

>  <Mcule>  (357) 
1

>  <N_PAINS>  (357) 
0

>  <UFF_Gibbs>  (357) 
77.192941

>  <strain_per_HA>  (357) 
3.675854

>  <saltbridge:HIS:51>  (357) 
0

>  <pistack:HIS:51>  (357) 
1

>  <hydroph_interaction:HIS:51>  (357) 
0

>  <hbond:ALA:132>  (357) 
0

>  <hbond:SER:135>  (357) 
0

>  <hydroph_interaction:TYR:150>  (357) 
0

>  <pistack:TYR:161>  (357) 
1

>  <hydroph_interaction:TYR:161>  (357) 
0

>  <hydroph_interaction:ASP:83>  (357) 
1

>  <hbond:TYR:130>  (357) 
0

>  <hydroph_interaction:ALA:132>  (357) 
0

>  <hbond:HIS:51>  (357) 
0

>  <hbond:ASP:129>  (357) 
0

>  <hbond:TYR:150>  (357) 
0

>  <hbond:GLY:151>  (357) 
1

>  <hbond:TYR:161>  (357) 
0

>  <hydroph_interaction:TYR:130>  (357) 
0

>  <hydroph_interaction:PRO:131>  (357) 
0

>  <hydroph_interaction:ASP:129>  (357) 
0

>  <saltbridge:ASP:75>  (357) 
0

>  <saltbridge:ASP:83>  (357) 
0

>  <hydroph_interaction:ASN:152>  (357) 
0

>  <halogenbond:TYR:150>  (357) 
0

>  <hbond:ASP:83>  (357) 
0

>  <hydroph_interaction:VAL:155>  (357) 
0

>  <pication:TYR:161>  (357) 
0

>  <hbond:PRO:131>  (357) 
0

>  <hbond:LEU:128>  (357) 
0

>  <saltbridge:ASP:129>  (357) 
0

>  <hbond:THR:134>  (357) 
0

>  <pication:HIS:51>  (357) 
0

>  <hbond:SER:81>  (357) 
0

>  <hbond:GLY:159>  (357) 
0

>  <hydroph_interaction:PRO:101>  (357) 
0

>  <hydroph_interaction:THR:134>  (357) 
0

>  <hbond:GLY:82>  (357) 
0

>  <hydroph_interaction:GLU:104>  (357) 
0

>  <hydroph_interaction:VAL:36>  (357) 
0

>  <hydroph_interaction:MET:49>  (357) 
0

>  <halogenbond:GLU:104>  (357) 
0

>  <hydroph_interaction:LYS:107>  (357) 
0

$$$$
MCULE-6139782932
     RDKit          3D

 28 30  0  0  0  0  0  0  0  0999 V2000
   -4.0403    5.8500  -16.0979 C   0  0  0  0  0  0  0  0  0  0  0  0
   -5.1501    4.9775  -16.6748 C   0  0  0  0  0  0  0  0  0  0  0  0
   -6.0779    5.9458  -17.4127 C   0  0  0  0  0  0  0  0  0  0  0  0
   -7.4785    5.4183  -17.5556 C   0  0  0  0  0  0  0  0  0  0  0  0
   -7.8205    5.3402  -18.8788 C   0  0  0  0  0  0  0  0  0  0  0  0
   -9.0717    4.8800  -19.2897 C   0  0  0  0  0  0  0  0  0  0  0  0
   -9.9941    4.4902  -18.3058 C   0  0  0  0  0  0  0  0  0  0  0  0
   -9.6503    4.5674  -16.9425 C   0  0  0  0  0  0  0  0  0  0  0  0
   -8.3829    5.0347  -16.5578 C   0  0  0  0  0  0  0  0  0  0  0  0
   -6.7744    5.7716  -19.7218 N   0  0  0  0  0  0  0  0  0  0  0  0
   -5.6354    6.1729  -18.9026 C   0  0  0  0  0  0  0  0  0  0  0  0
   -6.0084    7.2322  -16.5860 C   0  0  0  0  0  0  0  0  0  0  0  0
   -4.5847    7.2800  -16.0416 C   0  0  0  0  0  0  0  0  0  0  0  0
   -3.7485    5.4947  -15.0855 H   0  0  0  0  0  0  0  0  0  0  0  0
   -3.1487    5.8114  -16.7618 H   0  0  0  0  0  0  0  0  0  0  0  0
   -4.7457    4.1779  -17.3330 H   0  0  0  0  0  0  0  0  0  0  0  0
   -5.6903    4.4899  -15.8329 H   0  0  0  0  0  0  0  0  0  0  0  0
   -9.3260    4.8246  -20.3402 H   0  0  0  0  0  0  0  0  0  0  0  0
  -10.9722    4.1293  -18.5962 H   0  0  0  0  0  0  0  0  0  0  0  0
  -10.3652    4.2655  -16.1881 H   0  0  0  0  0  0  0  0  0  0  0  0
   -8.1159    5.0951  -15.5109 H   0  0  0  0  0  0  0  0  0  0  0  0
   -6.8085    5.7997  -20.7650 H   0  0  0  0  0  0  0  0  0  0  0  0
   -4.7527    5.5581  -19.1810 H   0  0  0  0  0  0  0  0  0  0  0  0
   -5.3914    7.2359  -19.1150 H   0  0  0  0  0  0  0  0  0  0  0  0
   -6.2544    8.1413  -17.1770 H   0  0  0  0  0  0  0  0  0  0  0  0
   -6.7138    7.1787  -15.7271 H   0  0  0  0  0  0  0  0  0  0  0  0
   -4.5761    7.6688  -14.9999 H   0  0  0  0  0  0  0  0  0  0  0  0
   -3.9615    7.9464  -16.6777 H   0  0  0  0  0  0  0  0  0  0  0  0
  1  2  1  0
  2  3  1  0
  3  4  1  0
  4  5  1  0
  5  6  2  0
  6  7  1  0
  7  8  2  0
  8  9  1  0
  5 10  1  0
 10 11  1  0
  3 12  1  0
 12 13  1  0
 13  1  1  0
 11  3  1  0
  9  4  2  0
  1 14  1  0
  1 15  1  0
  2 16  1  0
  2 17  1  0
  6 18  1  0
  7 19  1  0
  8 20  1  0
  9 21  1  0
 10 22  1  0
 11 23  1  0
 11 24  1  0
 12 25  1  0
 12 26  1  0
 13 27  1  0
 13 28  1  0
A    1
 C1 
A    2
 C2 
A    3
 C3 
A    4
 C4 
A    5
 C5 
A    6
 C6 
A    7
 C7 
A    8
 C8 
A    9
 C9 
A   10
 N1 
A   11
 C10
A   12
 C11
A   13
 C12
A   14
 H1 
A   15
 H2 
A   16
 H3 
A   17
 H4 
A   18
 H5 
A   19
 H6 
A   20
 H7 
A   21
 H8 
A   22
 H9 
A   23
 H10
A   24
 H11
A   25
 H12
A   26
 H13
A   27
 H14
A   28
 H15
M  END
>  <ref_pdb>  (358) 
x0051_0B

>  <ref_mols>  (358) 
x0490_0B,x0227_0B

>  <original SMILES>  (358) 
[H]c1c([H])c([H])c2c(c1[H])N([H])C([H])([H])C21C([H])([H])C([H])([H])C([H])([H])C1([H])[H]

>  <index>  (358) 
746

>  <∆∆G>  (358) 
-5.613241

>  <∆G_bound>  (358) 
-5.529737

>  <∆G_unbound>  (358) 
0.083504

>  <comRMSD>  (358) 
0.629885

>  <N_constrained_atoms>  (358) 
15.0

>  <N_unconstrained_atoms>  (358) 
0.0

>  <runtime>  (358) 
25.927847

>  <LE>  (358) 
0.374216

>  <percent_hybrid>  (358) 
34.0

>  <dist>  (358) 
1.0

>  <ecfp4>  (358) 
0.473684

>  <daylight>  (358) 
0.964286

>  <topodist>  (358) 
1.0

>  <mces>  (358) 
15.0

>  <tdn>  (358) 
1.0

>  <tup>  (358) 
0.0

>  <rdn>  (358) 
0.0

>  <rup>  (358) 
0.0

>  <ldn>  (358) 
0.0

>  <lup>  (358) 
0.0

>  <mut>  (358) 
0.0

>  <maj>  (358) 
0.0

>  <min>  (358) 
0.0

>  <hyb>  (358) 
0.0

>  <sub>  (358) 
1.0

>  <query_index>  (358) 
171.0

>  <max_hit_Tanimoto>  (358) 
0.345428

>  <largest_ring>  (358) 
6

>  <N_interactions_kept>  (358) 
2.0

>  <N_interactions_lost>  (358) 
3.0

>  <interaction_uniqueness_metric>  (358) 
0.078124

>  <ad_hoc_penalty>  (358) 
-20.289554

>  <N_rotatable_bonds>  (358) 
0

>  <N_HA>  (358) 
13

>  <cluster>  (358) 
5536

>  <N_interactions>  (358) 
6

>  <Enamine>  (358) 
0

>  <Mcule>  (358) 
1

>  <N_PAINS>  (358) 
0

>  <UFF_Gibbs>  (358) 
21.871176

>  <strain_per_HA>  (358) 
1.458078

>  <saltbridge:HIS:51>  (358) 
0

>  <pistack:HIS:51>  (358) 
0

>  <hydroph_interaction:HIS:51>  (358) 
0

>  <hbond:ALA:132>  (358) 
0

>  <hbond:SER:135>  (358) 
0

>  <hydroph_interaction:TYR:150>  (358) 
1

>  <pistack:TYR:161>  (358) 
0

>  <hydroph_interaction:TYR:161>  (358) 
3

>  <hydroph_interaction:ASP:83>  (358) 
0

>  <hbond:TYR:130>  (358) 
1

>  <hydroph_interaction:ALA:132>  (358) 
1

>  <hbond:HIS:51>  (358) 
0

>  <hbond:ASP:129>  (358) 
0

>  <hbond:TYR:150>  (358) 
0

>  <hbond:GLY:151>  (358) 
0

>  <hbond:TYR:161>  (358) 
0

>  <hydroph_interaction:TYR:130>  (358) 
0

>  <hydroph_interaction:PRO:131>  (358) 
0

>  <hydroph_interaction:ASP:129>  (358) 
0

>  <saltbridge:ASP:75>  (358) 
0

>  <saltbridge:ASP:83>  (358) 
0

>  <hydroph_interaction:ASN:152>  (358) 
0

>  <halogenbond:TYR:150>  (358) 
0

>  <hbond:ASP:83>  (358) 
0

>  <hydroph_interaction:VAL:155>  (358) 
0

>  <pication:TYR:161>  (358) 
0

>  <hbond:PRO:131>  (358) 
0

>  <hbond:LEU:128>  (358) 
0

>  <saltbridge:ASP:129>  (358) 
0

>  <hbond:THR:134>  (358) 
0

>  <pication:HIS:51>  (358) 
0

>  <hbond:SER:81>  (358) 
0

>  <hbond:GLY:159>  (358) 
0

>  <hydroph_interaction:PRO:101>  (358) 
0

>  <hydroph_interaction:THR:134>  (358) 
0

>  <hbond:GLY:82>  (358) 
0

>  <hydroph_interaction:GLU:104>  (358) 
0

>  <hydroph_interaction:VAL:36>  (358) 
0

>  <hydroph_interaction:MET:49>  (358) 
0

>  <halogenbond:GLU:104>  (358) 
0

>  <hydroph_interaction:LYS:107>  (358) 
0

$$$$
POXRGQCLZZHBFZ-UHFFFAOYSA-N
     RDKit          3D

 40 42  0  0  0  0  0  0  0  0999 V2000
   -8.8995    3.6086  -13.6395 N   0  0  0  0  0  0  0  0  0  0  0  0
   -9.2611    3.3877  -15.0453 C   0  0  0  0  0  0  0  0  0  0  0  0
   -8.3771    4.2156  -15.9481 C   0  0  0  0  0  0  0  0  0  0  0  0
   -8.8638    5.3160  -16.6896 C   0  0  0  0  0  0  0  0  0  0  0  0
  -10.5542    5.8085  -16.6395 Cl  0  0  0  0  0  0  0  0  0  0  0  0
   -7.9868    6.0598  -17.4904 C   0  0  0  0  0  0  0  0  0  0  0  0
   -6.6287    5.7213  -17.5696 C   0  0  0  0  0  0  0  0  0  0  0  0
   -5.6922    6.5593  -18.3891 C   0  0  0  0  0  0  0  0  0  0  0  0
   -6.1425    4.6465  -16.8136 C   0  0  0  0  0  0  0  0  0  0  0  0
   -7.0090    3.9017  -16.0105 C   0  0  0  0  0  0  0  0  0  0  0  0
   -9.5216    4.8282  -13.1117 C   0  0  0  0  0  0  0  0  0  0  0  0
   -8.9496    5.1334  -11.7629 C   0  0  0  0  0  0  0  0  0  0  0  0
   -9.3314    4.6179  -10.5406 C   0  0  0  0  0  0  0  0  0  0  0  0
   -8.4919    5.0889   -9.6008 N   0  0  0  0  0  0  0  0  0  0  0  0
   -8.5090    4.7098   -8.1883 C   0  0  0  0  0  0  0  0  0  0  0  0
   -9.8819    4.1391   -7.7950 C   0  0  0  0  0  0  0  0  0  0  0  0
  -10.3713    3.1214   -8.8397 C   0  0  0  0  0  0  0  0  0  0  0  0
  -10.5314    3.7736  -10.2223 C   0  0  0  0  0  0  0  0  0  0  0  0
   -7.5533    5.8327  -10.1665 N   0  0  0  0  0  0  0  0  0  0  0  0
   -7.8136    5.8788  -11.4911 C   0  0  0  0  0  0  0  0  0  0  0  0
   -9.2681    2.7983  -13.0878 H   0  0  0  0  0  0  0  0  0  0  0  0
   -9.0855    2.3192  -15.2962 H   0  0  0  0  0  0  0  0  0  0  0  0
  -10.3450    3.5631  -15.2138 H   0  0  0  0  0  0  0  0  0  0  0  0
   -8.3629    6.9096  -18.0479 H   0  0  0  0  0  0  0  0  0  0  0  0
   -5.4399    7.4843  -17.8286 H   0  0  0  0  0  0  0  0  0  0  0  0
   -4.7531    6.0074  -18.6124 H   0  0  0  0  0  0  0  0  0  0  0  0
   -6.1686    6.8402  -19.3519 H   0  0  0  0  0  0  0  0  0  0  0  0
   -5.0900    4.3894  -16.8348 H   0  0  0  0  0  0  0  0  0  0  0  0
   -6.6098    3.0854  -15.4178 H   0  0  0  0  0  0  0  0  0  0  0  0
  -10.6246    4.7008  -13.0321 H   0  0  0  0  0  0  0  0  0  0  0  0
   -9.3175    5.6925  -13.7803 H   0  0  0  0  0  0  0  0  0  0  0  0
   -7.7280    3.9398   -8.0124 H   0  0  0  0  0  0  0  0  0  0  0  0
   -8.2805    5.5958   -7.5584 H   0  0  0  0  0  0  0  0  0  0  0  0
  -10.6186    4.9685   -7.7133 H   0  0  0  0  0  0  0  0  0  0  0  0
   -9.8058    3.6457   -6.8017 H   0  0  0  0  0  0  0  0  0  0  0  0
   -9.6419    2.2836   -8.9082 H   0  0  0  0  0  0  0  0  0  0  0  0
  -11.3476    2.6977   -8.5175 H   0  0  0  0  0  0  0  0  0  0  0  0
  -11.4334    4.4215  -10.2256 H   0  0  0  0  0  0  0  0  0  0  0  0
  -10.6587    2.9838  -10.9921 H   0  0  0  0  0  0  0  0  0  0  0  0
   -7.2032    6.4039  -12.2150 H   0  0  0  0  0  0  0  0  0  0  0  0
  1  2  1  0
  2  3  1  0
  3  4  2  0
  4  5  1  0
  4  6  1  0
  6  7  2  0
  7  8  1  0
  7  9  1  0
  9 10  2  0
  1 11  1  0
 11 12  1  0
 12 13  2  0
 13 14  1  0
 14 15  1  0
 15 16  1  0
 16 17  1  0
 17 18  1  0
 14 19  1  0
 19 20  2  0
 10  3  1  0
 20 12  1  0
 18 13  1  0
  1 21  1  0
  2 22  1  0
  2 23  1  0
  6 24  1  0
  8 25  1  0
  8 26  1  0
  8 27  1  0
  9 28  1  0
 10 29  1  0
 11 30  1  0
 11 31  1  0
 15 32  1  0
 15 33  1  0
 16 34  1  0
 16 35  1  0
 17 36  1  0
 17 37  1  0
 18 38  1  0
 18 39  1  0
 20 40  1  0
A    1
 N1 
A    2
 C1 
A    3
 C2 
A    4
 C3 
A    5
CL1 
A    6
 C4 
A    7
 C5 
A    8
 C6 
A    9
 C7 
A   10
 C8 
A   11
 C9 
A   12
 C10
A   13
 C11
A   14
 N2 
A   15
 C12
A   16
 C13
A   17
 C14
A   18
 C15
A   19
 N3 
A   20
 C16
A   21
 H1 
A   22
 H2 
A   23
 H3 
A   24
 H4 
A   25
 H5 
A   26
 H6 
A   27
 H7 
A   28
 H8 
A   29
 H9 
A   30
 H10
A   31
 H11
A   32
 H12
A   33
 H13
A   34
 H14
A   35
 H15
A   36
 H16
A   37
 H17
A   38
 H18
A   39
 H19
A   40
 H20
M  END
>  <ref_pdb>  (359) 
x0051_0B

>  <ref_mols>  (359) 
x0589_0B,x0969_1B

>  <original SMILES>  (359) 
[H]c1nn2c(c1C([H])([H])N([H])C([H])([H])c1c([H])c([H])c(C([H])([H])[H])c([H])c1Cl)C([H])([H])C([H])([H])C([H])([H])C2([H])[H]

>  <index>  (359) 
666

>  <∆∆G>  (359) 
-5.777128

>  <∆G_bound>  (359) 
-4.983651

>  <∆G_unbound>  (359) 
0.793477

>  <comRMSD>  (359) 
0.59031

>  <N_constrained_atoms>  (359) 
18.0

>  <N_unconstrained_atoms>  (359) 
2.0

>  <runtime>  (359) 
55.309023

>  <LE>  (359) 
0.288856

>  <percent_hybrid>  (359) 
45.0

>  <dist>  (359) 
6.0

>  <ecfp4>  (359) 
0.347222

>  <daylight>  (359) 
0.333333

>  <topodist>  (359) 
2.0

>  <mces>  (359) 
21.0

>  <tdn>  (359) 
0.0

>  <tup>  (359) 
0.0

>  <rdn>  (359) 
0.0

>  <rup>  (359) 
0.0

>  <ldn>  (359) 
1.0

>  <lup>  (359) 
1.0

>  <mut>  (359) 
4.0

>  <maj>  (359) 
3.0

>  <min>  (359) 
1.0

>  <hyb>  (359) 
0.0

>  <sub>  (359) 
0.0

>  <query_index>  (359) 
379.0

>  <max_hit_Tanimoto>  (359) 
0.363946

>  <largest_ring>  (359) 
6

>  <N_interactions_kept>  (359) 
1.0

>  <N_interactions_lost>  (359) 
1.5

>  <interaction_uniqueness_metric>  (359) 
0.147945

>  <ad_hoc_penalty>  (359) 
-20.278572

>  <N_rotatable_bonds>  (359) 
5

>  <N_HA>  (359) 
20

>  <cluster>  (359) 
5608

>  <N_interactions>  (359) 
6

>  <Enamine>  (359) 
0

>  <Mcule>  (359) 
1

>  <N_PAINS>  (359) 
0

>  <UFF_Gibbs>  (359) 
59.513039

>  <strain_per_HA>  (359) 
2.975652

>  <saltbridge:HIS:51>  (359) 
0

>  <pistack:HIS:51>  (359) 
1

>  <hydroph_interaction:HIS:51>  (359) 
1

>  <hbond:ALA:132>  (359) 
0

>  <hbond:SER:135>  (359) 
0

>  <hydroph_interaction:TYR:150>  (359) 
0

>  <pistack:TYR:161>  (359) 
1

>  <hydroph_interaction:TYR:161>  (359) 
1

>  <hydroph_interaction:ASP:83>  (359) 
0

>  <hbond:TYR:130>  (359) 
0

>  <hydroph_interaction:ALA:132>  (359) 
0

>  <hbond:HIS:51>  (359) 
0

>  <hbond:ASP:129>  (359) 
0

>  <hbond:TYR:150>  (359) 
0

>  <hbond:GLY:151>  (359) 
0

>  <hbond:TYR:161>  (359) 
2

>  <hydroph_interaction:TYR:130>  (359) 
0

>  <hydroph_interaction:PRO:131>  (359) 
0

>  <hydroph_interaction:ASP:129>  (359) 
0

>  <saltbridge:ASP:75>  (359) 
0

>  <saltbridge:ASP:83>  (359) 
0

>  <hydroph_interaction:ASN:152>  (359) 
0

>  <halogenbond:TYR:150>  (359) 
0

>  <hbond:ASP:83>  (359) 
0

>  <hydroph_interaction:VAL:155>  (359) 
0

>  <pication:TYR:161>  (359) 
0

>  <hbond:PRO:131>  (359) 
0

>  <hbond:LEU:128>  (359) 
0

>  <saltbridge:ASP:129>  (359) 
0

>  <hbond:THR:134>  (359) 
0

>  <pication:HIS:51>  (359) 
0

>  <hbond:SER:81>  (359) 
0

>  <hbond:GLY:159>  (359) 
0

>  <hydroph_interaction:PRO:101>  (359) 
0

>  <hydroph_interaction:THR:134>  (359) 
0

>  <hbond:GLY:82>  (359) 
0

>  <hydroph_interaction:GLU:104>  (359) 
0

>  <hydroph_interaction:VAL:36>  (359) 
0

>  <hydroph_interaction:MET:49>  (359) 
0

>  <halogenbond:GLU:104>  (359) 
0

>  <hydroph_interaction:LYS:107>  (359) 
0

$$$$
Z3100974166
     RDKit          3D

 43 46  0  0  0  0  0  0  0  0999 V2000
   -8.1713    7.0791  -11.4054 O   0  0  0  0  0  0  0  0  0  0  0  0
   -8.8124    5.9962  -11.4833 C   0  0  0  0  0  0  0  0  0  0  0  0
   -9.5443    5.6830  -12.6774 N   0  0  0  0  0  0  0  0  0  0  0  0
   -9.3013    6.3512  -13.9557 C   0  0  0  0  0  0  0  0  0  0  0  0
   -8.5880    5.4028  -14.9419 C   0  0  0  0  0  0  0  0  0  0  0  0
   -7.1891    4.9681  -14.4451 C   0  0  0  0  0  0  0  0  0  0  0  0
   -6.1682    6.1018  -14.5849 C   0  0  0  0  0  0  0  0  0  0  0  0
   -6.1411    6.5912  -15.9247 O   0  0  0  0  0  0  0  0  0  0  0  0
   -7.2847    6.6482  -16.7297 C   0  0  0  0  0  0  0  0  0  0  0  0
   -7.2133    7.2722  -17.9799 C   0  0  0  0  0  0  0  0  0  0  0  0
   -8.3374    7.3165  -18.8087 C   0  0  0  0  0  0  0  0  0  0  0  0
   -9.5374    6.7344  -18.3926 C   0  0  0  0  0  0  0  0  0  0  0  0
   -9.6173    6.1067  -17.1463 C   0  0  0  0  0  0  0  0  0  0  0  0
   -8.4923    6.0544  -16.3060 C   0  0  0  0  0  0  0  0  0  0  0  0
   -8.8154    5.0859  -10.3219 C   0  0  0  0  0  0  0  0  0  0  0  0
   -9.0323    3.7178  -10.2677 C   0  0  0  0  0  0  0  0  0  0  0  0
   -9.3594    2.7502  -11.3706 C   0  0  0  0  0  0  0  0  0  0  0  0
   -9.0458    1.3685  -10.9660 N   0  0  0  0  0  0  0  0  0  0  0  0
   -9.6047    1.0532   -9.6393 C   0  0  0  0  0  0  0  0  0  0  0  0
   -8.9721    1.9325   -8.5449 C   0  0  0  0  0  0  0  0  0  0  0  0
   -8.9059    3.3198   -8.9919 N   0  0  0  0  0  0  0  0  0  0  0  0
   -8.5776    4.3446   -8.2229 N   0  0  0  0  0  0  0  0  0  0  0  0
   -8.5189    5.4371   -9.0126 C   0  0  0  0  0  0  0  0  0  0  0  0
  -10.2667    4.9312  -12.6570 H   0  0  0  0  0  0  0  0  0  0  0  0
   -8.7187    7.2863  -13.8182 H   0  0  0  0  0  0  0  0  0  0  0  0
  -10.2846    6.6504  -14.3790 H   0  0  0  0  0  0  0  0  0  0  0  0
   -9.2061    4.4816  -15.0361 H   0  0  0  0  0  0  0  0  0  0  0  0
   -7.2254    4.6247  -13.3905 H   0  0  0  0  0  0  0  0  0  0  0  0
   -6.8438    4.1062  -15.0575 H   0  0  0  0  0  0  0  0  0  0  0  0
   -6.4200    6.9332  -13.8944 H   0  0  0  0  0  0  0  0  0  0  0  0
   -5.1577    5.7302  -14.3144 H   0  0  0  0  0  0  0  0  0  0  0  0
   -6.2847    7.7205  -18.3092 H   0  0  0  0  0  0  0  0  0  0  0  0
   -8.2779    7.8009  -19.7747 H   0  0  0  0  0  0  0  0  0  0  0  0
  -10.4071    6.7709  -19.0358 H   0  0  0  0  0  0  0  0  0  0  0  0
  -10.5550    5.6639  -16.8339 H   0  0  0  0  0  0  0  0  0  0  0  0
   -8.7763    3.0032  -12.2811 H   0  0  0  0  0  0  0  0  0  0  0  0
  -10.4411    2.8220  -11.6120 H   0  0  0  0  0  0  0  0  0  0  0  0
   -8.0047    1.2569  -10.9279 H   0  0  0  0  0  0  0  0  0  0  0  0
  -10.7069    1.2040   -9.6510 H   0  0  0  0  0  0  0  0  0  0  0  0
   -9.4159   -0.0164   -9.4056 H   0  0  0  0  0  0  0  0  0  0  0  0
   -9.5744    1.8648   -7.6139 H   0  0  0  0  0  0  0  0  0  0  0  0
   -7.9429    1.5726   -8.3306 H   0  0  0  0  0  0  0  0  0  0  0  0
   -8.2696    6.4281   -8.6570 H   0  0  0  0  0  0  0  0  0  0  0  0
  1  2  2  0
  2  3  1  0
  3  4  1  0
  4  5  1  0
  5  6  1  0
  6  7  1  0
  7  8  1  0
  8  9  1  0
  9 10  2  0
 10 11  1  0
 11 12  2  0
 12 13  1  0
 13 14  2  0
  2 15  1  0
 15 16  2  0
 16 17  1  0
 17 18  1  0
 18 19  1  0
 19 20  1  0
 20 21  1  0
 21 22  1  0
 22 23  2  0
 14  5  1  0
 14  9  1  0
 23 15  1  0
 21 16  1  0
  3 24  1  0
  4 25  1  0
  4 26  1  0
  5 27  1  0
  6 28  1  0
  6 29  1  0
  7 30  1  0
  7 31  1  0
 10 32  1  0
 11 33  1  0
 12 34  1  0
 13 35  1  0
 17 36  1  0
 17 37  1  0
 18 38  1  0
 19 39  1  0
 19 40  1  0
 20 41  1  0
 20 42  1  0
 23 43  1  0
A    1
 O1 
A    2
 C1 
A    3
 N1 
A    4
 C2 
A    5
 C3 
A    6
 C4 
A    7
 C5 
A    8
 O2 
A    9
 C6 
A   10
 C7 
A   11
 C8 
A   12
 C9 
A   13
 C10
A   14
 C11
A   15
 C12
A   16
 C13
A   17
 C14
A   18
 N2 
A   19
 C15
A   20
 C16
A   21
 N3 
A   22
 N4 
A   23
 C17
A   24
 H1 
A   25
 H2 
A   26
 H3 
A   27
 H4 
A   28
 H5 
A   29
 H6 
A   30
 H7 
A   31
 H8 
A   32
 H9 
A   33
 H10
A   34
 H11
A   35
 H12
A   36
 H13
A   37
 H14
A   38
 H15
A   39
 H16
A   40
 H17
A   41
 H18
A   42
 H19
A   43
 H20
M  END
>  <ref_pdb>  (360) 
x0051_0B

>  <ref_mols>  (360) 
x0969_1B,x0455_0B

>  <original SMILES>  (360) 
[H]c1nn2c(c1C(=O)N([H])C([H])([H])C1([H])c3c([H])c([H])c([H])c([H])c3OC([H])([H])C1([H])[H])C([H])([H])N([H])C([H])([H])C2([H])[H]

>  <index>  (360) 
579

>  <∆∆G>  (360) 
-5.637119

>  <∆G_bound>  (360) 
-4.799894

>  <∆G_unbound>  (360) 
0.837226

>  <comRMSD>  (360) 
0.335143

>  <N_constrained_atoms>  (360) 
20.0

>  <N_unconstrained_atoms>  (360) 
3.0

>  <runtime>  (360) 
66.457251

>  <LE>  (360) 
0.245092

>  <percent_hybrid>  (360) 
50.0

>  <dist>  (360) 
5.0

>  <ecfp4>  (360) 
0.367089

>  <daylight>  (360) 
0.443077

>  <topodist>  (360) 
1.0

>  <mces>  (360) 
25.0

>  <tdn>  (360) 
0.0

>  <tup>  (360) 
1.0

>  <rdn>  (360) 
0.0

>  <rup>  (360) 
0.0

>  <ldn>  (360) 
0.0

>  <lup>  (360) 
0.0

>  <mut>  (360) 
3.0

>  <maj>  (360) 
3.0

>  <min>  (360) 
0.0

>  <hyb>  (360) 
1.0

>  <sub>  (360) 
0.0

>  <query_index>  (360) 
204.0

>  <max_hit_Tanimoto>  (360) 
0.447293

>  <largest_ring>  (360) 
6

>  <N_interactions_kept>  (360) 
0.5

>  <N_interactions_lost>  (360) 
2.0

>  <interaction_uniqueness_metric>  (360) 
0.220637

>  <ad_hoc_penalty>  (360) 
-20.236432

>  <N_rotatable_bonds>  (360) 
3

>  <N_HA>  (360) 
23

>  <cluster>  (360) 
5688

>  <N_interactions>  (360) 
6

>  <Enamine>  (360) 
1

>  <Mcule>  (360) 
0

>  <N_PAINS>  (360) 
0

>  <UFF_Gibbs>  (360) 
115.804142

>  <strain_per_HA>  (360) 
5.034963

>  <saltbridge:HIS:51>  (360) 
0

>  <pistack:HIS:51>  (360) 
1

>  <hydroph_interaction:HIS:51>  (360) 
0

>  <hbond:ALA:132>  (360) 
0

>  <hbond:SER:135>  (360) 
0

>  <hydroph_interaction:TYR:150>  (360) 
1

>  <pistack:TYR:161>  (360) 
0

>  <hydroph_interaction:TYR:161>  (360) 
2

>  <hydroph_interaction:ASP:83>  (360) 
0

>  <hbond:TYR:130>  (360) 
0

>  <hydroph_interaction:ALA:132>  (360) 
0

>  <hbond:HIS:51>  (360) 
0

>  <hbond:ASP:129>  (360) 
0

>  <hbond:TYR:150>  (360) 
0

>  <hbond:GLY:151>  (360) 
1

>  <hbond:TYR:161>  (360) 
0

>  <hydroph_interaction:TYR:130>  (360) 
0

>  <hydroph_interaction:PRO:131>  (360) 
0

>  <hydroph_interaction:ASP:129>  (360) 
0

>  <saltbridge:ASP:75>  (360) 
0

>  <saltbridge:ASP:83>  (360) 
0

>  <hydroph_interaction:ASN:152>  (360) 
0

>  <halogenbond:TYR:150>  (360) 
0

>  <hbond:ASP:83>  (360) 
1

>  <hydroph_interaction:VAL:155>  (360) 
0

>  <pication:TYR:161>  (360) 
0

>  <hbond:PRO:131>  (360) 
0

>  <hbond:LEU:128>  (360) 
0

>  <saltbridge:ASP:129>  (360) 
0

>  <hbond:THR:134>  (360) 
0

>  <pication:HIS:51>  (360) 
0

>  <hbond:SER:81>  (360) 
0

>  <hbond:GLY:159>  (360) 
0

>  <hydroph_interaction:PRO:101>  (360) 
0

>  <hydroph_interaction:THR:134>  (360) 
0

>  <hbond:GLY:82>  (360) 
0

>  <hydroph_interaction:GLU:104>  (360) 
0

>  <hydroph_interaction:VAL:36>  (360) 
0

>  <hydroph_interaction:MET:49>  (360) 
0

>  <halogenbond:GLU:104>  (360) 
0

>  <hydroph_interaction:LYS:107>  (360) 
0

$$$$
Z3577257414
     RDKit          3D

 43 46  0  0  0  0  0  0  0  0999 V2000
   -6.9027    7.0706  -12.5845 O   0  0  0  0  0  0  0  0  0  0  0  0
   -7.3429    6.0375  -13.1565 C   0  0  0  0  0  0  0  0  0  0  0  0
   -8.0113    5.0193  -12.3943 N   0  0  0  0  0  0  0  0  0  0  0  0
   -8.5455    5.2295  -11.0781 C   0  0  0  0  0  0  0  0  0  0  0  0
   -8.9618    4.2547  -10.1983 C   0  0  0  0  0  0  0  0  0  0  0  0
   -8.9711    2.7679  -10.3950 C   0  0  0  0  0  0  0  0  0  0  0  0
   -9.2061    2.0532   -9.0545 C   0  0  0  0  0  0  0  0  0  0  0  0
  -10.3451    2.7122   -8.2582 C   0  0  0  0  0  0  0  0  0  0  0  0
  -10.0140    4.1798   -7.9399 C   0  0  0  0  0  0  0  0  0  0  0  0
   -9.5032    4.8620   -9.1275 N   0  0  0  0  0  0  0  0  0  0  0  0
   -9.4292    6.1775   -9.2650 N   0  0  0  0  0  0  0  0  0  0  0  0
   -8.8549    6.4325  -10.4608 C   0  0  0  0  0  0  0  0  0  0  0  0
   -7.1242    5.8774  -14.6051 C   0  0  0  0  0  0  0  0  0  0  0  0
   -7.6422    4.8779  -15.4273 C   0  0  0  0  0  0  0  0  0  0  0  0
   -7.2969    4.9815  -16.7383 N   0  0  0  0  0  0  0  0  0  0  0  0
   -6.5014    6.0498  -16.9725 C   0  0  0  0  0  0  0  0  0  0  0  0
   -5.9993    6.4381  -18.3345 C   0  0  0  0  0  0  0  0  0  0  0  0
   -7.1465    6.9729  -19.2132 C   0  0  0  0  0  0  0  0  0  0  0  0
   -6.7840    6.9095  -20.7093 C   0  0  0  0  0  0  0  0  0  0  0  0
   -5.3815    6.8937  -20.8918 O   0  0  0  0  0  0  0  0  0  0  0  0
   -4.8464    5.6536  -20.4545 C   0  0  0  0  0  0  0  0  0  0  0  0
   -5.3000    5.2604  -19.0285 C   0  0  0  0  0  0  0  0  0  0  0  0
   -6.2143    6.9217  -15.5631 S   0  0  0  0  0  0  0  0  0  0  0  0
   -8.0764    4.0571  -12.7930 H   0  0  0  0  0  0  0  0  0  0  0  0
   -8.0033    2.4361  -10.8276 H   0  0  0  0  0  0  0  0  0  0  0  0
   -9.7865    2.5067  -11.1031 H   0  0  0  0  0  0  0  0  0  0  0  0
   -9.4567    0.9877   -9.2461 H   0  0  0  0  0  0  0  0  0  0  0  0
   -8.2720    2.0808   -8.4510 H   0  0  0  0  0  0  0  0  0  0  0  0
  -10.5068    2.1563   -7.3098 H   0  0  0  0  0  0  0  0  0  0  0  0
  -11.2848    2.6645   -8.8510 H   0  0  0  0  0  0  0  0  0  0  0  0
  -10.9277    4.6955   -7.5742 H   0  0  0  0  0  0  0  0  0  0  0  0
   -9.2425    4.2206   -7.1411 H   0  0  0  0  0  0  0  0  0  0  0  0
   -8.7077    7.4273  -10.8570 H   0  0  0  0  0  0  0  0  0  0  0  0
   -8.2849    4.0826  -15.0770 H   0  0  0  0  0  0  0  0  0  0  0  0
   -5.2477    7.2503  -18.2104 H   0  0  0  0  0  0  0  0  0  0  0  0
   -7.3602    8.0252  -18.9234 H   0  0  0  0  0  0  0  0  0  0  0  0
   -8.0757    6.3828  -19.0506 H   0  0  0  0  0  0  0  0  0  0  0  0
   -7.2563    6.0196  -21.1869 H   0  0  0  0  0  0  0  0  0  0  0  0
   -7.1992    7.8027  -21.2223 H   0  0  0  0  0  0  0  0  0  0  0  0
   -5.1079    4.8492  -21.1779 H   0  0  0  0  0  0  0  0  0  0  0  0
   -3.7392    5.7413  -20.4628 H   0  0  0  0  0  0  0  0  0  0  0  0
   -4.4219    4.9345  -18.4285 H   0  0  0  0  0  0  0  0  0  0  0  0
   -6.0020    4.3999  -19.0998 H   0  0  0  0  0  0  0  0  0  0  0  0
  1  2  2  0
  2  3  1  0
  3  4  1  0
  4  5  2  0
  5  6  1  0
  6  7  1  0
  7  8  1  0
  8  9  1  0
  9 10  1  0
 10 11  1  0
 11 12  2  0
  2 13  1  0
 13 14  2  0
 14 15  1  0
 15 16  2  0
 16 17  1  0
 17 18  1  0
 18 19  1  0
 19 20  1  0
 20 21  1  0
 21 22  1  0
 16 23  1  0
 12  4  1  0
 10  5  1  0
 23 13  1  0
 22 17  1  0
  3 24  1  0
  6 25  1  0
  6 26  1  0
  7 27  1  0
  7 28  1  0
  8 29  1  0
  8 30  1  0
  9 31  1  0
  9 32  1  0
 12 33  1  0
 14 34  1  0
 17 35  1  0
 18 36  1  0
 18 37  1  0
 19 38  1  0
 19 39  1  0
 21 40  1  0
 21 41  1  0
 22 42  1  0
 22 43  1  0
A    1
 O1 
A    2
 C1 
A    3
 N1 
A    4
 C2 
A    5
 C3 
A    6
 C4 
A    7
 C5 
A    8
 C6 
A    9
 C7 
A   10
 N2 
A   11
 N3 
A   12
 C8 
A   13
 C9 
A   14
 C10
A   15
 N4 
A   16
 C11
A   17
 C12
A   18
 C13
A   19
 C14
A   20
 O2 
A   21
 C15
A   22
 C16
A   23
 S1 
A   24
 H1 
A   25
 H2 
A   26
 H3 
A   27
 H4 
A   28
 H5 
A   29
 H6 
A   30
 H7 
A   31
 H8 
A   32
 H9 
A   33
 H10
A   34
 H11
A   35
 H12
A   36
 H13
A   37
 H14
A   38
 H15
A   39
 H16
A   40
 H17
A   41
 H18
A   42
 H19
A   43
 H20
M  END
>  <ref_pdb>  (361) 
x0051_0B

>  <ref_mols>  (361) 
x0917_1B,x0969_1B

>  <original SMILES>  (361) 
[H]c1nc(C2([H])C([H])([H])C([H])([H])OC([H])([H])C2([H])[H])sc1C(=O)N([H])c1c([H])nn2c1C([H])([H])C([H])([H])C([H])([H])C2([H])[H]

>  <index>  (361) 
586

>  <∆∆G>  (361) 
-5.093161

>  <∆G_bound>  (361) 
-4.429848

>  <∆G_unbound>  (361) 
0.663313

>  <comRMSD>  (361) 
0.636535

>  <N_constrained_atoms>  (361) 
24.0

>  <N_unconstrained_atoms>  (361) 
0.0

>  <runtime>  (361) 
76.804519

>  <LE>  (361) 
0.212215

>  <percent_hybrid>  (361) 
40.0

>  <dist>  (361) 
10.0

>  <ecfp4>  (361) 
0.215909

>  <daylight>  (361) 
0.292191

>  <topodist>  (361) 
2.0

>  <mces>  (361) 
26.0

>  <tdn>  (361) 
2.0

>  <tup>  (361) 
0.0

>  <rdn>  (361) 
0.0

>  <rup>  (361) 
0.0

>  <ldn>  (361) 
0.0

>  <lup>  (361) 
0.0

>  <mut>  (361) 
6.0

>  <maj>  (361) 
6.0

>  <min>  (361) 
0.0

>  <hyb>  (361) 
2.0

>  <sub>  (361) 
0.0

>  <query_index>  (361) 
298.0

>  <max_hit_Tanimoto>  (361) 
0.259916

>  <largest_ring>  (361) 
6

>  <N_interactions_kept>  (361) 
1.0

>  <N_interactions_lost>  (361) 
2.0

>  <interaction_uniqueness_metric>  (361) 
0.147635

>  <ad_hoc_penalty>  (361) 
-20.197555

>  <N_rotatable_bonds>  (361) 
3

>  <N_HA>  (361) 
23

>  <cluster>  (361) 
5682

>  <N_interactions>  (361) 
6

>  <Enamine>  (361) 
1

>  <Mcule>  (361) 
0

>  <N_PAINS>  (361) 
0

>  <UFF_Gibbs>  (361) 
98.268876

>  <strain_per_HA>  (361) 
4.094537

>  <saltbridge:HIS:51>  (361) 
0

>  <pistack:HIS:51>  (361) 
1

>  <hydroph_interaction:HIS:51>  (361) 
1

>  <hbond:ALA:132>  (361) 
0

>  <hbond:SER:135>  (361) 
0

>  <hydroph_interaction:TYR:150>  (361) 
0

>  <pistack:TYR:161>  (361) 
1

>  <hydroph_interaction:TYR:161>  (361) 
1

>  <hydroph_interaction:ASP:83>  (361) 
0

>  <hbond:TYR:130>  (361) 
0

>  <hydroph_interaction:ALA:132>  (361) 
1

>  <hbond:HIS:51>  (361) 
0

>  <hbond:ASP:129>  (361) 
0

>  <hbond:TYR:150>  (361) 
0

>  <hbond:GLY:151>  (361) 
1

>  <hbond:TYR:161>  (361) 
0

>  <hydroph_interaction:TYR:130>  (361) 
0

>  <hydroph_interaction:PRO:131>  (361) 
0

>  <hydroph_interaction:ASP:129>  (361) 
0

>  <saltbridge:ASP:75>  (361) 
0

>  <saltbridge:ASP:83>  (361) 
0

>  <hydroph_interaction:ASN:152>  (361) 
0

>  <halogenbond:TYR:150>  (361) 
0

>  <hbond:ASP:83>  (361) 
0

>  <hydroph_interaction:VAL:155>  (361) 
0

>  <pication:TYR:161>  (361) 
0

>  <hbond:PRO:131>  (361) 
0

>  <hbond:LEU:128>  (361) 
0

>  <saltbridge:ASP:129>  (361) 
0

>  <hbond:THR:134>  (361) 
0

>  <pication:HIS:51>  (361) 
0

>  <hbond:SER:81>  (361) 
0

>  <hbond:GLY:159>  (361) 
0

>  <hydroph_interaction:PRO:101>  (361) 
0

>  <hydroph_interaction:THR:134>  (361) 
0

>  <hbond:GLY:82>  (361) 
0

>  <hydroph_interaction:GLU:104>  (361) 
0

>  <hydroph_interaction:VAL:36>  (361) 
0

>  <hydroph_interaction:MET:49>  (361) 
0

>  <halogenbond:GLU:104>  (361) 
0

>  <hydroph_interaction:LYS:107>  (361) 
0

$$$$
ATYRMOMAEZWGPI-UHFFFAOYSA-N
     RDKit          3D

 54 57  0  0  0  0  0  0  0  0999 V2000
   -8.8863    5.9711  -14.2182 C   0  0  0  0  0  0  0  0  0  0  0  0
   -8.2949    5.3307  -15.3611 N   0  0  0  0  0  0  0  0  0  0  0  0
   -8.6544    5.6567  -16.7128 C   0  0  0  0  0  0  0  0  0  0  0  0
  -10.0088    5.8309  -17.0713 C   0  0  0  0  0  0  0  0  0  0  0  0
  -10.3772    5.9907  -18.4186 C   0  0  0  0  0  0  0  0  0  0  0  0
   -9.4044    5.9503  -19.4259 C   0  0  0  0  0  0  0  0  0  0  0  0
   -8.0704    5.7789  -19.0583 C   0  0  0  0  0  0  0  0  0  0  0  0
   -6.8951    5.6541  -19.9595 C   0  0  0  0  0  0  0  0  0  0  0  0
   -5.7206    5.4235  -18.9828 C   0  0  0  0  0  0  0  0  0  0  0  0
   -6.2811    5.5229  -17.6319 N   0  0  0  0  0  0  0  0  0  0  0  0
   -5.4779    5.9024  -16.5021 C   0  0  0  0  0  0  0  0  0  0  0  0
   -4.0903    5.3679  -16.3489 C   0  0  0  0  0  0  0  0  0  0  0  0
   -5.9036    6.7542  -15.6766 O   0  0  0  0  0  0  0  0  0  0  0  0
   -7.6933    5.6743  -17.7444 C   0  0  0  0  0  0  0  0  0  0  0  0
   -9.5139    7.0556  -14.3668 O   0  0  0  0  0  0  0  0  0  0  0  0
   -8.7301    5.4004  -12.8584 C   0  0  0  0  0  0  0  0  0  0  0  0
   -8.8881    6.2197  -11.7270 C   0  0  0  0  0  0  0  0  0  0  0  0
   -8.7450    5.6914  -10.4413 C   0  0  0  0  0  0  0  0  0  0  0  0
   -8.4431    4.3325  -10.2588 C   0  0  0  0  0  0  0  0  0  0  0  0
   -8.3116    3.7845   -8.9324 N   0  0  0  0  0  0  0  0  0  0  0  0
   -8.9569    2.5118   -8.5918 C   0  0  0  0  0  0  0  0  0  0  0  0
   -9.1074    2.3685   -7.0673 C   0  0  0  0  0  0  0  0  0  0  0  0
   -9.4460    3.6567   -6.4246 N   0  0  0  0  0  0  0  0  0  0  0  0
  -10.7972    4.1143   -6.7934 C   0  0  0  0  0  0  0  0  0  0  0  0
   -8.4242    4.7133   -6.6490 C   0  0  0  0  0  0  0  0  0  0  0  0
   -7.5468    4.4804   -7.8937 C   0  0  0  0  0  0  0  0  0  0  0  0
   -8.3074    3.5077  -11.3865 C   0  0  0  0  0  0  0  0  0  0  0  0
   -8.4482    4.0353  -12.6732 C   0  0  0  0  0  0  0  0  0  0  0  0
   -7.5190    4.6485  -15.2110 H   0  0  0  0  0  0  0  0  0  0  0  0
  -10.7843    5.7982  -16.3171 H   0  0  0  0  0  0  0  0  0  0  0  0
  -11.4199    6.1126  -18.6817 H   0  0  0  0  0  0  0  0  0  0  0  0
   -9.6849    6.0388  -20.4675 H   0  0  0  0  0  0  0  0  0  0  0  0
   -7.0209    4.7884  -20.6447 H   0  0  0  0  0  0  0  0  0  0  0  0
   -6.7555    6.5925  -20.5380 H   0  0  0  0  0  0  0  0  0  0  0  0
   -4.9393    6.1996  -19.1373 H   0  0  0  0  0  0  0  0  0  0  0  0
   -5.2792    4.4145  -19.1312 H   0  0  0  0  0  0  0  0  0  0  0  0
   -3.3848    5.9942  -16.9332 H   0  0  0  0  0  0  0  0  0  0  0  0
   -4.0442    4.3218  -16.7175 H   0  0  0  0  0  0  0  0  0  0  0  0
   -3.7901    5.3806  -15.2797 H   0  0  0  0  0  0  0  0  0  0  0  0
   -9.1178    7.2725  -11.8356 H   0  0  0  0  0  0  0  0  0  0  0  0
   -8.8901    6.3406   -9.5873 H   0  0  0  0  0  0  0  0  0  0  0  0
   -8.3566    1.6656   -8.9886 H   0  0  0  0  0  0  0  0  0  0  0  0
   -9.9664    2.4720   -9.0564 H   0  0  0  0  0  0  0  0  0  0  0  0
   -9.8796    1.6028   -6.8345 H   0  0  0  0  0  0  0  0  0  0  0  0
   -8.1524    1.9920   -6.6390 H   0  0  0  0  0  0  0  0  0  0  0  0
  -11.5392    3.2996   -6.6497 H   0  0  0  0  0  0  0  0  0  0  0  0
  -11.1008    4.9544   -6.1330 H   0  0  0  0  0  0  0  0  0  0  0  0
  -10.8330    4.4602   -7.8495 H   0  0  0  0  0  0  0  0  0  0  0  0
   -8.8937    5.7203   -6.7286 H   0  0  0  0  0  0  0  0  0  0  0  0
   -7.7633    4.7556   -5.7573 H   0  0  0  0  0  0  0  0  0  0  0  0
   -6.6754    3.8490   -7.6141 H   0  0  0  0  0  0  0  0  0  0  0  0
   -7.1374    5.4466   -8.2589 H   0  0  0  0  0  0  0  0  0  0  0  0
   -8.0845    2.4550  -11.2723 H   0  0  0  0  0  0  0  0  0  0  0  0
   -8.3564    3.3653  -13.5177 H   0  0  0  0  0  0  0  0  0  0  0  0
  1  2  1  0
  2  3  1  0
  3  4  2  0
  4  5  1  0
  5  6  2  0
  6  7  1  0
  7  8  1  0
  8  9  1  0
  9 10  1  0
 10 11  1  0
 11 12  1  0
 11 13  2  0
 10 14  1  0
  1 15  2  0
  1 16  1  0
 16 17  2  0
 17 18  1  0
 18 19  2  0
 19 20  1  0
 20 21  1  0
 21 22  1  0
 22 23  1  0
 23 24  1  0
 23 25  1  0
 25 26  1  0
 19 27  1  0
 27 28  2  0
 14  3  1  0
  7 14  2  0
 28 16  1  0
 26 20  1  0
  2 29  1  0
  4 30  1  0
  5 31  1  0
  6 32  1  0
  8 33  1  0
  8 34  1  0
  9 35  1  0
  9 36  1  0
 12 37  1  0
 12 38  1  0
 12 39  1  0
 17 40  1  0
 18 41  1  0
 21 42  1  0
 21 43  1  0
 22 44  1  0
 22 45  1  0
 24 46  1  0
 24 47  1  0
 24 48  1  0
 25 49  1  0
 25 50  1  0
 26 51  1  0
 26 52  1  0
 27 53  1  0
 28 54  1  0
A    1
 C1 
A    2
 N1 
A    3
 C2 
A    4
 C3 
A    5
 C4 
A    6
 C5 
A    7
 C6 
A    8
 C7 
A    9
 C8 
A   10
 N2 
A   11
 C9 
A   12
 C10
A   13
 O1 
A   14
 C11
A   15
 O2 
A   16
 C12
A   17
 C13
A   18
 C14
A   19
 C15
A   20
 N3 
A   21
 C16
A   22
 C17
A   23
 N4 
A   24
 C18
A   25
 C19
A   26
 C20
A   27
 C21
A   28
 C22
A   29
 H1 
A   30
 H2 
A   31
 H3 
A   32
 H4 
A   33
 H5 
A   34
 H6 
A   35
 H7 
A   36
 H8 
A   37
 H9 
A   38
 H10
A   39
 H11
A   40
 H12
A   41
 H13
A   42
 H14
A   43
 H15
A   44
 H16
A   45
 H17
A   46
 H18
A   47
 H19
A   48
 H20
A   49
 H21
A   50
 H22
A   51
 H23
A   52
 H24
A   53
 H25
A   54
 H26
M  END
>  <ref_pdb>  (362) 
x0051_0B

>  <ref_mols>  (362) 
x0490_0B,x0404_0B

>  <original SMILES>  (362) 
[H]c1c([H])c(N([H])C(=O)c2c([H])c([H])c(N3C([H])([H])C([H])([H])N(C([H])([H])[H])C([H])([H])C3([H])[H])c([H])c2[H])c2c(c1[H])C([H])([H])C([H])([H])N2C(=O)C([H])([H])[H]

>  <index>  (362) 
152

>  <∆∆G>  (362) 
-10.057607

>  <∆G_bound>  (362) 
-8.457036

>  <∆G_unbound>  (362) 
1.600571

>  <comRMSD>  (362) 
0.587688

>  <N_constrained_atoms>  (362) 
26.0

>  <N_unconstrained_atoms>  (362) 
2.0

>  <runtime>  (362) 
70.872479

>  <LE>  (362) 
0.3592

>  <percent_hybrid>  (362) 
43.0

>  <dist>  (362) 
9.0

>  <ecfp4>  (362) 
0.181818

>  <daylight>  (362) 
0.182836

>  <topodist>  (362) 
4.0

>  <mces>  (362) 
29.0

>  <tdn>  (362) 
1.0

>  <tup>  (362) 
2.0

>  <rdn>  (362) 
0.0

>  <rup>  (362) 
0.0

>  <ldn>  (362) 
1.0

>  <lup>  (362) 
0.0

>  <mut>  (362) 
2.0

>  <maj>  (362) 
2.0

>  <min>  (362) 
0.0

>  <hyb>  (362) 
3.0

>  <sub>  (362) 
1.0

>  <query_index>  (362) 
10.0

>  <max_hit_Tanimoto>  (362) 
0.24385

>  <largest_ring>  (362) 
6

>  <N_interactions_kept>  (362) 
2.5

>  <N_interactions_lost>  (362) 
2.0

>  <interaction_uniqueness_metric>  (362) 
0.162272

>  <ad_hoc_penalty>  (362) 
-20.15495

>  <N_rotatable_bonds>  (362) 
5

>  <N_HA>  (362) 
28

>  <cluster>  (362) 
6080

>  <N_interactions>  (362) 
6

>  <Enamine>  (362) 
0

>  <Mcule>  (362) 
1

>  <N_PAINS>  (362) 
0

>  <UFF_Gibbs>  (362) 
355.800396

>  <strain_per_HA>  (362) 
12.707157

>  <saltbridge:HIS:51>  (362) 
0

>  <pistack:HIS:51>  (362) 
1

>  <hydroph_interaction:HIS:51>  (362) 
0

>  <hbond:ALA:132>  (362) 
0

>  <hbond:SER:135>  (362) 
0

>  <hydroph_interaction:TYR:150>  (362) 
1

>  <pistack:TYR:161>  (362) 
0

>  <hydroph_interaction:TYR:161>  (362) 
3

>  <hydroph_interaction:ASP:83>  (362) 
0

>  <hbond:TYR:130>  (362) 
0

>  <hydroph_interaction:ALA:132>  (362) 
0

>  <hbond:HIS:51>  (362) 
0

>  <hbond:ASP:129>  (362) 
0

>  <hbond:TYR:150>  (362) 
0

>  <hbond:GLY:151>  (362) 
0

>  <hbond:TYR:161>  (362) 
0

>  <hydroph_interaction:TYR:130>  (362) 
0

>  <hydroph_interaction:PRO:131>  (362) 
0

>  <hydroph_interaction:ASP:129>  (362) 
0

>  <saltbridge:ASP:75>  (362) 
1

>  <saltbridge:ASP:83>  (362) 
0

>  <hydroph_interaction:ASN:152>  (362) 
0

>  <halogenbond:TYR:150>  (362) 
0

>  <hbond:ASP:83>  (362) 
0

>  <hydroph_interaction:VAL:155>  (362) 
0

>  <pication:TYR:161>  (362) 
0

>  <hbond:PRO:131>  (362) 
0

>  <hbond:LEU:128>  (362) 
0

>  <saltbridge:ASP:129>  (362) 
0

>  <hbond:THR:134>  (362) 
0

>  <pication:HIS:51>  (362) 
0

>  <hbond:SER:81>  (362) 
0

>  <hbond:GLY:159>  (362) 
0

>  <hydroph_interaction:PRO:101>  (362) 
0

>  <hydroph_interaction:THR:134>  (362) 
0

>  <hbond:GLY:82>  (362) 
0

>  <hydroph_interaction:GLU:104>  (362) 
0

>  <hydroph_interaction:VAL:36>  (362) 
0

>  <hydroph_interaction:MET:49>  (362) 
0

>  <halogenbond:GLU:104>  (362) 
0

>  <hydroph_interaction:LYS:107>  (362) 
0

$$$$
MCULE-3730648290
     RDKit          3D

 55 58  0  0  0  0  0  0  0  0999 V2000
   -6.3971    6.3998  -19.7822 C   0  0  0  0  0  0  0  0  0  0  0  0
   -5.0674    6.0233  -20.0414 C   0  0  0  0  0  0  0  0  0  0  0  0
   -4.4989    6.2618  -21.2968 C   0  0  0  0  0  0  0  0  0  0  0  0
   -5.2494    6.8834  -22.2990 C   0  0  0  0  0  0  0  0  0  0  0  0
   -6.5680    7.2733  -22.0455 C   0  0  0  0  0  0  0  0  0  0  0  0
   -7.1405    7.0375  -20.7911 C   0  0  0  0  0  0  0  0  0  0  0  0
   -6.9913    6.1535  -18.4474 C   0  0  0  0  0  0  0  0  0  0  0  0
   -8.1601    5.3772  -18.2683 C   0  0  0  0  0  0  0  0  0  0  0  0
   -8.8725    4.7225  -19.4163 C   0  0  0  0  0  0  0  0  0  0  0  0
   -8.6666    5.2076  -17.0154 N   0  0  0  0  0  0  0  0  0  0  0  0
   -8.0883    5.7437  -15.9071 C   0  0  0  0  0  0  0  0  0  0  0  0
   -8.6715    5.4787  -14.6202 N   0  0  0  0  0  0  0  0  0  0  0  0
   -8.5036    6.3235  -13.4691 C   0  0  0  0  0  0  0  0  0  0  0  0
   -8.6780    5.7825  -12.0973 C   0  0  0  0  0  0  0  0  0  0  0  0
   -8.8457    6.6569  -11.0081 C   0  0  0  0  0  0  0  0  0  0  0  0
   -9.0005    6.1563   -9.7119 C   0  0  0  0  0  0  0  0  0  0  0  0
   -8.9858    4.7739   -9.4769 C   0  0  0  0  0  0  0  0  0  0  0  0
   -9.1533    4.2657   -8.1396 N   0  0  0  0  0  0  0  0  0  0  0  0
  -10.0218    3.1135   -7.8893 C   0  0  0  0  0  0  0  0  0  0  0  0
  -10.7117    3.2618   -6.5253 C   0  0  0  0  0  0  0  0  0  0  0  0
   -9.7625    3.5786   -5.4373 N   0  0  0  0  0  0  0  0  0  0  0  0
   -8.9466    2.4173   -5.0418 C   0  0  0  0  0  0  0  0  0  0  0  0
   -8.9446    4.7710   -5.7427 C   0  0  0  0  0  0  0  0  0  0  0  0
   -8.2127    4.6575   -7.0869 C   0  0  0  0  0  0  0  0  0  0  0  0
   -8.8138    3.8975  -10.5597 C   0  0  0  0  0  0  0  0  0  0  0  0
   -8.6558    4.3957  -11.8561 C   0  0  0  0  0  0  0  0  0  0  0  0
   -8.2467    7.5497  -13.6271 O   0  0  0  0  0  0  0  0  0  0  0  0
   -6.9006    6.4770  -16.0424 C   0  0  0  0  0  0  0  0  0  0  0  0
   -6.3613    6.6836  -17.3121 C   0  0  0  0  0  0  0  0  0  0  0  0
   -4.4754    5.5372  -19.2748 H   0  0  0  0  0  0  0  0  0  0  0  0
   -3.4766    5.9637  -21.4926 H   0  0  0  0  0  0  0  0  0  0  0  0
   -4.8079    7.0671  -23.2704 H   0  0  0  0  0  0  0  0  0  0  0  0
   -7.1449    7.7625  -22.8198 H   0  0  0  0  0  0  0  0  0  0  0  0
   -8.1565    7.3632  -20.6037 H   0  0  0  0  0  0  0  0  0  0  0  0
   -9.5325    5.4594  -19.9182 H   0  0  0  0  0  0  0  0  0  0  0  0
   -9.4997    3.8826  -19.0485 H   0  0  0  0  0  0  0  0  0  0  0  0
   -8.1460    4.3098  -20.1473 H   0  0  0  0  0  0  0  0  0  0  0  0
   -9.3525    4.6880  -14.5561 H   0  0  0  0  0  0  0  0  0  0  0  0
   -8.8672    7.7296  -11.1587 H   0  0  0  0  0  0  0  0  0  0  0  0
   -9.1471    6.8469   -8.8911 H   0  0  0  0  0  0  0  0  0  0  0  0
   -9.4215    2.1796   -7.9218 H   0  0  0  0  0  0  0  0  0  0  0  0
  -10.8071    3.0436   -8.6744 H   0  0  0  0  0  0  0  0  0  0  0  0
  -11.2755    2.3317   -6.2893 H   0  0  0  0  0  0  0  0  0  0  0  0
  -11.4638    4.0799   -6.5939 H   0  0  0  0  0  0  0  0  0  0  0  0
   -8.2974    2.0651   -5.8702 H   0  0  0  0  0  0  0  0  0  0  0  0
   -9.6061    1.5813   -4.7231 H   0  0  0  0  0  0  0  0  0  0  0  0
   -8.3066    2.6788   -4.1723 H   0  0  0  0  0  0  0  0  0  0  0  0
   -8.2061    4.9527   -4.9311 H   0  0  0  0  0  0  0  0  0  0  0  0
   -9.6090    5.6623   -5.7730 H   0  0  0  0  0  0  0  0  0  0  0  0
   -7.3992    3.9045   -7.0204 H   0  0  0  0  0  0  0  0  0  0  0  0
   -7.7402    5.6355   -7.3183 H   0  0  0  0  0  0  0  0  0  0  0  0
   -8.7836    2.8274  -10.3978 H   0  0  0  0  0  0  0  0  0  0  0  0
   -8.4971    3.6916  -12.6621 H   0  0  0  0  0  0  0  0  0  0  0  0
   -6.3799    6.8692  -15.1788 H   0  0  0  0  0  0  0  0  0  0  0  0
   -5.4511    7.2623  -17.4102 H   0  0  0  0  0  0  0  0  0  0  0  0
  1  2  2  0
  2  3  1  0
  3  4  2  0
  4  5  1  0
  5  6  2  0
  1  7  1  0
  7  8  2  0
  8  9  1  0
  8 10  1  0
 10 11  2  0
 11 12  1  0
 12 13  1  0
 13 14  1  0
 14 15  2  0
 15 16  1  0
 16 17  2  0
 17 18  1  0
 18 19  1  0
 19 20  1  0
 20 21  1  0
 21 22  1  0
 21 23  1  0
 23 24  1  0
 17 25  1  0
 25 26  2  0
 13 27  2  0
 11 28  1  0
 28 29  2  0
  6  1  1  0
 29  7  1  0
 14 26  1  0
 24 18  1  0
  2 30  1  0
  3 31  1  0
  4 32  1  0
  5 33  1  0
  6 34  1  0
  9 35  1  0
  9 36  1  0
  9 37  1  0
 12 38  1  0
 15 39  1  0
 16 40  1  0
 19 41  1  0
 19 42  1  0
 20 43  1  0
 20 44  1  0
 22 45  1  0
 22 46  1  0
 22 47  1  0
 23 48  1  0
 23 49  1  0
 24 50  1  0
 24 51  1  0
 25 52  1  0
 26 53  1  0
 28 54  1  0
 29 55  1  0
A    1
 C1 
A    2
 C2 
A    3
 C3 
A    4
 C4 
A    5
 C5 
A    6
 C6 
A    7
 C7 
A    8
 C8 
A    9
 C9 
A   10
 N1 
A   11
 C10
A   12
 N2 
A   13
 C11
A   14
 C12
A   15
 C13
A   16
 C14
A   17
 C15
A   18
 N3 
A   19
 C16
A   20
 C17
A   21
 N4 
A   22
 C18
A   23
 C19
A   24
 C20
A   25
 C21
A   26
 C22
A   27
 O1 
A   28
 C23
A   29
 C24
A   30
 H1 
A   31
 H2 
A   32
 H3 
A   33
 H4 
A   34
 H5 
A   35
 H6 
A   36
 H7 
A   37
 H8 
A   38
 H9 
A   39
 H10
A   40
 H11
A   41
 H12
A   42
 H13
A   43
 H14
A   44
 H15
A   45
 H16
A   46
 H17
A   47
 H18
A   48
 H19
A   49
 H20
A   50
 H21
A   51
 H22
A   52
 H23
A   53
 H24
A   54
 H25
A   55
 H26
M  END
>  <ref_pdb>  (363) 
x0051_0B

>  <ref_mols>  (363) 
x0404_0B,x0803_0B

>  <original SMILES>  (363) 
[H]c1c(N([H])C(=O)c2c([H])c([H])c(N3C([H])([H])C([H])([H])N(C([H])([H])[H])C([H])([H])C3([H])[H])c([H])c2[H])nc(C([H])([H])[H])c(-c2c([H])c([H])c([H])c([H])c2[H])c1[H]

>  <index>  (363) 
101

>  <∆∆G>  (363) 
-8.380845

>  <∆G_bound>  (363) 
-8.3984

>  <∆G_unbound>  (363) 
-0.017555

>  <comRMSD>  (363) 
0.890279

>  <N_constrained_atoms>  (363) 
27.0

>  <N_unconstrained_atoms>  (363) 
3.0

>  <runtime>  (363) 
107.001637

>  <LE>  (363) 
0.279361

>  <percent_hybrid>  (363) 
45.0

>  <dist>  (363) 
12.0

>  <ecfp4>  (363) 
0.176471

>  <daylight>  (363) 
0.195804

>  <topodist>  (363) 
3.0

>  <mces>  (363) 
30.0

>  <tdn>  (363) 
1.0

>  <tup>  (363) 
1.0

>  <rdn>  (363) 
0.0

>  <rup>  (363) 
0.0

>  <ldn>  (363) 
0.0

>  <lup>  (363) 
1.0

>  <mut>  (363) 
3.0

>  <maj>  (363) 
3.0

>  <min>  (363) 
0.0

>  <hyb>  (363) 
6.0

>  <sub>  (363) 
1.0

>  <query_index>  (363) 
94.0

>  <max_hit_Tanimoto>  (363) 
0.247446

>  <largest_ring>  (363) 
6

>  <N_interactions_kept>  (363) 
4.0

>  <N_interactions_lost>  (363) 
3.0

>  <interaction_uniqueness_metric>  (363) 
0.28932

>  <ad_hoc_penalty>  (363) 
-20.145201

>  <N_rotatable_bonds>  (363) 
6

>  <N_HA>  (363) 
29

>  <cluster>  (363) 
529

>  <N_interactions>  (363) 
10

>  <Enamine>  (363) 
0

>  <Mcule>  (363) 
1

>  <N_PAINS>  (363) 
0

>  <UFF_Gibbs>  (363) 
507.935462

>  <strain_per_HA>  (363) 
16.931182

>  <saltbridge:HIS:51>  (363) 
0

>  <pistack:HIS:51>  (363) 
1

>  <hydroph_interaction:HIS:51>  (363) 
1

>  <hbond:ALA:132>  (363) 
0

>  <hbond:SER:135>  (363) 
2

>  <hydroph_interaction:TYR:150>  (363) 
1

>  <pistack:TYR:161>  (363) 
0

>  <hydroph_interaction:TYR:161>  (363) 
3

>  <hydroph_interaction:ASP:83>  (363) 
0

>  <hbond:TYR:130>  (363) 
0

>  <hydroph_interaction:ALA:132>  (363) 
1

>  <hbond:HIS:51>  (363) 
0

>  <hbond:ASP:129>  (363) 
0

>  <hbond:TYR:150>  (363) 
0

>  <hbond:GLY:151>  (363) 
0

>  <hbond:TYR:161>  (363) 
0

>  <hydroph_interaction:TYR:130>  (363) 
0

>  <hydroph_interaction:PRO:131>  (363) 
0

>  <hydroph_interaction:ASP:129>  (363) 
0

>  <saltbridge:ASP:75>  (363) 
1

>  <saltbridge:ASP:83>  (363) 
0

>  <hydroph_interaction:ASN:152>  (363) 
0

>  <halogenbond:TYR:150>  (363) 
0

>  <hbond:ASP:83>  (363) 
0

>  <hydroph_interaction:VAL:155>  (363) 
0

>  <pication:TYR:161>  (363) 
0

>  <hbond:PRO:131>  (363) 
0

>  <hbond:LEU:128>  (363) 
0

>  <saltbridge:ASP:129>  (363) 
0

>  <hbond:THR:134>  (363) 
0

>  <pication:HIS:51>  (363) 
0

>  <hbond:SER:81>  (363) 
0

>  <hbond:GLY:159>  (363) 
0

>  <hydroph_interaction:PRO:101>  (363) 
0

>  <hydroph_interaction:THR:134>  (363) 
0

>  <hbond:GLY:82>  (363) 
0

>  <hydroph_interaction:GLU:104>  (363) 
0

>  <hydroph_interaction:VAL:36>  (363) 
0

>  <hydroph_interaction:MET:49>  (363) 
0

>  <halogenbond:GLU:104>  (363) 
0

>  <hydroph_interaction:LYS:107>  (363) 
0

$$$$
CSCS03437721506
     RDKit          3D

 35 38  0  0  0  0  0  0  0  0999 V2000
   -8.3535    3.1409  -14.4011 C   0  0  0  0  0  0  0  0  0  0  0  0
   -9.3573    4.0203  -13.1525 S   0  0  0  0  0  0  0  0  0  0  0  0
   -7.9465    4.6369  -12.1725 C   0  0  0  0  0  0  0  0  0  0  0  0
   -8.4570    5.3300  -10.9444 C   0  0  0  0  0  0  0  0  0  0  0  0
   -8.5638    6.7203  -10.8532 C   0  0  0  0  0  0  0  0  0  0  0  0
   -9.2174    7.1285   -9.3496 S   0  0  0  0  0  0  0  0  0  0  0  0
   -9.3779    5.5482   -8.8120 C   0  0  0  0  0  0  0  0  0  0  0  0
   -9.8855    5.1032   -7.5938 C   0  0  0  0  0  0  0  0  0  0  0  0
   -9.9387    3.7208   -7.3629 C   0  0  0  0  0  0  0  0  0  0  0  0
   -9.4902    2.8186   -8.3459 C   0  0  0  0  0  0  0  0  0  0  0  0
   -8.9824    3.2904   -9.5680 C   0  0  0  0  0  0  0  0  0  0  0  0
   -8.9276    4.6734   -9.7912 C   0  0  0  0  0  0  0  0  0  0  0  0
   -7.6758    4.1119  -15.3261 C   0  0  0  0  0  0  0  0  0  0  0  0
   -6.3025    4.3666  -15.2777 C   0  0  0  0  0  0  0  0  0  0  0  0
   -5.9136    5.5337  -16.4354 S   0  0  0  0  0  0  0  0  0  0  0  0
   -7.4802    5.7223  -17.0029 C   0  0  0  0  0  0  0  0  0  0  0  0
   -7.9318    6.5708  -18.0106 C   0  0  0  0  0  0  0  0  0  0  0  0
   -9.3003    6.5656  -18.3180 C   0  0  0  0  0  0  0  0  0  0  0  0
  -10.1823    5.7205  -17.6185 C   0  0  0  0  0  0  0  0  0  0  0  0
   -9.7039    4.8727  -16.6054 C   0  0  0  0  0  0  0  0  0  0  0  0
   -8.3353    4.8825  -16.3026 C   0  0  0  0  0  0  0  0  0  0  0  0
   -7.6084    2.4879  -13.8984 H   0  0  0  0  0  0  0  0  0  0  0  0
   -9.0214    2.4796  -14.9912 H   0  0  0  0  0  0  0  0  0  0  0  0
   -7.3533    5.3485  -12.7845 H   0  0  0  0  0  0  0  0  0  0  0  0
   -7.2819    3.7971  -11.8800 H   0  0  0  0  0  0  0  0  0  0  0  0
   -8.2785    7.4258  -11.6224 H   0  0  0  0  0  0  0  0  0  0  0  0
  -10.2323    5.8040   -6.8454 H   0  0  0  0  0  0  0  0  0  0  0  0
  -10.3288    3.3462   -6.4254 H   0  0  0  0  0  0  0  0  0  0  0  0
   -9.5382    1.7535   -8.1595 H   0  0  0  0  0  0  0  0  0  0  0  0
   -8.6454    2.5862  -10.3172 H   0  0  0  0  0  0  0  0  0  0  0  0
   -5.5992    3.8998  -14.6009 H   0  0  0  0  0  0  0  0  0  0  0  0
   -7.2467    7.2180  -18.5426 H   0  0  0  0  0  0  0  0  0  0  0  0
   -9.6797    7.2147  -19.0965 H   0  0  0  0  0  0  0  0  0  0  0  0
  -11.2367    5.7238  -17.8629 H   0  0  0  0  0  0  0  0  0  0  0  0
  -10.3919    4.2278  -16.0750 H   0  0  0  0  0  0  0  0  0  0  0  0
  1  2  1  0
  2  3  1  0
  3  4  1  0
  4  5  2  0
  5  6  1  0
  6  7  1  0
  7  8  2  0
  8  9  1  0
  9 10  2  0
 10 11  1  0
 11 12  2  0
  1 13  1  0
 13 14  2  0
 14 15  1  0
 15 16  1  0
 16 17  2  0
 17 18  1  0
 18 19  2  0
 19 20  1  0
 20 21  2  0
 12  4  1  0
 12  7  1  0
 21 13  1  0
 21 16  1  0
  1 22  1  0
  1 23  1  0
  3 24  1  0
  3 25  1  0
  5 26  1  0
  8 27  1  0
  9 28  1  0
 10 29  1  0
 11 30  1  0
 14 31  1  0
 17 32  1  0
 18 33  1  0
 19 34  1  0
 20 35  1  0
A    1
 C1 
A    2
 S1 
A    3
 C2 
A    4
 C3 
A    5
 C4 
A    6
 S2 
A    7
 C5 
A    8
 C6 
A    9
 C7 
A   10
 C8 
A   11
 C9 
A   12
 C10
A   13
 C11
A   14
 C12
A   15
 S3 
A   16
 C13
A   17
 C14
A   18
 C15
A   19
 C16
A   20
 C17
A   21
 C18
A   22
 H1 
A   23
 H2 
A   24
 H3 
A   25
 H4 
A   26
 H5 
A   27
 H6 
A   28
 H7 
A   29
 H8 
A   30
 H9 
A   31
 H10
A   32
 H11
A   33
 H12
A   34
 H13
A   35
 H14
M  END
>  <ref_pdb>  (364) 
x0051_0B

>  <ref_mols>  (364) 
x0969_1B,x0455_0B

>  <original SMILES>  (364) 
[H]c1sc2c([H])c([H])c([H])c([H])c2c1C([H])([H])SC([H])([H])c1c([H])sc2c([H])c([H])c([H])c([H])c12

>  <index>  (364) 
669

>  <∆∆G>  (364) 
-6.734695

>  <∆G_bound>  (364) 
-6.809392

>  <∆G_unbound>  (364) 
-0.074697

>  <comRMSD>  (364) 
0.492812

>  <N_constrained_atoms>  (364) 
19.0

>  <N_unconstrained_atoms>  (364) 
2.0

>  <runtime>  (364) 
39.046196

>  <LE>  (364) 
0.3207

>  <percent_hybrid>  (364) 
48.0

>  <dist>  (364) 
12.0

>  <ecfp4>  (364) 
0.097222

>  <daylight>  (364) 
0.073333

>  <topodist>  (364) 
1.0

>  <mces>  (364) 
24.0

>  <tdn>  (364) 
0.0

>  <tup>  (364) 
0.0

>  <rdn>  (364) 
0.0

>  <rup>  (364) 
0.0

>  <ldn>  (364) 
1.0

>  <lup>  (364) 
0.0

>  <mut>  (364) 
6.0

>  <maj>  (364) 
5.0

>  <min>  (364) 
1.0

>  <hyb>  (364) 
5.0

>  <sub>  (364) 
0.0

>  <query_index>  (364) 
204.0

>  <max_hit_Tanimoto>  (364) 
0.128889

>  <largest_ring>  (364) 
6

>  <N_interactions_kept>  (364) 
2.0

>  <N_interactions_lost>  (364) 
0.5

>  <interaction_uniqueness_metric>  (364) 
0.055716

>  <ad_hoc_penalty>  (364) 
-20.137961

>  <N_rotatable_bonds>  (364) 
4

>  <N_HA>  (364) 
21

>  <cluster>  (364) 
5605

>  <N_interactions>  (364) 
3

>  <Enamine>  (364) 
1

>  <Mcule>  (364) 
0

>  <N_PAINS>  (364) 
0

>  <UFF_Gibbs>  (364) 
44.296139

>  <strain_per_HA>  (364) 
2.10934

>  <saltbridge:HIS:51>  (364) 
0

>  <pistack:HIS:51>  (364) 
2

>  <hydroph_interaction:HIS:51>  (364) 
0

>  <hbond:ALA:132>  (364) 
0

>  <hbond:SER:135>  (364) 
0

>  <hydroph_interaction:TYR:150>  (364) 
1

>  <pistack:TYR:161>  (364) 
0

>  <hydroph_interaction:TYR:161>  (364) 
0

>  <hydroph_interaction:ASP:83>  (364) 
0

>  <hbond:TYR:130>  (364) 
0

>  <hydroph_interaction:ALA:132>  (364) 
0

>  <hbond:HIS:51>  (364) 
0

>  <hbond:ASP:129>  (364) 
0

>  <hbond:TYR:150>  (364) 
0

>  <hbond:GLY:151>  (364) 
0

>  <hbond:TYR:161>  (364) 
0

>  <hydroph_interaction:TYR:130>  (364) 
0

>  <hydroph_interaction:PRO:131>  (364) 
0

>  <hydroph_interaction:ASP:129>  (364) 
0

>  <saltbridge:ASP:75>  (364) 
0

>  <saltbridge:ASP:83>  (364) 
0

>  <hydroph_interaction:ASN:152>  (364) 
0

>  <halogenbond:TYR:150>  (364) 
0

>  <hbond:ASP:83>  (364) 
0

>  <hydroph_interaction:VAL:155>  (364) 
0

>  <pication:TYR:161>  (364) 
0

>  <hbond:PRO:131>  (364) 
0

>  <hbond:LEU:128>  (364) 
0

>  <saltbridge:ASP:129>  (364) 
0

>  <hbond:THR:134>  (364) 
0

>  <pication:HIS:51>  (364) 
0

>  <hbond:SER:81>  (364) 
0

>  <hbond:GLY:159>  (364) 
0

>  <hydroph_interaction:PRO:101>  (364) 
0

>  <hydroph_interaction:THR:134>  (364) 
0

>  <hbond:GLY:82>  (364) 
0

>  <hydroph_interaction:GLU:104>  (364) 
0

>  <hydroph_interaction:VAL:36>  (364) 
0

>  <hydroph_interaction:MET:49>  (364) 
0

>  <halogenbond:GLU:104>  (364) 
0

>  <hydroph_interaction:LYS:107>  (364) 
0

$$$$
Z1319493543
     RDKit          3D

 46 50  0  0  0  0  0  0  0  0999 V2000
   -5.0695    4.1079  -20.3602 O   0  0  0  0  0  0  0  0  0  0  0  0
   -5.6727    5.1893  -20.1157 C   0  0  0  0  0  0  0  0  0  0  0  0
   -6.2519    5.9714  -21.2336 C   0  0  0  0  0  0  0  0  0  0  0  0
   -6.5415    5.3462  -22.4589 C   0  0  0  0  0  0  0  0  0  0  0  0
   -7.0827    6.0791  -23.5189 C   0  0  0  0  0  0  0  0  0  0  0  0
   -7.3492    7.4490  -23.3716 C   0  0  0  0  0  0  0  0  0  0  0  0
   -7.9202    8.2325  -24.5188 C   0  0  0  0  0  0  0  0  0  0  0  0
   -6.5659    9.0054  -25.4658 S   0  0  0  0  0  0  0  0  0  0  0  0
   -7.5643    9.2417  -26.9339 C   0  0  0  0  0  0  0  0  0  0  0  0
   -7.6193    8.3258  -27.9343 N   0  0  0  0  0  0  0  0  0  0  0  0
   -8.5135    8.8699  -28.7809 C   0  0  0  0  0  0  0  0  0  0  0  0
   -8.9774    8.3440  -29.9846 C   0  0  0  0  0  0  0  0  0  0  0  0
   -9.9379    9.0888  -30.6982 C   0  0  0  0  0  0  0  0  0  0  0  0
  -10.4066   10.3237  -30.1932 C   0  0  0  0  0  0  0  0  0  0  0  0
   -9.9169   10.8257  -28.9686 C   0  0  0  0  0  0  0  0  0  0  0  0
   -8.9640   10.0624  -28.2959 C   0  0  0  0  0  0  0  0  0  0  0  0
   -8.3668   10.3173  -27.1236 N   0  0  0  0  0  0  0  0  0  0  0  0
   -7.0326    8.0846  -22.1608 C   0  0  0  0  0  0  0  0  0  0  0  0
   -6.4871    7.3521  -21.1005 C   0  0  0  0  0  0  0  0  0  0  0  0
   -5.7762    5.6441  -18.7553 N   0  0  0  0  0  0  0  0  0  0  0  0
   -4.6234    5.4671  -17.8565 C   0  0  0  0  0  0  0  0  0  0  0  0
   -4.5132    6.6562  -16.8876 C   0  0  0  0  0  0  0  0  0  0  0  0
   -5.8331    6.9955  -16.3656 N   0  0  0  0  0  0  0  0  0  0  0  0
   -6.1618    7.8196  -15.3603 C   0  0  0  0  0  0  0  0  0  0  0  0
   -7.4981    8.0016  -15.3112 N   0  0  0  0  0  0  0  0  0  0  0  0
   -8.0300    7.3042  -16.3075 N   0  0  0  0  0  0  0  0  0  0  0  0
   -7.0042    6.7155  -16.9495 C   0  0  0  0  0  0  0  0  0  0  0  0
   -7.1136    5.8601  -18.1714 C   0  0  0  0  0  0  0  0  0  0  0  0
   -6.3576    4.2874  -22.5953 H   0  0  0  0  0  0  0  0  0  0  0  0
   -7.2980    5.5765  -24.4547 H   0  0  0  0  0  0  0  0  0  0  0  0
   -8.5130    7.5529  -25.1724 H   0  0  0  0  0  0  0  0  0  0  0  0
   -8.6034    9.0288  -24.1453 H   0  0  0  0  0  0  0  0  0  0  0  0
   -8.6138    7.3957  -30.3604 H   0  0  0  0  0  0  0  0  0  0  0  0
  -10.3194    8.7132  -31.6379 H   0  0  0  0  0  0  0  0  0  0  0  0
  -11.1502   10.8841  -30.7452 H   0  0  0  0  0  0  0  0  0  0  0  0
  -10.2697   11.7681  -28.5672 H   0  0  0  0  0  0  0  0  0  0  0  0
   -8.5146   11.1308  -26.4837 H   0  0  0  0  0  0  0  0  0  0  0  0
   -7.2047    9.1474  -22.0391 H   0  0  0  0  0  0  0  0  0  0  0  0
   -6.2393    7.8681  -20.1813 H   0  0  0  0  0  0  0  0  0  0  0  0
   -3.6771    5.3939  -18.4392 H   0  0  0  0  0  0  0  0  0  0  0  0
   -4.7528    4.5245  -17.2793 H   0  0  0  0  0  0  0  0  0  0  0  0
   -3.8293    6.3991  -16.0510 H   0  0  0  0  0  0  0  0  0  0  0  0
   -4.1020    7.5368  -17.4298 H   0  0  0  0  0  0  0  0  0  0  0  0
   -5.4534    8.3009  -14.6975 H   0  0  0  0  0  0  0  0  0  0  0  0
   -7.5566    4.8800  -17.8948 H   0  0  0  0  0  0  0  0  0  0  0  0
   -7.7873    6.3596  -18.8974 H   0  0  0  0  0  0  0  0  0  0  0  0
  1  2  2  0
  2  3  1  0
  3  4  2  0
  4  5  1  0
  5  6  2  0
  6  7  1  0
  7  8  1  0
  8  9  1  0
  9 10  2  0
 10 11  1  0
 11 12  2  0
 12 13  1  0
 13 14  2  0
 14 15  1  0
 15 16  2  0
 16 17  1  0
  6 18  1  0
 18 19  2  0
  2 20  1  0
 20 21  1  0
 21 22  1  0
 22 23  1  0
 23 24  1  0
 24 25  2  0
 25 26  1  0
 26 27  2  0
 27 28  1  0
 19  3  1  0
 17  9  1  0
 16 11  1  0
 28 20  1  0
 27 23  1  0
  4 29  1  0
  5 30  1  0
  7 31  1  0
  7 32  1  0
 12 33  1  0
 13 34  1  0
 14 35  1  0
 15 36  1  0
 17 37  1  0
 18 38  1  0
 19 39  1  0
 21 40  1  0
 21 41  1  0
 22 42  1  0
 22 43  1  0
 24 44  1  0
 28 45  1  0
 28 46  1  0
A    1
 O1 
A    2
 C1 
A    3
 C2 
A    4
 C3 
A    5
 C4 
A    6
 C5 
A    7
 C6 
A    8
 S1 
A    9
 C7 
A   10
 N1 
A   11
 C8 
A   12
 C9 
A   13
 C10
A   14
 C11
A   15
 C12
A   16
 C13
A   17
 N2 
A   18
 C14
A   19
 C15
A   20
 N3 
A   21
 C16
A   22
 C17
A   23
 N4 
A   24
 C18
A   25
 N5 
A   26
 N6 
A   27
 C19
A   28
 C20
A   29
 H1 
A   30
 H2 
A   31
 H3 
A   32
 H4 
A   33
 H5 
A   34
 H6 
A   35
 H7 
A   36
 H8 
A   37
 H9 
A   38
 H10
A   39
 H11
A   40
 H12
A   41
 H13
A   42
 H14
A   43
 H15
A   44
 H16
A   45
 H17
A   46
 H18
M  END
>  <ref_pdb>  (365) 
x0051_0B

>  <ref_mols>  (365) 
x0846_1B,x0969_0B

>  <original SMILES>  (365) 
[H]c1c([H])c(C([H])([H])Sc2nc3c([H])c([H])c([H])c([H])c3n2[H])c([H])c([H])c1C(=O)N1C([H])([H])c2nnc([H])n2C([H])([H])C1([H])[H]

>  <index>  (365) 
730

>  <∆∆G>  (365) 
-7.160735

>  <∆G_bound>  (365) 
-6.343259

>  <∆G_unbound>  (365) 
0.817475

>  <comRMSD>  (365) 
0.999332

>  <N_constrained_atoms>  (365) 
27.0

>  <N_unconstrained_atoms>  (365) 
2.0

>  <runtime>  (365) 
34.972685

>  <LE>  (365) 
0.246922

>  <percent_hybrid>  (365) 
34.0

>  <dist>  (365) 
8.0

>  <ecfp4>  (365) 
0.216495

>  <daylight>  (365) 
0.314286

>  <topodist>  (365) 
3.0

>  <mces>  (365) 
31.0

>  <tdn>  (365) 
2.0

>  <tup>  (365) 
1.0

>  <rdn>  (365) 
0.0

>  <rup>  (365) 
0.0

>  <ldn>  (365) 
0.0

>  <lup>  (365) 
0.0

>  <mut>  (365) 
5.0

>  <maj>  (365) 
5.0

>  <min>  (365) 
0.0

>  <hyb>  (365) 
0.0

>  <sub>  (365) 
1.0

>  <query_index>  (365) 
45.0

>  <max_hit_Tanimoto>  (365) 
0.271992

>  <largest_ring>  (365) 
6

>  <N_interactions_kept>  (365) 
0.5

>  <N_interactions_lost>  (365) 
2.0

>  <interaction_uniqueness_metric>  (365) 
0.199509

>  <ad_hoc_penalty>  (365) 
-20.113531

>  <N_rotatable_bonds>  (365) 
4

>  <N_HA>  (365) 
28

>  <cluster>  (365) 
5551

>  <N_interactions>  (365) 
5

>  <Enamine>  (365) 
1

>  <Mcule>  (365) 
0

>  <N_PAINS>  (365) 
0

>  <UFF_Gibbs>  (365) 
87.894655

>  <strain_per_HA>  (365) 
3.03085

>  <saltbridge:HIS:51>  (365) 
0

>  <pistack:HIS:51>  (365) 
0

>  <hydroph_interaction:HIS:51>  (365) 
0

>  <hbond:ALA:132>  (365) 
0

>  <hbond:SER:135>  (365) 
0

>  <hydroph_interaction:TYR:150>  (365) 
0

>  <pistack:TYR:161>  (365) 
1

>  <hydroph_interaction:TYR:161>  (365) 
0

>  <hydroph_interaction:ASP:83>  (365) 
0

>  <hbond:TYR:130>  (365) 
0

>  <hydroph_interaction:ALA:132>  (365) 
0

>  <hbond:HIS:51>  (365) 
0

>  <hbond:ASP:129>  (365) 
1

>  <hbond:TYR:150>  (365) 
0

>  <hbond:GLY:151>  (365) 
0

>  <hbond:TYR:161>  (365) 
1

>  <hydroph_interaction:TYR:130>  (365) 
1

>  <hydroph_interaction:PRO:131>  (365) 
1

>  <hydroph_interaction:ASP:129>  (365) 
0

>  <saltbridge:ASP:75>  (365) 
0

>  <saltbridge:ASP:83>  (365) 
0

>  <hydroph_interaction:ASN:152>  (365) 
0

>  <halogenbond:TYR:150>  (365) 
0

>  <hbond:ASP:83>  (365) 
0

>  <hydroph_interaction:VAL:155>  (365) 
0

>  <pication:TYR:161>  (365) 
0

>  <hbond:PRO:131>  (365) 
0

>  <hbond:LEU:128>  (365) 
0

>  <saltbridge:ASP:129>  (365) 
0

>  <hbond:THR:134>  (365) 
0

>  <pication:HIS:51>  (365) 
0

>  <hbond:SER:81>  (365) 
0

>  <hbond:GLY:159>  (365) 
0

>  <hydroph_interaction:PRO:101>  (365) 
0

>  <hydroph_interaction:THR:134>  (365) 
0

>  <hbond:GLY:82>  (365) 
0

>  <hydroph_interaction:GLU:104>  (365) 
0

>  <hydroph_interaction:VAL:36>  (365) 
0

>  <hydroph_interaction:MET:49>  (365) 
0

>  <halogenbond:GLU:104>  (365) 
0

>  <hydroph_interaction:LYS:107>  (365) 
0

$$$$
MCULE-8664309059
     RDKit          3D

 28 29  0  0  0  0  0  0  0  0999 V2000
   -6.1536    6.1404  -17.7409 N   0  0  0  0  0  0  0  0  0  0  0  0
   -5.1088    5.9978  -16.7281 C   0  0  0  0  0  0  0  0  0  0  0  0
   -4.2037    4.8066  -17.0638 C   0  0  0  0  0  0  0  0  0  0  0  0
   -3.0303    4.6706  -16.0871 C   0  0  0  0  0  0  0  0  0  0  0  0
   -3.4954    4.2494  -14.7677 N   0  0  0  0  0  0  0  0  0  0  0  0
   -7.3135    5.3326  -17.8899 C   0  0  0  0  0  0  0  0  0  0  0  0
   -7.8418    4.4352  -16.9572 C   0  0  0  0  0  0  0  0  0  0  0  0
   -8.9998    3.7196  -17.3022 C   0  0  0  0  0  0  0  0  0  0  0  0
   -9.6035    3.9058  -18.5611 C   0  0  0  0  0  0  0  0  0  0  0  0
   -9.0523    4.8075  -19.4861 C   0  0  0  0  0  0  0  0  0  0  0  0
   -7.9031    5.5120  -19.1261 C   0  0  0  0  0  0  0  0  0  0  0  0
   -7.1305    6.4924  -19.9487 C   0  0  0  0  0  0  0  0  0  0  0  0
   -6.0208    6.8132  -18.9931 C   0  0  0  0  0  0  0  0  0  0  0  0
   -5.0588    7.5793  -19.2653 O   0  0  0  0  0  0  0  0  0  0  0  0
   -4.5059    6.9308  -16.6872 H   0  0  0  0  0  0  0  0  0  0  0  0
   -5.5803    5.8576  -15.7332 H   0  0  0  0  0  0  0  0  0  0  0  0
   -3.7935    4.9458  -18.0879 H   0  0  0  0  0  0  0  0  0  0  0  0
   -4.7996    3.8679  -17.0600 H   0  0  0  0  0  0  0  0  0  0  0  0
   -2.3333    3.9016  -16.4874 H   0  0  0  0  0  0  0  0  0  0  0  0
   -2.4708    5.6302  -16.0131 H   0  0  0  0  0  0  0  0  0  0  0  0
   -3.8781    5.0858  -14.2706 H   0  0  0  0  0  0  0  0  0  0  0  0
   -2.6596    3.9448  -14.2180 H   0  0  0  0  0  0  0  0  0  0  0  0
   -7.3768    4.2891  -15.9917 H   0  0  0  0  0  0  0  0  0  0  0  0
   -9.4297    3.0199  -16.5973 H   0  0  0  0  0  0  0  0  0  0  0  0
  -10.4945    3.3482  -18.8188 H   0  0  0  0  0  0  0  0  0  0  0  0
   -9.5069    4.9488  -20.4580 H   0  0  0  0  0  0  0  0  0  0  0  0
   -7.7388    7.3944  -20.1706 H   0  0  0  0  0  0  0  0  0  0  0  0
   -6.7363    6.0157  -20.8708 H   0  0  0  0  0  0  0  0  0  0  0  0
  1  2  1  0
  2  3  1  0
  3  4  1  0
  4  5  1  0
  1  6  1  0
  6  7  2  0
  7  8  1  0
  8  9  2  0
  9 10  1  0
 10 11  2  0
 11 12  1  0
 12 13  1  0
 13 14  2  0
 13  1  1  0
  6 11  1  0
  2 15  1  0
  2 16  1  0
  3 17  1  0
  3 18  1  0
  4 19  1  0
  4 20  1  0
  5 21  1  0
  5 22  1  0
  7 23  1  0
  8 24  1  0
  9 25  1  0
 10 26  1  0
 12 27  1  0
 12 28  1  0
A    1
 N1 
A    2
 C1 
A    3
 C2 
A    4
 C3 
A    5
 N2 
A    6
 C4 
A    7
 C5 
A    8
 C6 
A    9
 C7 
A   10
 C8 
A   11
 C9 
A   12
 C10
A   13
 C11
A   14
 O1 
A   15
 H1 
A   16
 H2 
A   17
 H3 
A   18
 H4 
A   19
 H5 
A   20
 H6 
A   21
 H7 
A   22
 H8 
A   23
 H9 
A   24
 H10
A   25
 H11
A   26
 H12
A   27
 H13
A   28
 H14
M  END
>  <ref_pdb>  (366) 
x0051_0B

>  <ref_mols>  (366) 
x0490_0B,x0472_0B

>  <original SMILES>  (366) 
[H]c1c([H])c([H])c2c(c1[H])N(C([H])([H])C([H])([H])C([H])([H])N([H])[H])C(=O)C2([H])[H]

>  <index>  (366) 
596

>  <∆∆G>  (366) 
-7.106316

>  <∆G_bound>  (366) 
-6.743967

>  <∆G_unbound>  (366) 
0.362349

>  <comRMSD>  (366) 
0.536702

>  <N_constrained_atoms>  (366) 
16.0

>  <N_unconstrained_atoms>  (366) 
1.0

>  <runtime>  (366) 
23.915314

>  <LE>  (366) 
0.418019

>  <percent_hybrid>  (366) 
38.0

>  <dist>  (366) 
3.0

>  <ecfp4>  (366) 
0.2

>  <daylight>  (366) 
0.09396

>  <topodist>  (366) 
2.0

>  <mces>  (366) 
14.0

>  <tdn>  (366) 
1.0

>  <tup>  (366) 
1.0

>  <rdn>  (366) 
0.0

>  <rup>  (366) 
0.0

>  <ldn>  (366) 
0.0

>  <lup>  (366) 
0.0

>  <mut>  (366) 
1.0

>  <maj>  (366) 
1.0

>  <min>  (366) 
0.0

>  <hyb>  (366) 
0.0

>  <sub>  (366) 
2.0

>  <query_index>  (366) 
228.0

>  <max_hit_Tanimoto>  (366) 
0.200458

>  <largest_ring>  (366) 
6

>  <N_interactions_kept>  (366) 
3.0

>  <N_interactions_lost>  (366) 
1.0

>  <interaction_uniqueness_metric>  (366) 
0.031789

>  <ad_hoc_penalty>  (366) 
-20.1013

>  <N_rotatable_bonds>  (366) 
4

>  <N_HA>  (366) 
14

>  <cluster>  (366) 
5673

>  <N_interactions>  (366) 
4

>  <Enamine>  (366) 
0

>  <Mcule>  (366) 
1

>  <N_PAINS>  (366) 
0

>  <UFF_Gibbs>  (366) 
46.815967

>  <strain_per_HA>  (366) 
2.75388

>  <saltbridge:HIS:51>  (366) 
0

>  <pistack:HIS:51>  (366) 
0

>  <hydroph_interaction:HIS:51>  (366) 
0

>  <hbond:ALA:132>  (366) 
0

>  <hbond:SER:135>  (366) 
0

>  <hydroph_interaction:TYR:150>  (366) 
1

>  <pistack:TYR:161>  (366) 
0

>  <hydroph_interaction:TYR:161>  (366) 
3

>  <hydroph_interaction:ASP:83>  (366) 
0

>  <hbond:TYR:130>  (366) 
0

>  <hydroph_interaction:ALA:132>  (366) 
0

>  <hbond:HIS:51>  (366) 
0

>  <hbond:ASP:129>  (366) 
0

>  <hbond:TYR:150>  (366) 
0

>  <hbond:GLY:151>  (366) 
0

>  <hbond:TYR:161>  (366) 
0

>  <hydroph_interaction:TYR:130>  (366) 
0

>  <hydroph_interaction:PRO:131>  (366) 
0

>  <hydroph_interaction:ASP:129>  (366) 
0

>  <saltbridge:ASP:75>  (366) 
0

>  <saltbridge:ASP:83>  (366) 
0

>  <hydroph_interaction:ASN:152>  (366) 
0

>  <halogenbond:TYR:150>  (366) 
0

>  <hbond:ASP:83>  (366) 
0

>  <hydroph_interaction:VAL:155>  (366) 
0

>  <pication:TYR:161>  (366) 
0

>  <hbond:PRO:131>  (366) 
0

>  <hbond:LEU:128>  (366) 
0

>  <saltbridge:ASP:129>  (366) 
0

>  <hbond:THR:134>  (366) 
0

>  <pication:HIS:51>  (366) 
0

>  <hbond:SER:81>  (366) 
0

>  <hbond:GLY:159>  (366) 
0

>  <hydroph_interaction:PRO:101>  (366) 
0

>  <hydroph_interaction:THR:134>  (366) 
0

>  <hbond:GLY:82>  (366) 
0

>  <hydroph_interaction:GLU:104>  (366) 
0

>  <hydroph_interaction:VAL:36>  (366) 
0

>  <hydroph_interaction:MET:49>  (366) 
0

>  <halogenbond:GLU:104>  (366) 
0

>  <hydroph_interaction:LYS:107>  (366) 
0

$$$$
CSSS00047322340
     RDKit          3D

 38 40  0  0  0  0  0  0  0  0999 V2000
  -10.5869    3.1619  -17.8747 Cl  0  0  0  0  0  0  0  0  0  0  0  0
   -9.5895    4.3873  -17.1030 C   0  0  0  0  0  0  0  0  0  0  0  0
  -10.1356    5.1531  -16.0687 C   0  0  0  0  0  0  0  0  0  0  0  0
   -9.3690    6.1342  -15.4349 C   0  0  0  0  0  0  0  0  0  0  0  0
   -8.0360    6.3590  -15.8265 C   0  0  0  0  0  0  0  0  0  0  0  0
   -7.2137    7.3542  -15.1908 N   0  0  0  0  0  0  0  0  0  0  0  0
   -7.6387    8.1631  -13.7149 S   0  0  0  0  0  6  0  0  0  0  0  0
   -6.4702    8.9818  -13.2441 O   0  0  0  0  0  0  0  0  0  0  0  0
   -8.8039    9.0771  -13.9741 O   0  0  0  0  0  0  0  0  0  0  0  0
   -8.0374    6.9800  -12.4731 C   0  0  0  0  0  0  0  0  0  0  0  0
   -9.0851    7.2178  -11.5753 C   0  0  0  0  0  0  0  0  0  0  0  0
   -9.4076    6.2675  -10.6022 C   0  0  0  0  0  0  0  0  0  0  0  0
   -8.6793    5.0680  -10.5065 C   0  0  0  0  0  0  0  0  0  0  0  0
   -7.6345    4.8335  -11.4176 C   0  0  0  0  0  0  0  0  0  0  0  0
   -7.3124    5.7858  -12.3883 C   0  0  0  0  0  0  0  0  0  0  0  0
   -9.0177    4.0761   -9.5165 N   0  0  0  0  0  0  0  0  0  0  0  0
   -8.8801    2.6401   -9.7045 C   0  0  0  0  0  0  0  0  0  0  0  0
   -9.5756    1.9831   -8.4979 C   0  0  0  0  0  0  0  0  0  0  0  0
   -9.8318    3.0910   -7.4673 C   0  0  0  0  0  0  0  0  0  0  0  0
   -9.5170    4.3257   -8.2125 C   0  0  0  0  0  0  0  0  0  0  0  0
   -9.6135    5.4786   -7.7139 O   0  0  0  0  0  0  0  0  0  0  0  0
   -7.4965    5.5921  -16.8712 C   0  0  0  0  0  0  0  0  0  0  0  0
   -8.2634    4.6092  -17.5078 C   0  0  0  0  0  0  0  0  0  0  0  0
   -7.5378    3.6710  -18.8061 Cl  0  0  0  0  0  0  0  0  0  0  0  0
  -11.1590    4.9903  -15.7548 H   0  0  0  0  0  0  0  0  0  0  0  0
   -9.8284    6.7131  -14.6472 H   0  0  0  0  0  0  0  0  0  0  0  0
   -6.2662    7.5546  -15.5824 H   0  0  0  0  0  0  0  0  0  0  0  0
   -9.6600    8.1330  -11.6331 H   0  0  0  0  0  0  0  0  0  0  0  0
  -10.2440    6.4609   -9.9446 H   0  0  0  0  0  0  0  0  0  0  0  0
   -7.0583    3.9192  -11.3727 H   0  0  0  0  0  0  0  0  0  0  0  0
   -6.5002    5.5894  -13.0768 H   0  0  0  0  0  0  0  0  0  0  0  0
   -7.8034    2.3648   -9.7135 H   0  0  0  0  0  0  0  0  0  0  0  0
   -9.3594    2.3265  -10.6572 H   0  0  0  0  0  0  0  0  0  0  0  0
   -8.9427    1.1779   -8.0654 H   0  0  0  0  0  0  0  0  0  0  0  0
  -10.5445    1.5426   -8.8205 H   0  0  0  0  0  0  0  0  0  0  0  0
   -9.1457    2.9891   -6.5993 H   0  0  0  0  0  0  0  0  0  0  0  0
  -10.8906    3.0942   -7.1303 H   0  0  0  0  0  0  0  0  0  0  0  0
   -6.4734    5.7553  -17.1869 H   0  0  0  0  0  0  0  0  0  0  0  0
  1  2  1  0
  2  3  2  0
  3  4  1  0
  4  5  2  0
  5  6  1  0
  6  7  1  0
  7  8  2  0
  7  9  2  0
  7 10  1  0
 10 11  2  0
 11 12  1  0
 12 13  2  0
 13 14  1  0
 14 15  2  0
 13 16  1  0
 16 17  1  0
 17 18  1  0
 18 19  1  0
 19 20  1  0
 20 21  2  0
  5 22  1  0
 22 23  2  0
 23 24  1  0
 23  2  1  0
 15 10  1  0
 20 16  1  0
  3 25  1  0
  4 26  1  0
  6 27  1  0
 11 28  1  0
 12 29  1  0
 14 30  1  0
 15 31  1  0
 17 32  1  0
 17 33  1  0
 18 34  1  0
 18 35  1  0
 19 36  1  0
 19 37  1  0
 22 38  1  0
A    1
CL1 
A    2
 C1 
A    3
 C2 
A    4
 C3 
A    5
 C4 
A    6
 N1 
A    7
 S1 
A    8
 O1 
A    9
 O2 
A   10
 C5 
A   11
 C6 
A   12
 C7 
A   13
 C8 
A   14
 C9 
A   15
 C10
A   16
 N2 
A   17
 C11
A   18
 C12
A   19
 C13
A   20
 C14
A   21
 O3 
A   22
 C15
A   23
 C16
A   24
CL2 
A   25
 H1 
A   26
 H2 
A   27
 H3 
A   28
 H4 
A   29
 H5 
A   30
 H6 
A   31
 H7 
A   32
 H8 
A   33
 H9 
A   34
 H10
A   35
 H11
A   36
 H12
A   37
 H13
A   38
 H14
M  END
>  <ref_pdb>  (367) 
x0051_0B

>  <ref_mols>  (367) 
x0589_0B,x0404_0B

>  <original SMILES>  (367) 
[H]c1c([H])c(N([H])S(=O)(=O)c2c([H])c([H])c(N3C(=O)C([H])([H])C([H])([H])C3([H])[H])c([H])c2[H])c([H])c(Cl)c1Cl

>  <index>  (367) 
866

>  <∆∆G>  (367) 
-5.440011

>  <∆G_bound>  (367) 
-5.36242

>  <∆G_unbound>  (367) 
0.077591

>  <comRMSD>  (367) 
0.606355

>  <N_constrained_atoms>  (367) 
23.0

>  <N_unconstrained_atoms>  (367) 
3.0

>  <runtime>  (367) 
82.936665

>  <LE>  (367) 
0.209231

>  <percent_hybrid>  (367) 
35.0

>  <dist>  (367) 
9.0

>  <ecfp4>  (367) 
0.1875

>  <daylight>  (367) 
0.270936

>  <topodist>  (367) 
5.0

>  <mces>  (367) 
24.0

>  <tdn>  (367) 
1.0

>  <tup>  (367) 
2.0

>  <rdn>  (367) 
0.0

>  <rup>  (367) 
0.0

>  <ldn>  (367) 
2.0

>  <lup>  (367) 
0.0

>  <mut>  (367) 
2.0

>  <maj>  (367) 
1.0

>  <min>  (367) 
1.0

>  <hyb>  (367) 
2.0

>  <sub>  (367) 
2.0

>  <query_index>  (367) 
29.0

>  <max_hit_Tanimoto>  (367) 
0.331909

>  <largest_ring>  (367) 
6

>  <N_interactions_kept>  (367) 
2.0

>  <N_interactions_lost>  (367) 
1.5

>  <interaction_uniqueness_metric>  (367) 
0.251435

>  <ad_hoc_penalty>  (367) 
-20.090253

>  <N_rotatable_bonds>  (367) 
4

>  <N_HA>  (367) 
24

>  <cluster>  (367) 
5425

>  <N_interactions>  (367) 
5

>  <Enamine>  (367) 
1

>  <Mcule>  (367) 
0

>  <N_PAINS>  (367) 
0

>  <UFF_Gibbs>  (367) 
69.95017

>  <strain_per_HA>  (367) 
2.690391

>  <saltbridge:HIS:51>  (367) 
0

>  <pistack:HIS:51>  (367) 
1

>  <hydroph_interaction:HIS:51>  (367) 
1

>  <hbond:ALA:132>  (367) 
0

>  <hbond:SER:135>  (367) 
0

>  <hydroph_interaction:TYR:150>  (367) 
0

>  <pistack:TYR:161>  (367) 
0

>  <hydroph_interaction:TYR:161>  (367) 
1

>  <hydroph_interaction:ASP:83>  (367) 
0

>  <hbond:TYR:130>  (367) 
0

>  <hydroph_interaction:ALA:132>  (367) 
1

>  <hbond:HIS:51>  (367) 
0

>  <hbond:ASP:129>  (367) 
0

>  <hbond:TYR:150>  (367) 
0

>  <hbond:GLY:151>  (367) 
0

>  <hbond:TYR:161>  (367) 
0

>  <hydroph_interaction:TYR:130>  (367) 
0

>  <hydroph_interaction:PRO:131>  (367) 
0

>  <hydroph_interaction:ASP:129>  (367) 
0

>  <saltbridge:ASP:75>  (367) 
0

>  <saltbridge:ASP:83>  (367) 
0

>  <hydroph_interaction:ASN:152>  (367) 
0

>  <halogenbond:TYR:150>  (367) 
1

>  <hbond:ASP:83>  (367) 
0

>  <hydroph_interaction:VAL:155>  (367) 
0

>  <pication:TYR:161>  (367) 
0

>  <hbond:PRO:131>  (367) 
0

>  <hbond:LEU:128>  (367) 
0

>  <saltbridge:ASP:129>  (367) 
0

>  <hbond:THR:134>  (367) 
0

>  <pication:HIS:51>  (367) 
0

>  <hbond:SER:81>  (367) 
0

>  <hbond:GLY:159>  (367) 
0

>  <hydroph_interaction:PRO:101>  (367) 
0

>  <hydroph_interaction:THR:134>  (367) 
0

>  <hbond:GLY:82>  (367) 
0

>  <hydroph_interaction:GLU:104>  (367) 
0

>  <hydroph_interaction:VAL:36>  (367) 
0

>  <hydroph_interaction:MET:49>  (367) 
0

>  <halogenbond:GLU:104>  (367) 
0

>  <hydroph_interaction:LYS:107>  (367) 
0

$$$$
Z1467040886
     RDKit          3D

 55 59  0  0  0  0  0  0  0  0999 V2000
   -8.6190    5.4473  -15.5262 C   0  0  0  0  0  0  0  0  0  0  0  0
   -8.6240    4.4267  -16.6286 C   0  0  0  0  0  0  0  0  0  0  0  0
   -9.5913    3.3932  -16.6129 C   0  0  0  0  0  0  0  0  0  0  0  0
   -9.6347    2.4242  -17.6344 C   0  0  0  0  0  0  0  0  0  0  0  0
   -8.7167    2.4670  -18.6932 C   0  0  0  0  0  0  0  0  0  0  0  0
   -7.7648    3.4816  -18.6904 C   0  0  0  0  0  0  0  0  0  0  0  0
   -7.7027    4.4289  -17.7021 C   0  0  0  0  0  0  0  0  0  0  0  0
   -6.6812    5.2697  -17.9892 N   0  0  0  0  0  0  0  0  0  0  0  0
   -6.2494    6.4678  -17.2657 C   0  0  0  0  0  0  0  0  0  0  0  0
   -6.1687    4.7865  -19.1570 C   0  0  0  0  0  0  0  0  0  0  0  0
   -5.0230    5.4028  -19.9078 C   0  0  0  0  0  0  0  0  0  0  0  0
   -5.3911    6.7197  -20.4224 N   0  0  0  0  0  0  0  0  0  0  0  0
   -6.2851    6.8863  -21.5353 C   0  0  0  0  0  0  0  0  0  0  0  0
   -6.9628    5.9019  -21.9366 O   0  0  0  0  0  0  0  0  0  0  0  0
   -6.4257    8.1931  -22.2243 C   0  0  0  0  0  0  0  0  0  0  0  0
   -7.5615    8.4527  -23.0138 C   0  0  0  0  0  0  0  0  0  0  0  0
   -7.6935    9.6673  -23.6922 C   0  0  0  0  0  0  0  0  0  0  0  0
   -6.6870   10.6341  -23.6020 C   0  0  0  0  0  0  0  0  0  0  0  0
   -6.8336   12.1749  -24.5120 S   0  0  0  0  0  0  0  0  0  0  0  0
   -5.8983   11.5858  -25.9691 C   0  0  0  0  0  0  0  0  0  0  0  0
   -6.6613   10.5181  -26.6878 C   0  0  0  0  0  0  0  0  0  0  0  0
   -6.3441    9.1967  -26.5993 N   0  0  0  0  0  0  0  0  0  0  0  0
   -7.3329    8.6113  -27.2979 C   0  0  0  0  0  0  0  0  0  0  0  0
   -7.5315    7.2495  -27.5153 C   0  0  0  0  0  0  0  0  0  0  0  0
   -8.6687    6.8646  -28.2521 C   0  0  0  0  0  0  0  0  0  0  0  0
   -9.5697    7.8400  -28.7438 C   0  0  0  0  0  0  0  0  0  0  0  0
   -9.3407    9.2076  -28.5000 C   0  0  0  0  0  0  0  0  0  0  0  0
   -8.2023    9.5489  -27.7734 C   0  0  0  0  0  0  0  0  0  0  0  0
   -7.7908   10.7644  -27.3969 N   0  0  0  0  0  0  0  0  0  0  0  0
   -5.5572   10.3906  -22.8163 C   0  0  0  0  0  0  0  0  0  0  0  0
   -5.4208    9.1768  -22.1381 C   0  0  0  0  0  0  0  0  0  0  0  0
   -6.8145    3.6880  -19.6167 N   0  0  0  0  0  0  0  0  0  0  0  0
   -8.6997    6.4672  -15.9495 H   0  0  0  0  0  0  0  0  0  0  0  0
   -9.4861    5.3106  -14.8442 H   0  0  0  0  0  0  0  0  0  0  0  0
   -7.6977    5.3458  -14.9168 H   0  0  0  0  0  0  0  0  0  0  0  0
  -10.3133    3.3331  -15.8081 H   0  0  0  0  0  0  0  0  0  0  0  0
  -10.3870    1.6445  -17.6065 H   0  0  0  0  0  0  0  0  0  0  0  0
   -8.7494    1.7326  -19.4886 H   0  0  0  0  0  0  0  0  0  0  0  0
   -6.0512    6.2259  -16.2039 H   0  0  0  0  0  0  0  0  0  0  0  0
   -5.3047    6.8703  -17.6793 H   0  0  0  0  0  0  0  0  0  0  0  0
   -7.0252    7.2572  -17.3502 H   0  0  0  0  0  0  0  0  0  0  0  0
   -4.1520    5.4946  -19.2258 H   0  0  0  0  0  0  0  0  0  0  0  0
   -4.7146    4.7456  -20.7497 H   0  0  0  0  0  0  0  0  0  0  0  0
   -4.9613    7.5562  -19.9696 H   0  0  0  0  0  0  0  0  0  0  0  0
   -8.3463    7.7125  -23.1118 H   0  0  0  0  0  0  0  0  0  0  0  0
   -8.5676    9.8484  -24.3068 H   0  0  0  0  0  0  0  0  0  0  0  0
   -4.9042   11.2037  -25.6532 H   0  0  0  0  0  0  0  0  0  0  0  0
   -5.7381   12.4409  -26.6574 H   0  0  0  0  0  0  0  0  0  0  0  0
   -6.8421    6.5119  -27.1239 H   0  0  0  0  0  0  0  0  0  0  0  0
   -8.8575    5.8160  -28.4402 H   0  0  0  0  0  0  0  0  0  0  0  0
  -10.4431    7.5318  -29.3049 H   0  0  0  0  0  0  0  0  0  0  0  0
  -10.0268    9.9637  -28.8595 H   0  0  0  0  0  0  0  0  0  0  0  0
   -8.2495   11.6859  -27.5777 H   0  0  0  0  0  0  0  0  0  0  0  0
   -4.7719   11.1317  -22.7504 H   0  0  0  0  0  0  0  0  0  0  0  0
   -4.5113    9.0055  -21.5800 H   0  0  0  0  0  0  0  0  0  0  0  0
  1  2  1  0
  2  3  2  0
  3  4  1  0
  4  5  2  0
  5  6  1  0
  6  7  2  0
  7  8  1  0
  8  9  1  0
  8 10  1  0
 10 11  1  0
 11 12  1  0
 12 13  1  0
 13 14  2  0
 13 15  1  0
 15 16  2  0
 16 17  1  0
 17 18  2  0
 18 19  1  0
 19 20  1  0
 20 21  1  0
 21 22  2  0
 22 23  1  0
 23 24  2  0
 24 25  1  0
 25 26  2  0
 26 27  1  0
 27 28  2  0
 28 29  1  0
 18 30  1  0
 30 31  2  0
 10 32  2  0
  7  2  1  0
 32  6  1  0
 31 15  1  0
 29 21  1  0
 28 23  1  0
  1 33  1  0
  1 34  1  0
  1 35  1  0
  3 36  1  0
  4 37  1  0
  5 38  1  0
  9 39  1  0
  9 40  1  0
  9 41  1  0
 11 42  1  0
 11 43  1  0
 12 44  1  0
 16 45  1  0
 17 46  1  0
 20 47  1  0
 20 48  1  0
 24 49  1  0
 25 50  1  0
 26 51  1  0
 27 52  1  0
 29 53  1  0
 30 54  1  0
 31 55  1  0
A    1
 C1 
A    2
 C2 
A    3
 C3 
A    4
 C4 
A    5
 C5 
A    6
 C6 
A    7
 C7 
A    8
 N1 
A    9
 C8 
A   10
 C9 
A   11
 C10
A   12
 N2 
A   13
 C11
A   14
 O1 
A   15
 C12
A   16
 C13
A   17
 C14
A   18
 C15
A   19
 S1 
A   20
 C16
A   21
 C17
A   22
 N3 
A   23
 C18
A   24
 C19
A   25
 C20
A   26
 C21
A   27
 C22
A   28
 C23
A   29
 N4 
A   30
 C24
A   31
 C25
A   32
 N5 
A   33
 H1 
A   34
 H2 
A   35
 H3 
A   36
 H4 
A   37
 H5 
A   38
 H6 
A   39
 H7 
A   40
 H8 
A   41
 H9 
A   42
 H10
A   43
 H11
A   44
 H12
A   45
 H13
A   46
 H14
A   47
 H15
A   48
 H16
A   49
 H17
A   50
 H18
A   51
 H19
A   52
 H20
A   53
 H21
A   54
 H22
A   55
 H23
M  END
>  <ref_pdb>  (368) 
x0051_0B

>  <ref_mols>  (368) 
x0846_1B,x0490_0B

>  <original SMILES>  (368) 
[H]c1c([H])c(C(=O)N([H])C([H])([H])c2nc3c([H])c([H])c([H])c(C([H])([H])[H])c3n2C([H])([H])[H])c([H])c([H])c1SC([H])([H])c1nc2c([H])c([H])c([H])c([H])c2n1[H]

>  <index>  (368) 
651

>  <∆∆G>  (368) 
-9.879505

>  <∆G_bound>  (368) 
-9.12737

>  <∆G_unbound>  (368) 
0.752135

>  <comRMSD>  (368) 
0.650442

>  <N_constrained_atoms>  (368) 
29.0

>  <N_unconstrained_atoms>  (368) 
4.0

>  <runtime>  (368) 
52.175129

>  <LE>  (368) 
0.299379

>  <percent_hybrid>  (368) 
38.0

>  <dist>  (368) 
8.0

>  <ecfp4>  (368) 
0.234043

>  <daylight>  (368) 
0.340336

>  <topodist>  (368) 
5.0

>  <mces>  (368) 
33.0

>  <tdn>  (368) 
2.0

>  <tup>  (368) 
2.0

>  <rdn>  (368) 
0.0

>  <rup>  (368) 
0.0

>  <ldn>  (368) 
0.0

>  <lup>  (368) 
1.0

>  <mut>  (368) 
3.0

>  <maj>  (368) 
3.0

>  <min>  (368) 
0.0

>  <hyb>  (368) 
0.0

>  <sub>  (368) 
3.0

>  <query_index>  (368) 
51.0

>  <max_hit_Tanimoto>  (368) 
0.312357

>  <largest_ring>  (368) 
6

>  <N_interactions_kept>  (368) 
0.0

>  <N_interactions_lost>  (368) 
3.0

>  <interaction_uniqueness_metric>  (368) 
0.210454

>  <ad_hoc_penalty>  (368) 
-20.024901

>  <N_rotatable_bonds>  (368) 
8

>  <N_HA>  (368) 
32

>  <cluster>  (368) 
5623

>  <N_interactions>  (368) 
8

>  <Enamine>  (368) 
1

>  <Mcule>  (368) 
0

>  <N_PAINS>  (368) 
0

>  <UFF_Gibbs>  (368) 
129.856982

>  <strain_per_HA>  (368) 
3.93506

>  <saltbridge:HIS:51>  (368) 
0

>  <pistack:HIS:51>  (368) 
0

>  <hydroph_interaction:HIS:51>  (368) 
0

>  <hbond:ALA:132>  (368) 
0

>  <hbond:SER:135>  (368) 
0

>  <hydroph_interaction:TYR:150>  (368) 
1

>  <pistack:TYR:161>  (368) 
1

>  <hydroph_interaction:TYR:161>  (368) 
2

>  <hydroph_interaction:ASP:83>  (368) 
0

>  <hbond:TYR:130>  (368) 
1

>  <hydroph_interaction:ALA:132>  (368) 
0

>  <hbond:HIS:51>  (368) 
0

>  <hbond:ASP:129>  (368) 
1

>  <hbond:TYR:150>  (368) 
0

>  <hbond:GLY:151>  (368) 
0

>  <hbond:TYR:161>  (368) 
0

>  <hydroph_interaction:TYR:130>  (368) 
1

>  <hydroph_interaction:PRO:131>  (368) 
1

>  <hydroph_interaction:ASP:129>  (368) 
0

>  <saltbridge:ASP:75>  (368) 
0

>  <saltbridge:ASP:83>  (368) 
0

>  <hydroph_interaction:ASN:152>  (368) 
0

>  <halogenbond:TYR:150>  (368) 
0

>  <hbond:ASP:83>  (368) 
0

>  <hydroph_interaction:VAL:155>  (368) 
0

>  <pication:TYR:161>  (368) 
0

>  <hbond:PRO:131>  (368) 
0

>  <hbond:LEU:128>  (368) 
0

>  <saltbridge:ASP:129>  (368) 
0

>  <hbond:THR:134>  (368) 
0

>  <pication:HIS:51>  (368) 
0

>  <hbond:SER:81>  (368) 
0

>  <hbond:GLY:159>  (368) 
0

>  <hydroph_interaction:PRO:101>  (368) 
0

>  <hydroph_interaction:THR:134>  (368) 
0

>  <hbond:GLY:82>  (368) 
0

>  <hydroph_interaction:GLU:104>  (368) 
0

>  <hydroph_interaction:VAL:36>  (368) 
0

>  <hydroph_interaction:MET:49>  (368) 
0

>  <halogenbond:GLU:104>  (368) 
0

>  <hydroph_interaction:LYS:107>  (368) 
0

$$$$
Z3553180198
     RDKit          3D

 41 44  0  0  0  0  0  0  0  0999 V2000
   -7.7094    6.3842  -19.4431 C   0  0  0  0  0  0  0  0  0  0  0  0
   -7.2057    5.7958  -18.2092 N   0  0  0  0  0  0  0  0  0  0  0  0
   -6.0642    6.1324  -17.6176 N   0  0  0  0  0  0  0  0  0  0  0  0
   -5.8964    5.4510  -16.4849 N   0  0  0  0  0  0  0  0  0  0  0  0
   -6.9824    4.6622  -16.3650 C   0  0  0  0  0  0  0  0  0  0  0  0
   -7.3110    3.7588  -15.3497 C   0  0  0  0  0  0  0  0  0  0  0  0
   -6.4258    3.5392  -14.1545 C   0  0  0  0  0  0  0  0  0  0  0  0
   -7.0685    4.0089  -12.9722 O   0  0  0  0  0  0  0  0  0  0  0  0
   -7.2452    5.3651  -12.6779 C   0  0  0  0  0  0  0  0  0  0  0  0
   -6.7574    6.2495  -13.4336 O   0  0  0  0  0  0  0  0  0  0  0  0
   -8.0101    5.7696  -11.4859 C   0  0  0  0  0  0  0  0  0  0  0  0
   -8.6233    4.9538  -10.5447 C   0  0  0  0  0  0  0  0  0  0  0  0
   -8.6851    3.4506  -10.5302 C   0  0  0  0  0  0  0  0  0  0  0  0
   -9.2013    2.9343   -9.1772 C   0  0  0  0  0  0  0  0  0  0  0  0
  -10.4100    3.7454   -8.6877 C   0  0  0  0  0  0  0  0  0  0  0  0
  -10.0282    5.2198   -8.4930 C   0  0  0  0  0  0  0  0  0  0  0  0
   -9.2889    5.7152   -9.6538 N   0  0  0  0  0  0  0  0  0  0  0  0
   -9.0739    7.0041   -9.9761 C   0  0  0  0  0  0  0  0  0  0  0  0
   -8.2908    7.0754  -11.1126 C   0  0  0  0  0  0  0  0  0  0  0  0
   -8.5418    3.0740  -15.4744 C   0  0  0  0  0  0  0  0  0  0  0  0
   -9.3865    3.3037  -16.5866 C   0  0  0  0  0  0  0  0  0  0  0  0
   -9.0172    4.2213  -17.5883 C   0  0  0  0  0  0  0  0  0  0  0  0
   -7.7987    4.8778  -17.4326 C   0  0  0  0  0  0  0  0  0  0  0  0
   -6.9249    7.0133  -19.9144 H   0  0  0  0  0  0  0  0  0  0  0  0
   -8.5950    7.0154  -19.2204 H   0  0  0  0  0  0  0  0  0  0  0  0
   -7.9981    5.5808  -20.1530 H   0  0  0  0  0  0  0  0  0  0  0  0
   -6.2365    2.4507  -14.0461 H   0  0  0  0  0  0  0  0  0  0  0  0
   -5.4390    4.0366  -14.2747 H   0  0  0  0  0  0  0  0  0  0  0  0
   -7.6753    3.0257  -10.7101 H   0  0  0  0  0  0  0  0  0  0  0  0
   -9.3663    3.1135  -11.3408 H   0  0  0  0  0  0  0  0  0  0  0  0
   -8.3870    2.9974   -8.4218 H   0  0  0  0  0  0  0  0  0  0  0  0
   -9.4890    1.8658   -9.2785 H   0  0  0  0  0  0  0  0  0  0  0  0
  -11.2329    3.6694   -9.4319 H   0  0  0  0  0  0  0  0  0  0  0  0
  -10.7743    3.3278   -7.7245 H   0  0  0  0  0  0  0  0  0  0  0  0
  -10.9499    5.8232   -8.3456 H   0  0  0  0  0  0  0  0  0  0  0  0
   -9.3916    5.3218   -7.5877 H   0  0  0  0  0  0  0  0  0  0  0  0
   -9.4663    7.8480   -9.4234 H   0  0  0  0  0  0  0  0  0  0  0  0
   -7.9725    7.9787  -11.6164 H   0  0  0  0  0  0  0  0  0  0  0  0
   -8.8495    2.3692  -14.7120 H   0  0  0  0  0  0  0  0  0  0  0  0
  -10.3258    2.7723  -16.6662 H   0  0  0  0  0  0  0  0  0  0  0  0
   -9.6571    4.4077  -18.4408 H   0  0  0  0  0  0  0  0  0  0  0  0
  1  2  1  0
  2  3  1  0
  3  4  2  0
  4  5  1  0
  5  6  2  0
  6  7  1  0
  7  8  1  0
  8  9  1  0
  9 10  2  0
  9 11  1  0
 11 12  2  0
 12 13  1  0
 13 14  1  0
 14 15  1  0
 15 16  1  0
 16 17  1  0
 17 18  1  0
 18 19  2  0
  6 20  1  0
 20 21  2  0
 21 22  1  0
 22 23  2  0
 23  2  1  0
 23  5  1  0
 19 11  1  0
 17 12  1  0
  1 24  1  0
  1 25  1  0
  1 26  1  0
  7 27  1  0
  7 28  1  0
 13 29  1  0
 13 30  1  0
 14 31  1  0
 14 32  1  0
 15 33  1  0
 15 34  1  0
 16 35  1  0
 16 36  1  0
 18 37  1  0
 19 38  1  0
 20 39  1  0
 21 40  1  0
 22 41  1  0
A    1
 C1 
A    2
 N1 
A    3
 N2 
A    4
 N3 
A    5
 C2 
A    6
 C3 
A    7
 C4 
A    8
 O1 
A    9
 C5 
A   10
 O2 
A   11
 C6 
A   12
 C7 
A   13
 C8 
A   14
 C9 
A   15
 C10
A   16
 C11
A   17
 N4 
A   18
 C12
A   19
 C13
A   20
 C14
A   21
 C15
A   22
 C16
A   23
 C17
A   24
 H1 
A   25
 H2 
A   26
 H3 
A   27
 H4 
A   28
 H5 
A   29
 H6 
A   30
 H7 
A   31
 H8 
A   32
 H9 
A   33
 H10
A   34
 H11
A   35
 H12
A   36
 H13
A   37
 H14
A   38
 H15
A   39
 H16
A   40
 H17
A   41
 H18
M  END
>  <ref_pdb>  (369) 
x0051_0B

>  <ref_mols>  (369) 
x0969_1B,x0435_0B

>  <original SMILES>  (369) 
[H]c1c([H])c([H])c2c(nnn2C([H])([H])[H])c1C([H])([H])OC(=O)c1c([H])c([H])n2c1C([H])([H])C([H])([H])C([H])([H])C2([H])[H]

>  <index>  (369) 
640

>  <∆∆G>  (369) 
-6.52204

>  <∆G_bound>  (369) 
-6.059121

>  <∆G_unbound>  (369) 
0.462919

>  <comRMSD>  (369) 
0.455673

>  <N_constrained_atoms>  (369) 
20.0

>  <N_unconstrained_atoms>  (369) 
3.0

>  <runtime>  (369) 
61.534674

>  <LE>  (369) 
0.283567

>  <percent_hybrid>  (369) 
50.0

>  <dist>  (369) 
7.0

>  <ecfp4>  (369) 
0.106383

>  <daylight>  (369) 
0.300292

>  <topodist>  (369) 
1.0

>  <mces>  (369) 
25.0

>  <tdn>  (369) 
0.0

>  <tup>  (369) 
1.0

>  <rdn>  (369) 
0.0

>  <rup>  (369) 
0.0

>  <ldn>  (369) 
0.0

>  <lup>  (369) 
0.0

>  <mut>  (369) 
5.0

>  <maj>  (369) 
5.0

>  <min>  (369) 
0.0

>  <hyb>  (369) 
1.0

>  <sub>  (369) 
0.0

>  <query_index>  (369) 
343.0

>  <max_hit_Tanimoto>  (369) 
0.223929

>  <largest_ring>  (369) 
6

>  <N_interactions_kept>  (369) 
2.0

>  <N_interactions_lost>  (369) 
1.5

>  <interaction_uniqueness_metric>  (369) 
0.172651

>  <ad_hoc_penalty>  (369) 
-20.011472

>  <N_rotatable_bonds>  (369) 
4

>  <N_HA>  (369) 
23

>  <cluster>  (369) 
5633

>  <N_interactions>  (369) 
5

>  <Enamine>  (369) 
1

>  <Mcule>  (369) 
0

>  <N_PAINS>  (369) 
0

>  <UFF_Gibbs>  (369) 
85.826902

>  <strain_per_HA>  (369) 
3.731604

>  <saltbridge:HIS:51>  (369) 
1

>  <pistack:HIS:51>  (369) 
1

>  <hydroph_interaction:HIS:51>  (369) 
1

>  <hbond:ALA:132>  (369) 
0

>  <hbond:SER:135>  (369) 
0

>  <hydroph_interaction:TYR:150>  (369) 
0

>  <pistack:TYR:161>  (369) 
2

>  <hydroph_interaction:TYR:161>  (369) 
0

>  <hydroph_interaction:ASP:83>  (369) 
0

>  <hbond:TYR:130>  (369) 
0

>  <hydroph_interaction:ALA:132>  (369) 
0

>  <hbond:HIS:51>  (369) 
0

>  <hbond:ASP:129>  (369) 
0

>  <hbond:TYR:150>  (369) 
0

>  <hbond:GLY:151>  (369) 
0

>  <hbond:TYR:161>  (369) 
0

>  <hydroph_interaction:TYR:130>  (369) 
0

>  <hydroph_interaction:PRO:131>  (369) 
0

>  <hydroph_interaction:ASP:129>  (369) 
0

>  <saltbridge:ASP:75>  (369) 
0

>  <saltbridge:ASP:83>  (369) 
0

>  <hydroph_interaction:ASN:152>  (369) 
0

>  <halogenbond:TYR:150>  (369) 
0

>  <hbond:ASP:83>  (369) 
0

>  <hydroph_interaction:VAL:155>  (369) 
0

>  <pication:TYR:161>  (369) 
0

>  <hbond:PRO:131>  (369) 
0

>  <hbond:LEU:128>  (369) 
0

>  <saltbridge:ASP:129>  (369) 
0

>  <hbond:THR:134>  (369) 
0

>  <pication:HIS:51>  (369) 
0

>  <hbond:SER:81>  (369) 
0

>  <hbond:GLY:159>  (369) 
0

>  <hydroph_interaction:PRO:101>  (369) 
0

>  <hydroph_interaction:THR:134>  (369) 
0

>  <hbond:GLY:82>  (369) 
0

>  <hydroph_interaction:GLU:104>  (369) 
0

>  <hydroph_interaction:VAL:36>  (369) 
0

>  <hydroph_interaction:MET:49>  (369) 
0

>  <halogenbond:GLU:104>  (369) 
0

>  <hydroph_interaction:LYS:107>  (369) 
0

$$$$
MCULE-2394264797
     RDKit          3D

 29 30  0  0  0  0  0  0  0  0999 V2000
   -6.9224    4.2669  -20.6849 C   0  0  0  0  0  0  0  0  0  0  0  0
   -6.1468    4.2764  -19.3677 C   0  0  0  0  0  0  0  0  0  0  0  0
   -6.1611    5.6553  -18.6753 C   0  0  0  0  0  0  0  0  0  0  0  0
   -7.5394    6.0130  -18.1934 C   0  0  0  0  0  0  0  0  0  0  0  0
   -7.9548    5.6428  -16.9375 C   0  0  0  0  0  0  0  0  0  0  0  0
   -9.5534    6.1052  -16.7170 S   0  0  0  0  0  0  0  0  0  0  0  0
   -9.7221    6.8229  -18.2352 C   0  0  0  0  0  0  0  0  0  0  0  0
   -8.5238    6.6858  -18.9294 C   0  0  0  0  0  0  0  0  0  0  0  0
   -7.0900    4.8635  -16.0158 C   0  0  0  0  0  0  0  0  0  0  0  0
   -5.6265    5.3279  -16.1485 C   0  0  0  0  0  0  0  0  0  0  0  0
   -5.2078    5.6506  -17.5379 N   0  0  0  0  0  0  0  0  0  0  0  0
   -3.8196    5.9726  -17.8009 C   0  0  0  0  0  0  0  0  0  0  0  0
   -2.8576    6.3188  -16.6997 C   0  0  0  0  0  0  0  0  0  0  0  0
   -3.1733    7.9726  -16.1215 Cl  0  0  0  0  0  0  0  0  0  0  0  0
   -3.3999    6.0190  -18.9898 O   0  0  0  0  0  0  0  0  0  0  0  0
   -8.0076    4.4081  -20.5007 H   0  0  0  0  0  0  0  0  0  0  0  0
   -6.5530    5.0682  -21.3594 H   0  0  0  0  0  0  0  0  0  0  0  0
   -6.7822    3.2876  -21.1891 H   0  0  0  0  0  0  0  0  0  0  0  0
   -6.5667    3.5016  -18.6906 H   0  0  0  0  0  0  0  0  0  0  0  0
   -5.0960    3.9904  -19.5884 H   0  0  0  0  0  0  0  0  0  0  0  0
   -5.8541    6.4364  -19.4068 H   0  0  0  0  0  0  0  0  0  0  0  0
  -10.6164    7.2990  -18.6136 H   0  0  0  0  0  0  0  0  0  0  0  0
   -8.3762    7.0486  -19.9381 H   0  0  0  0  0  0  0  0  0  0  0  0
   -7.1674    3.7872  -16.2794 H   0  0  0  0  0  0  0  0  0  0  0  0
   -7.4337    4.9943  -14.9675 H   0  0  0  0  0  0  0  0  0  0  0  0
   -4.9806    4.5189  -15.7449 H   0  0  0  0  0  0  0  0  0  0  0  0
   -5.4895    6.2299  -15.5142 H   0  0  0  0  0  0  0  0  0  0  0  0
   -2.9358    5.6046  -15.8560 H   0  0  0  0  0  0  0  0  0  0  0  0
   -1.8144    6.2737  -17.0789 H   0  0  0  0  0  0  0  0  0  0  0  0
  1  2  1  0
  2  3  1  0
  3  4  1  0
  4  5  2  0
  5  6  1  0
  6  7  1  0
  7  8  2  0
  5  9  1  0
  9 10  1  0
 10 11  1  0
 11 12  1  0
 12 13  1  0
 13 14  1  0
 12 15  2  0
 11  3  1  0
  8  4  1  0
  1 16  1  0
  1 17  1  0
  1 18  1  0
  2 19  1  0
  2 20  1  0
  3 21  1  0
  7 22  1  0
  8 23  1  0
  9 24  1  0
  9 25  1  0
 10 26  1  0
 10 27  1  0
 13 28  1  0
 13 29  1  0
A    1
 C1 
A    2
 C2 
A    3
 C3 
A    4
 C4 
A    5
 C5 
A    6
 S1 
A    7
 C6 
A    8
 C7 
A    9
 C8 
A   10
 C9 
A   11
 N1 
A   12
 C10
A   13
 C11
A   14
CL1 
A   15
 O1 
A   16
 H1 
A   17
 H2 
A   18
 H3 
A   19
 H4 
A   20
 H5 
A   21
 H6 
A   22
 H7 
A   23
 H8 
A   24
 H9 
A   25
 H10
A   26
 H11
A   27
 H12
A   28
 H13
A   29
 H14
M  END
>  <ref_pdb>  (370) 
x0051_0B

>  <ref_mols>  (370) 
x0472_0B,x0227_0B

>  <original SMILES>  (370) 
[H]c1sc2c(c1[H])C([H])(C([H])([H])C([H])([H])[H])N(C(=O)C([H])([H])Cl)C([H])([H])C2([H])[H]

>  <index>  (370) 
283

>  <∆∆G>  (370) 
-7.385817

>  <∆G_bound>  (370) 
-7.365469

>  <∆G_unbound>  (370) 
0.020348

>  <comRMSD>  (370) 
0.745016

>  <N_constrained_atoms>  (370) 
18.0

>  <N_unconstrained_atoms>  (370) 
0.0

>  <runtime>  (370) 
25.929229

>  <LE>  (370) 
0.410323

>  <percent_hybrid>  (370) 
50.0

>  <dist>  (370) 
4.0

>  <ecfp4>  (370) 
0.396226

>  <daylight>  (370) 
0.666667

>  <topodist>  (370) 
0.0

>  <mces>  (370) 
16.0

>  <tdn>  (370) 
0.0

>  <tup>  (370) 
0.0

>  <rdn>  (370) 
0.0

>  <rup>  (370) 
0.0

>  <ldn>  (370) 
0.0

>  <lup>  (370) 
0.0

>  <mut>  (370) 
3.0

>  <maj>  (370) 
3.0

>  <min>  (370) 
0.0

>  <hyb>  (370) 
1.0

>  <sub>  (370) 
0.0

>  <query_index>  (370) 
78.0

>  <max_hit_Tanimoto>  (370) 
0.509827

>  <largest_ring>  (370) 
6

>  <N_interactions_kept>  (370) 
4.5

>  <N_interactions_lost>  (370) 
0.5

>  <interaction_uniqueness_metric>  (370) 
0.035255

>  <ad_hoc_penalty>  (370) 
-19.991402

>  <N_rotatable_bonds>  (370) 
3

>  <N_HA>  (370) 
15

>  <cluster>  (370) 
5957

>  <N_interactions>  (370) 
3

>  <Enamine>  (370) 
0

>  <Mcule>  (370) 
1

>  <N_PAINS>  (370) 
0

>  <UFF_Gibbs>  (370) 
143.657545

>  <strain_per_HA>  (370) 
7.980975

>  <saltbridge:HIS:51>  (370) 
0

>  <pistack:HIS:51>  (370) 
0

>  <hydroph_interaction:HIS:51>  (370) 
0

>  <hbond:ALA:132>  (370) 
0

>  <hbond:SER:135>  (370) 
0

>  <hydroph_interaction:TYR:150>  (370) 
0

>  <pistack:TYR:161>  (370) 
0

>  <hydroph_interaction:TYR:161>  (370) 
2

>  <hydroph_interaction:ASP:83>  (370) 
0

>  <hbond:TYR:130>  (370) 
0

>  <hydroph_interaction:ALA:132>  (370) 
1

>  <hbond:HIS:51>  (370) 
0

>  <hbond:ASP:129>  (370) 
0

>  <hbond:TYR:150>  (370) 
0

>  <hbond:GLY:151>  (370) 
0

>  <hbond:TYR:161>  (370) 
0

>  <hydroph_interaction:TYR:130>  (370) 
0

>  <hydroph_interaction:PRO:131>  (370) 
0

>  <hydroph_interaction:ASP:129>  (370) 
0

>  <saltbridge:ASP:75>  (370) 
0

>  <saltbridge:ASP:83>  (370) 
0

>  <hydroph_interaction:ASN:152>  (370) 
0

>  <halogenbond:TYR:150>  (370) 
0

>  <hbond:ASP:83>  (370) 
0

>  <hydroph_interaction:VAL:155>  (370) 
0

>  <pication:TYR:161>  (370) 
0

>  <hbond:PRO:131>  (370) 
0

>  <hbond:LEU:128>  (370) 
0

>  <saltbridge:ASP:129>  (370) 
0

>  <hbond:THR:134>  (370) 
0

>  <pication:HIS:51>  (370) 
0

>  <hbond:SER:81>  (370) 
0

>  <hbond:GLY:159>  (370) 
0

>  <hydroph_interaction:PRO:101>  (370) 
0

>  <hydroph_interaction:THR:134>  (370) 
0

>  <hbond:GLY:82>  (370) 
0

>  <hydroph_interaction:GLU:104>  (370) 
0

>  <hydroph_interaction:VAL:36>  (370) 
0

>  <hydroph_interaction:MET:49>  (370) 
0

>  <halogenbond:GLU:104>  (370) 
0

>  <hydroph_interaction:LYS:107>  (370) 
0

$$$$
PV-002242340498
     RDKit          3D

 50 54  0  0  0  0  0  0  0  0999 V2000
   -5.2584    4.0445  -17.9452 C   0  0  0  0  0  0  0  0  0  0  0  0
   -5.1819    5.5537  -18.2094 C   0  0  0  0  0  0  0  0  0  0  0  0
   -5.7364    6.3617  -17.0177 C   0  0  0  0  0  0  0  0  0  0  0  0
   -7.1959    6.3616  -17.0343 N   0  0  0  0  0  0  0  0  0  0  0  0
   -7.9643    6.6523  -15.9981 N   0  0  0  0  0  0  0  0  0  0  0  0
   -9.2436    6.6249  -16.4300 C   0  0  0  0  0  0  0  0  0  0  0  0
   -9.2791    6.3231  -17.7817 C   0  0  0  0  0  0  0  0  0  0  0  0
   -7.9537    6.1803  -18.1265 C   0  0  0  0  0  0  0  0  0  0  0  0
   -7.3929    5.8140  -19.4636 C   0  0  0  0  0  0  0  0  0  0  0  0
   -5.9222    5.9005  -19.4384 N   0  0  0  0  0  0  0  0  0  0  0  0
   -5.2079    6.0259  -20.6802 C   0  0  0  0  0  0  0  0  0  0  0  0
   -4.3252    5.1746  -20.9753 O   0  0  0  0  0  0  0  0  0  0  0  0
   -5.4758    7.1511  -21.6047 C   0  0  0  0  0  0  0  0  0  0  0  0
   -5.9973    8.3633  -21.1225 C   0  0  0  0  0  0  0  0  0  0  0  0
   -6.2390    9.4269  -21.9959 C   0  0  0  0  0  0  0  0  0  0  0  0
   -5.9633    9.3041  -23.3619 C   0  0  0  0  0  0  0  0  0  0  0  0
   -6.2360   10.4011  -24.1957 O   0  0  0  0  0  0  0  0  0  0  0  0
   -6.1174   10.4033  -25.6181 C   0  0  0  0  0  0  0  0  0  0  0  0
   -7.1711    9.5356  -26.2327 C   0  0  0  0  0  0  0  0  0  0  0  0
   -6.9566    8.5643  -27.1980 C   0  0  0  0  0  0  0  0  0  0  0  0
   -8.1518    8.0282  -27.4761 N   0  0  0  0  0  0  0  0  0  0  0  0
   -8.4843    7.0396  -28.3441 C   0  0  0  0  0  0  0  0  0  0  0  0
   -9.8340    6.6689  -28.4375 C   0  0  0  0  0  0  0  0  0  0  0  0
  -10.7903    7.3256  -27.6378 C   0  0  0  0  0  0  0  0  0  0  0  0
  -10.3979    8.3441  -26.7532 C   0  0  0  0  0  0  0  0  0  0  0  0
   -9.0439    8.6696  -26.7023 C   0  0  0  0  0  0  0  0  0  0  0  0
   -8.4871    9.6139  -25.9171 N   0  0  0  0  0  0  0  0  0  0  0  0
   -5.4245    8.0966  -23.8458 C   0  0  0  0  0  0  0  0  0  0  0  0
   -5.1803    7.0325  -22.9728 C   0  0  0  0  0  0  0  0  0  0  0  0
   -6.3048    3.7276  -17.7514 H   0  0  0  0  0  0  0  0  0  0  0  0
   -4.6369    3.7791  -17.0639 H   0  0  0  0  0  0  0  0  0  0  0  0
   -4.8735    3.4853  -18.8233 H   0  0  0  0  0  0  0  0  0  0  0  0
   -4.1083    5.8247  -18.3271 H   0  0  0  0  0  0  0  0  0  0  0  0
   -5.3824    7.4120  -17.0970 H   0  0  0  0  0  0  0  0  0  0  0  0
   -5.3672    5.9464  -16.0549 H   0  0  0  0  0  0  0  0  0  0  0  0
  -10.1012    6.8182  -15.8004 H   0  0  0  0  0  0  0  0  0  0  0  0
  -10.1482    6.2239  -18.4188 H   0  0  0  0  0  0  0  0  0  0  0  0
   -7.6952    4.7756  -19.7157 H   0  0  0  0  0  0  0  0  0  0  0  0
   -7.8177    6.4973  -20.2281 H   0  0  0  0  0  0  0  0  0  0  0  0
   -6.2088    8.4931  -20.0682 H   0  0  0  0  0  0  0  0  0  0  0  0
   -6.6447   10.3530  -21.6088 H   0  0  0  0  0  0  0  0  0  0  0  0
   -6.2625   11.4409  -25.9837 H   0  0  0  0  0  0  0  0  0  0  0  0
   -5.0987   10.0787  -25.9208 H   0  0  0  0  0  0  0  0  0  0  0  0
   -6.0155    8.2746  -27.6486 H   0  0  0  0  0  0  0  0  0  0  0  0
   -7.7302    6.5498  -28.9476 H   0  0  0  0  0  0  0  0  0  0  0  0
  -10.1378    5.8839  -29.1177 H   0  0  0  0  0  0  0  0  0  0  0  0
  -11.8325    7.0427  -27.7041 H   0  0  0  0  0  0  0  0  0  0  0  0
  -11.1224    8.8553  -26.1326 H   0  0  0  0  0  0  0  0  0  0  0  0
   -5.1876    7.9682  -24.8921 H   0  0  0  0  0  0  0  0  0  0  0  0
   -4.7697    6.1121  -23.3695 H   0  0  0  0  0  0  0  0  0  0  0  0
  1  2  1  0
  2  3  1  0
  3  4  1  0
  4  5  1  0
  5  6  2  0
  6  7  1  0
  7  8  2  0
  8  9  1  0
  9 10  1  0
 10 11  1  0
 11 12  2  0
 11 13  1  0
 13 14  2  0
 14 15  1  0
 15 16  2  0
 16 17  1  0
 17 18  1  0
 18 19  1  0
 19 20  2  0
 20 21  1  0
 21 22  1  0
 22 23  2  0
 23 24  1  0
 24 25  2  0
 25 26  1  0
 26 27  2  0
 16 28  1  0
 28 29  2  0
 10  2  1  0
  8  4  1  0
 29 13  1  0
 27 19  1  0
 26 21  1  0
  1 30  1  0
  1 31  1  0
  1 32  1  0
  2 33  1  0
  3 34  1  0
  3 35  1  0
  6 36  1  0
  7 37  1  0
  9 38  1  0
  9 39  1  0
 14 40  1  0
 15 41  1  0
 18 42  1  0
 18 43  1  0
 20 44  1  0
 22 45  1  0
 23 46  1  0
 24 47  1  0
 25 48  1  0
 28 49  1  0
 29 50  1  0
A    1
 C1 
A    2
 C2 
A    3
 C3 
A    4
 N1 
A    5
 N2 
A    6
 C4 
A    7
 C5 
A    8
 C6 
A    9
 C7 
A   10
 N3 
A   11
 C8 
A   12
 O1 
A   13
 C9 
A   14
 C10
A   15
 C11
A   16
 C12
A   17
 O2 
A   18
 C13
A   19
 C14
A   20
 C15
A   21
 N4 
A   22
 C16
A   23
 C17
A   24
 C18
A   25
 C19
A   26
 C20
A   27
 N5 
A   28
 C21
A   29
 C22
A   30
 H1 
A   31
 H2 
A   32
 H3 
A   33
 H4 
A   34
 H5 
A   35
 H6 
A   36
 H7 
A   37
 H8 
A   38
 H9 
A   39
 H10
A   40
 H11
A   41
 H12
A   42
 H13
A   43
 H14
A   44
 H15
A   45
 H16
A   46
 H17
A   47
 H18
A   48
 H19
A   49
 H20
A   50
 H21
M  END
>  <ref_pdb>  (371) 
x0051_0B

>  <ref_mols>  (371) 
x0846_1B,x0969_0B

>  <original SMILES>  (371) 
[H]c1nn2c(c1[H])C([H])([H])N(C(=O)c1c([H])c([H])c(OC([H])([H])c3nc4c([H])c([H])c([H])c([H])n4c3[H])c([H])c1[H])C([H])(C([H])([H])[H])C2([H])[H]

>  <index>  (371) 
626

>  <∆∆G>  (371) 
-7.825967

>  <∆G_bound>  (371) 
-7.92271

>  <∆G_unbound>  (371) 
-0.096743

>  <comRMSD>  (371) 
0.536085

>  <N_constrained_atoms>  (371) 
26.0

>  <N_unconstrained_atoms>  (371) 
6.0

>  <runtime>  (371) 
37.54655

>  <LE>  (371) 
0.244561

>  <percent_hybrid>  (371) 
39.0

>  <dist>  (371) 
9.0

>  <ecfp4>  (371) 
0.136364

>  <daylight>  (371) 
0.449541

>  <topodist>  (371) 
4.0

>  <mces>  (371) 
31.0

>  <tdn>  (371) 
2.0

>  <tup>  (371) 
2.0

>  <rdn>  (371) 
0.0

>  <rup>  (371) 
0.0

>  <ldn>  (371) 
0.0

>  <lup>  (371) 
0.0

>  <mut>  (371) 
5.0

>  <maj>  (371) 
5.0

>  <min>  (371) 
0.0

>  <hyb>  (371) 
0.0

>  <sub>  (371) 
3.0

>  <query_index>  (371) 
45.0

>  <max_hit_Tanimoto>  (371) 
0.345125

>  <largest_ring>  (371) 
6

>  <N_interactions_kept>  (371) 
1.5

>  <N_interactions_lost>  (371) 
1.0

>  <interaction_uniqueness_metric>  (371) 
0.118418

>  <ad_hoc_penalty>  (371) 
-19.98323

>  <N_rotatable_bonds>  (371) 
5

>  <N_HA>  (371) 
29

>  <cluster>  (371) 
5647

>  <N_interactions>  (371) 
4

>  <Enamine>  (371) 
1

>  <Mcule>  (371) 
0

>  <N_PAINS>  (371) 
0

>  <UFF_Gibbs>  (371) 
109.060983

>  <strain_per_HA>  (371) 
3.408156

>  <saltbridge:HIS:51>  (371) 
0

>  <pistack:HIS:51>  (371) 
0

>  <hydroph_interaction:HIS:51>  (371) 
0

>  <hbond:ALA:132>  (371) 
0

>  <hbond:SER:135>  (371) 
0

>  <hydroph_interaction:TYR:150>  (371) 
0

>  <pistack:TYR:161>  (371) 
0

>  <hydroph_interaction:TYR:161>  (371) 
2

>  <hydroph_interaction:ASP:83>  (371) 
0

>  <hbond:TYR:130>  (371) 
0

>  <hydroph_interaction:ALA:132>  (371) 
0

>  <hbond:HIS:51>  (371) 
0

>  <hbond:ASP:129>  (371) 
0

>  <hbond:TYR:150>  (371) 
0

>  <hbond:GLY:151>  (371) 
0

>  <hbond:TYR:161>  (371) 
0

>  <hydroph_interaction:TYR:130>  (371) 
1

>  <hydroph_interaction:PRO:131>  (371) 
1

>  <hydroph_interaction:ASP:129>  (371) 
0

>  <saltbridge:ASP:75>  (371) 
0

>  <saltbridge:ASP:83>  (371) 
0

>  <hydroph_interaction:ASN:152>  (371) 
0

>  <halogenbond:TYR:150>  (371) 
0

>  <hbond:ASP:83>  (371) 
0

>  <hydroph_interaction:VAL:155>  (371) 
0

>  <pication:TYR:161>  (371) 
0

>  <hbond:PRO:131>  (371) 
0

>  <hbond:LEU:128>  (371) 
0

>  <saltbridge:ASP:129>  (371) 
0

>  <hbond:THR:134>  (371) 
0

>  <pication:HIS:51>  (371) 
0

>  <hbond:SER:81>  (371) 
0

>  <hbond:GLY:159>  (371) 
0

>  <hydroph_interaction:PRO:101>  (371) 
0

>  <hydroph_interaction:THR:134>  (371) 
0

>  <hbond:GLY:82>  (371) 
0

>  <hydroph_interaction:GLU:104>  (371) 
0

>  <hydroph_interaction:VAL:36>  (371) 
0

>  <hydroph_interaction:MET:49>  (371) 
0

>  <halogenbond:GLU:104>  (371) 
0

>  <hydroph_interaction:LYS:107>  (371) 
0

$$$$
CSSB00016177368
     RDKit          3D

 30 32  0  0  0  0  0  0  0  0999 V2000
   -4.9953    4.9583  -19.9190 C   0  0  0  0  0  0  0  0  0  0  0  0
   -5.8699    6.2114  -19.8162 C   0  0  0  0  0  0  0  0  0  0  0  0
   -5.6812    6.9179  -18.4619 C   0  0  0  0  0  0  0  0  0  0  0  0
   -6.2912    6.1425  -17.3727 N   0  0  0  0  0  0  0  0  0  0  0  0
   -5.7664    6.3114  -16.0111 C   0  0  0  0  0  0  0  0  0  0  0  0
   -6.2792    5.2098  -15.0793 C   0  0  0  0  0  0  0  0  0  0  0  0
   -7.8087    5.1551  -15.1012 C   0  0  0  0  0  0  0  0  0  0  0  0
   -8.3245    5.0148  -16.5085 C   0  0  0  0  0  0  0  0  0  0  0  0
   -9.5864    4.4477  -16.7422 C   0  0  0  0  0  0  0  0  0  0  0  0
  -10.0842    4.3490  -18.0441 C   0  0  0  0  0  0  0  0  0  0  0  0
   -9.3286    4.8162  -19.1221 C   0  0  0  0  0  0  0  0  0  0  0  0
   -8.0712    5.3925  -18.9011 C   0  0  0  0  0  0  0  0  0  0  0  0
   -7.2763    5.8512  -20.0030 N   0  0  0  0  0  0  0  0  0  0  0  0
   -7.5758    5.5184  -17.5915 C   0  0  0  0  0  0  0  0  0  0  0  0
   -3.9230    5.2295  -19.8173 H   0  0  0  0  0  0  0  0  0  0  0  0
   -5.2595    4.2266  -19.1258 H   0  0  0  0  0  0  0  0  0  0  0  0
   -5.1423    4.4776  -20.9094 H   0  0  0  0  0  0  0  0  0  0  0  0
   -5.5669    6.9122  -20.6250 H   0  0  0  0  0  0  0  0  0  0  0  0
   -6.1681    7.9163  -18.5046 H   0  0  0  0  0  0  0  0  0  0  0  0
   -4.5976    7.0799  -18.2704 H   0  0  0  0  0  0  0  0  0  0  0  0
   -4.6556    6.2718  -16.0259 H   0  0  0  0  0  0  0  0  0  0  0  0
   -6.0752    7.3053  -15.6203 H   0  0  0  0  0  0  0  0  0  0  0  0
   -5.8667    4.2291  -15.4040 H   0  0  0  0  0  0  0  0  0  0  0  0
   -5.9298    5.4074  -14.0430 H   0  0  0  0  0  0  0  0  0  0  0  0
   -8.1437    4.2942  -14.4824 H   0  0  0  0  0  0  0  0  0  0  0  0
   -8.2226    6.0856  -14.6560 H   0  0  0  0  0  0  0  0  0  0  0  0
  -10.1844    4.0828  -15.9163 H   0  0  0  0  0  0  0  0  0  0  0  0
  -11.0564    3.9064  -18.2182 H   0  0  0  0  0  0  0  0  0  0  0  0
   -9.7188    4.7238  -20.1278 H   0  0  0  0  0  0  0  0  0  0  0  0
   -7.6685    5.8350  -20.9717 H   0  0  0  0  0  0  0  0  0  0  0  0
  1  2  1  0
  2  3  1  0
  3  4  1  0
  4  5  1  0
  5  6  1  0
  6  7  1  0
  7  8  1  0
  8  9  1  0
  9 10  2  0
 10 11  1  0
 11 12  2  0
 12 13  1  0
 12 14  1  0
 13  2  1  0
 14  4  1  0
 14  8  2  0
  1 15  1  0
  1 16  1  0
  1 17  1  0
  2 18  1  0
  3 19  1  0
  3 20  1  0
  5 21  1  0
  5 22  1  0
  6 23  1  0
  6 24  1  0
  7 25  1  0
  7 26  1  0
  9 27  1  0
 10 28  1  0
 11 29  1  0
 13 30  1  0
A    1
 C1 
A    2
 C2 
A    3
 C3 
A    4
 N1 
A    5
 C4 
A    6
 C5 
A    7
 C6 
A    8
 C7 
A    9
 C8 
A   10
 C9 
A   11
 C10
A   12
 C11
A   13
 N2 
A   14
 C12
A   15
 H1 
A   16
 H2 
A   17
 H3 
A   18
 H4 
A   19
 H5 
A   20
 H6 
A   21
 H7 
A   22
 H8 
A   23
 H9 
A   24
 H10
A   25
 H11
A   26
 H12
A   27
 H13
A   28
 H14
A   29
 H15
A   30
 H16
M  END
>  <ref_pdb>  (372) 
x0051_0B

>  <ref_mols>  (372) 
x0443_0B,x0455_0B

>  <original SMILES>  (372) 
[H]c1c([H])c2c3c(c1[H])C([H])([H])C([H])([H])C([H])([H])N3C([H])([H])C([H])(C([H])([H])[H])N2[H]

>  <index>  (372) 
494

>  <∆∆G>  (372) 
-6.315481

>  <∆G_bound>  (372) 
-6.139626

>  <∆G_unbound>  (372) 
0.175855

>  <comRMSD>  (372) 
0.527893

>  <N_constrained_atoms>  (372) 
14.0

>  <N_unconstrained_atoms>  (372) 
1.0

>  <runtime>  (372) 
29.390246

>  <LE>  (372) 
0.421032

>  <percent_hybrid>  (372) 
43.0

>  <dist>  (372) 
2.0

>  <ecfp4>  (372) 
0.5

>  <daylight>  (372) 
0.56338

>  <topodist>  (372) 
1.0

>  <mces>  (372) 
15.0

>  <tdn>  (372) 
0.0

>  <tup>  (372) 
0.0

>  <rdn>  (372) 
0.0

>  <rup>  (372) 
0.0

>  <ldn>  (372) 
0.0

>  <lup>  (372) 
1.0

>  <mut>  (372) 
1.0

>  <maj>  (372) 
1.0

>  <min>  (372) 
0.0

>  <hyb>  (372) 
0.0

>  <sub>  (372) 
0.0

>  <query_index>  (372) 
244.0

>  <max_hit_Tanimoto>  (372) 
0.26844

>  <largest_ring>  (372) 
6

>  <N_interactions_kept>  (372) 
1.0

>  <N_interactions_lost>  (372) 
2.0

>  <interaction_uniqueness_metric>  (372) 
0.05615

>  <ad_hoc_penalty>  (372) 
-19.955854

>  <N_rotatable_bonds>  (372) 
1

>  <N_HA>  (372) 
14

>  <cluster>  (372) 
5767

>  <N_interactions>  (372) 
5

>  <Enamine>  (372) 
1

>  <Mcule>  (372) 
0

>  <N_PAINS>  (372) 
0

>  <UFF_Gibbs>  (372) 
70.230422

>  <strain_per_HA>  (372) 
4.682028

>  <saltbridge:HIS:51>  (372) 
0

>  <pistack:HIS:51>  (372) 
0

>  <hydroph_interaction:HIS:51>  (372) 
0

>  <hbond:ALA:132>  (372) 
0

>  <hbond:SER:135>  (372) 
0

>  <hydroph_interaction:TYR:150>  (372) 
1

>  <pistack:TYR:161>  (372) 
0

>  <hydroph_interaction:TYR:161>  (372) 
3

>  <hydroph_interaction:ASP:83>  (372) 
0

>  <hbond:TYR:130>  (372) 
1

>  <hydroph_interaction:ALA:132>  (372) 
0

>  <hbond:HIS:51>  (372) 
0

>  <hbond:ASP:129>  (372) 
0

>  <hbond:TYR:150>  (372) 
0

>  <hbond:GLY:151>  (372) 
0

>  <hbond:TYR:161>  (372) 
0

>  <hydroph_interaction:TYR:130>  (372) 
0

>  <hydroph_interaction:PRO:131>  (372) 
0

>  <hydroph_interaction:ASP:129>  (372) 
0

>  <saltbridge:ASP:75>  (372) 
0

>  <saltbridge:ASP:83>  (372) 
0

>  <hydroph_interaction:ASN:152>  (372) 
0

>  <halogenbond:TYR:150>  (372) 
0

>  <hbond:ASP:83>  (372) 
0

>  <hydroph_interaction:VAL:155>  (372) 
0

>  <pication:TYR:161>  (372) 
0

>  <hbond:PRO:131>  (372) 
0

>  <hbond:LEU:128>  (372) 
0

>  <saltbridge:ASP:129>  (372) 
0

>  <hbond:THR:134>  (372) 
0

>  <pication:HIS:51>  (372) 
0

>  <hbond:SER:81>  (372) 
0

>  <hbond:GLY:159>  (372) 
0

>  <hydroph_interaction:PRO:101>  (372) 
0

>  <hydroph_interaction:THR:134>  (372) 
0

>  <hbond:GLY:82>  (372) 
0

>  <hydroph_interaction:GLU:104>  (372) 
0

>  <hydroph_interaction:VAL:36>  (372) 
0

>  <hydroph_interaction:MET:49>  (372) 
0

>  <halogenbond:GLU:104>  (372) 
0

>  <hydroph_interaction:LYS:107>  (372) 
0

$$$$
OSNVYHDCLRXUKH-UHFFFAOYSA-N
     RDKit          3D

 47 50  0  0  0  0  0  0  0  0999 V2000
   -7.5960    9.0972  -26.6947 C   0  0  0  0  0  0  0  0  0  0  0  0
   -6.7065    9.6404  -25.7100 N   0  0  0  0  0  0  0  0  0  0  0  0
   -7.1488   10.1377  -24.4079 C   0  0  0  0  0  0  0  0  0  0  0  0
   -6.9293    9.0848  -23.3565 C   0  0  0  0  0  0  0  0  0  0  0  0
   -7.7983    7.9864  -23.2640 C   0  0  0  0  0  0  0  0  0  0  0  0
   -7.5702    6.9854  -22.3168 C   0  0  0  0  0  0  0  0  0  0  0  0
   -6.4873    7.0765  -21.4359 C   0  0  0  0  0  0  0  0  0  0  0  0
   -6.2886    6.0516  -20.5000 O   0  0  0  0  0  0  0  0  0  0  0  0
   -5.7546    6.2263  -19.2138 C   0  0  0  0  0  0  0  0  0  0  0  0
   -5.0620    5.1639  -18.6227 C   0  0  0  0  0  0  0  0  0  0  0  0
   -4.5369    5.2918  -17.3320 C   0  0  0  0  0  0  0  0  0  0  0  0
   -4.6896    6.4926  -16.6205 C   0  0  0  0  0  0  0  0  0  0  0  0
   -4.1469    6.6320  -15.2274 C   0  0  0  0  0  0  0  0  0  0  0  0
   -5.4064    7.5483  -17.2012 C   0  0  0  0  0  0  0  0  0  0  0  0
   -5.9398    7.4175  -18.4865 C   0  0  0  0  0  0  0  0  0  0  0  0
   -5.6050    8.1660  -21.5386 C   0  0  0  0  0  0  0  0  0  0  0  0
   -5.8227    9.1607  -22.4951 C   0  0  0  0  0  0  0  0  0  0  0  0
   -7.1515    8.4946  -27.8214 N   0  0  0  0  0  0  0  0  0  0  0  0
   -8.1838    8.0870  -28.6064 C   0  0  0  0  0  0  0  0  0  0  0  0
   -9.4477    8.3402  -28.0895 C   0  0  0  0  0  0  0  0  0  0  0  0
  -10.7278    8.0690  -28.8162 C   0  0  0  0  0  0  0  0  0  0  0  0
  -10.5114    7.0212  -29.9210 C   0  0  0  0  0  0  0  0  0  0  0  0
   -9.2541    7.3368  -30.7532 C   0  0  0  0  0  0  0  0  0  0  0  0
   -7.9828    7.3211  -29.8840 C   0  0  0  0  0  0  0  0  0  0  0  0
   -9.2845    9.1467  -26.6253 S   0  0  0  0  0  0  0  0  0  0  0  0
   -5.6789    9.5667  -25.8816 H   0  0  0  0  0  0  0  0  0  0  0  0
   -6.5738   11.0559  -24.1625 H   0  0  0  0  0  0  0  0  0  0  0  0
   -8.2185   10.4339  -24.4313 H   0  0  0  0  0  0  0  0  0  0  0  0
   -8.6495    7.9023  -23.9271 H   0  0  0  0  0  0  0  0  0  0  0  0
   -8.2456    6.1413  -22.2577 H   0  0  0  0  0  0  0  0  0  0  0  0
   -4.9229    4.2376  -19.1689 H   0  0  0  0  0  0  0  0  0  0  0  0
   -4.0044    4.4562  -16.8941 H   0  0  0  0  0  0  0  0  0  0  0  0
   -3.6707    7.6271  -15.1002 H   0  0  0  0  0  0  0  0  0  0  0  0
   -3.3834    5.8535  -15.0134 H   0  0  0  0  0  0  0  0  0  0  0  0
   -4.9770    6.5317  -14.4948 H   0  0  0  0  0  0  0  0  0  0  0  0
   -5.5596    8.4711  -16.6539 H   0  0  0  0  0  0  0  0  0  0  0  0
   -6.5089    8.2369  -18.9047 H   0  0  0  0  0  0  0  0  0  0  0  0
   -4.7378    8.2340  -20.8945 H   0  0  0  0  0  0  0  0  0  0  0  0
   -5.1252    9.9875  -22.5656 H   0  0  0  0  0  0  0  0  0  0  0  0
  -11.0895    9.0182  -29.2679 H   0  0  0  0  0  0  0  0  0  0  0  0
  -11.4950    7.7025  -28.1003 H   0  0  0  0  0  0  0  0  0  0  0  0
  -10.4079    6.0128  -29.4618 H   0  0  0  0  0  0  0  0  0  0  0  0
  -11.4005    7.0041  -30.5875 H   0  0  0  0  0  0  0  0  0  0  0  0
   -9.1519    6.5839  -31.5650 H   0  0  0  0  0  0  0  0  0  0  0  0
   -9.3673    8.3375  -31.2269 H   0  0  0  0  0  0  0  0  0  0  0  0
   -7.1368    7.7585  -30.4568 H   0  0  0  0  0  0  0  0  0  0  0  0
   -7.7272    6.2708  -29.6288 H   0  0  0  0  0  0  0  0  0  0  0  0
  1  2  1  0
  2  3  1  0
  3  4  1  0
  4  5  2  0
  5  6  1  0
  6  7  2  0
  7  8  1  0
  8  9  1  0
  9 10  2  0
 10 11  1  0
 11 12  2  0
 12 13  1  0
 12 14  1  0
 14 15  2  0
  7 16  1  0
 16 17  2  0
  1 18  2  0
 18 19  1  0
 19 20  2  0
 20 21  1  0
 21 22  1  0
 22 23  1  0
 23 24  1  0
 20 25  1  0
 25  1  1  0
 17  4  1  0
 15  9  1  0
 24 19  1  0
  2 26  1  0
  3 27  1  0
  3 28  1  0
  5 29  1  0
  6 30  1  0
 10 31  1  0
 11 32  1  0
 13 33  1  0
 13 34  1  0
 13 35  1  0
 14 36  1  0
 15 37  1  0
 16 38  1  0
 17 39  1  0
 21 40  1  0
 21 41  1  0
 22 42  1  0
 22 43  1  0
 23 44  1  0
 23 45  1  0
 24 46  1  0
 24 47  1  0
A    1
 C1 
A    2
 N1 
A    3
 C2 
A    4
 C3 
A    5
 C4 
A    6
 C5 
A    7
 C6 
A    8
 O1 
A    9
 C7 
A   10
 C8 
A   11
 C9 
A   12
 C10
A   13
 C11
A   14
 C12
A   15
 C13
A   16
 C14
A   17
 C15
A   18
 N2 
A   19
 C16
A   20
 C17
A   21
 C18
A   22
 C19
A   23
 C20
A   24
 C21
A   25
 S1 
A   26
 H1 
A   27
 H2 
A   28
 H3 
A   29
 H4 
A   30
 H5 
A   31
 H6 
A   32
 H7 
A   33
 H8 
A   34
 H9 
A   35
 H10
A   36
 H11
A   37
 H12
A   38
 H13
A   39
 H14
A   40
 H15
A   41
 H16
A   42
 H17
A   43
 H18
A   44
 H19
A   45
 H20
A   46
 H21
A   47
 H22
M  END
>  <ref_pdb>  (373) 
x0051_0B

>  <ref_mols>  (373) 
x0846_1B,x0680_0B

>  <original SMILES>  (373) 
[H]c1c([H])c(C([H])([H])[H])c([H])c([H])c1Oc1c([H])c([H])c(C([H])([H])N([H])c2nc3c(s2)C([H])([H])C([H])([H])C([H])([H])C3([H])[H])c([H])c1[H]

>  <index>  (373) 
566

>  <∆∆G>  (373) 
-6.965319

>  <∆G_bound>  (373) 
-6.994718

>  <∆G_unbound>  (373) 
-0.029399

>  <comRMSD>  (373) 
0.545017

>  <N_constrained_atoms>  (373) 
26.0

>  <N_unconstrained_atoms>  (373) 
1.0

>  <runtime>  (373) 
52.179769

>  <LE>  (373) 
0.257975

>  <percent_hybrid>  (373) 
31.0

>  <dist>  (373) 
10.0

>  <ecfp4>  (373) 
0.195122

>  <daylight>  (373) 
0.302419

>  <topodist>  (373) 
5.0

>  <mces>  (373) 
28.0

>  <tdn>  (373) 
5.0

>  <tup>  (373) 
0.0

>  <rdn>  (373) 
0.0

>  <rup>  (373) 
0.0

>  <ldn>  (373) 
0.0

>  <lup>  (373) 
0.0

>  <mut>  (373) 
1.0

>  <maj>  (373) 
1.0

>  <min>  (373) 
0.0

>  <hyb>  (373) 
4.0

>  <sub>  (373) 
2.0

>  <query_index>  (373) 
100.0

>  <max_hit_Tanimoto>  (373) 
0.251685

>  <largest_ring>  (373) 
6

>  <N_interactions_kept>  (373) 
3.5

>  <N_interactions_lost>  (373) 
0.5

>  <interaction_uniqueness_metric>  (373) 
0.018782

>  <ad_hoc_penalty>  (373) 
-19.955746

>  <N_rotatable_bonds>  (373) 
6

>  <N_HA>  (373) 
25

>  <cluster>  (373) 
5700

>  <N_interactions>  (373) 
4

>  <Enamine>  (373) 
0

>  <Mcule>  (373) 
1

>  <N_PAINS>  (373) 
0

>  <UFF_Gibbs>  (373) 
88.223473

>  <strain_per_HA>  (373) 
3.267536

>  <saltbridge:HIS:51>  (373) 
0

>  <pistack:HIS:51>  (373) 
0

>  <hydroph_interaction:HIS:51>  (373) 
0

>  <hbond:ALA:132>  (373) 
0

>  <hbond:SER:135>  (373) 
0

>  <hydroph_interaction:TYR:150>  (373) 
0

>  <pistack:TYR:161>  (373) 
0

>  <hydroph_interaction:TYR:161>  (373) 
4

>  <hydroph_interaction:ASP:83>  (373) 
0

>  <hbond:TYR:130>  (373) 
0

>  <hydroph_interaction:ALA:132>  (373) 
0

>  <hbond:HIS:51>  (373) 
0

>  <hbond:ASP:129>  (373) 
0

>  <hbond:TYR:150>  (373) 
0

>  <hbond:GLY:151>  (373) 
0

>  <hbond:TYR:161>  (373) 
0

>  <hydroph_interaction:TYR:130>  (373) 
0

>  <hydroph_interaction:PRO:131>  (373) 
0

>  <hydroph_interaction:ASP:129>  (373) 
0

>  <saltbridge:ASP:75>  (373) 
0

>  <saltbridge:ASP:83>  (373) 
0

>  <hydroph_interaction:ASN:152>  (373) 
0

>  <halogenbond:TYR:150>  (373) 
0

>  <hbond:ASP:83>  (373) 
0

>  <hydroph_interaction:VAL:155>  (373) 
0

>  <pication:TYR:161>  (373) 
0

>  <hbond:PRO:131>  (373) 
0

>  <hbond:LEU:128>  (373) 
0

>  <saltbridge:ASP:129>  (373) 
0

>  <hbond:THR:134>  (373) 
0

>  <pication:HIS:51>  (373) 
0

>  <hbond:SER:81>  (373) 
0

>  <hbond:GLY:159>  (373) 
0

>  <hydroph_interaction:PRO:101>  (373) 
0

>  <hydroph_interaction:THR:134>  (373) 
0

>  <hbond:GLY:82>  (373) 
0

>  <hydroph_interaction:GLU:104>  (373) 
0

>  <hydroph_interaction:VAL:36>  (373) 
0

>  <hydroph_interaction:MET:49>  (373) 
0

>  <halogenbond:GLU:104>  (373) 
0

>  <hydroph_interaction:LYS:107>  (373) 
0

$$$$
CSSS00000010526
     RDKit          3D

 27 29  0  0  0  0  0  0  0  0999 V2000
   -2.5879    4.9470  -18.0269 O   0  0  0  0  0  0  0  0  0  0  0  0
   -3.6927    5.0924  -18.6176 C   0  0  0  0  0  0  0  0  0  0  0  0
   -4.8784    5.0408  -17.8830 C   0  0  0  0  0  0  0  0  0  0  0  0
   -6.1087    5.2024  -18.5459 C   0  0  0  0  0  0  0  0  0  0  0  0
   -6.1236    5.3892  -19.8654 O   0  0  0  0  0  0  0  0  0  0  0  0
   -5.0202    5.4452  -20.6048 C   0  0  0  0  0  0  0  0  0  0  0  0
   -5.1206    5.6488  -21.9856 C   0  0  0  0  0  0  0  0  0  0  0  0
   -3.9666    5.7105  -22.7717 C   0  0  0  0  0  0  0  0  0  0  0  0
   -2.7069    5.5689  -22.1824 C   0  0  0  0  0  0  0  0  0  0  0  0
   -2.5938    5.3641  -20.8037 C   0  0  0  0  0  0  0  0  0  0  0  0
   -3.7496    5.3009  -20.0040 C   0  0  0  0  0  0  0  0  0  0  0  0
   -7.4019    5.1558  -17.8179 C   0  0  0  0  0  0  0  0  0  0  0  0
   -7.5024    5.5212  -16.4599 C   0  0  0  0  0  0  0  0  0  0  0  0
   -8.7367    5.4763  -15.8041 C   0  0  0  0  0  0  0  0  0  0  0  0
   -9.8832    5.0751  -16.4926 C   0  0  0  0  0  0  0  0  0  0  0  0
   -9.7995    4.7233  -17.8411 C   0  0  0  0  0  0  0  0  0  0  0  0
   -8.5685    4.7670  -18.5026 C   0  0  0  0  0  0  0  0  0  0  0  0
   -4.8334    4.8510  -16.8185 H   0  0  0  0  0  0  0  0  0  0  0  0
   -6.0928    5.7596  -22.4493 H   0  0  0  0  0  0  0  0  0  0  0  0
   -4.0484    5.8684  -23.8393 H   0  0  0  0  0  0  0  0  0  0  0  0
   -1.8164    5.6173  -22.7957 H   0  0  0  0  0  0  0  0  0  0  0  0
   -1.6080    5.2559  -20.3683 H   0  0  0  0  0  0  0  0  0  0  0  0
   -6.6391    5.8659  -15.9072 H   0  0  0  0  0  0  0  0  0  0  0  0
   -8.8053    5.7602  -14.7618 H   0  0  0  0  0  0  0  0  0  0  0  0
  -10.8373    5.0421  -15.9827 H   0  0  0  0  0  0  0  0  0  0  0  0
  -10.6894    4.4162  -18.3753 H   0  0  0  0  0  0  0  0  0  0  0  0
   -8.5268    4.4854  -19.5476 H   0  0  0  0  0  0  0  0  0  0  0  0
  1  2  2  0
  2  3  1  0
  3  4  2  0
  4  5  1  0
  5  6  1  0
  6  7  2  0
  7  8  1  0
  8  9  2  0
  9 10  1  0
 10 11  2  0
  4 12  1  0
 12 13  2  0
 13 14  1  0
 14 15  2  0
 15 16  1  0
 16 17  2  0
 11  2  1  0
 11  6  1  0
 17 12  1  0
  3 18  1  0
  7 19  1  0
  8 20  1  0
  9 21  1  0
 10 22  1  0
 13 23  1  0
 14 24  1  0
 15 25  1  0
 16 26  1  0
 17 27  1  0
A    1
 O1 
A    2
 C1 
A    3
 C2 
A    4
 C3 
A    5
 O2 
A    6
 C4 
A    7
 C5 
A    8
 C6 
A    9
 C7 
A   10
 C8 
A   11
 C9 
A   12
 C10
A   13
 C11
A   14
 C12
A   15
 C13
A   16
 C14
A   17
 C15
A   18
 H1 
A   19
 H2 
A   20
 H3 
A   21
 H4 
A   22
 H5 
A   23
 H6 
A   24
 H7 
A   25
 H8 
A   26
 H9 
A   27
 H10
M  END
>  <ref_pdb>  (374) 
x0051_0B

>  <ref_mols>  (374) 
x0852_0B,x0680_0B

>  <original SMILES>  (374) 
[H]c1c([H])c([H])c(-c2oc3c([H])c([H])c([H])c([H])c3c(=O)c2[H])c([H])c1[H]

>  <index>  (374) 
495

>  <∆∆G>  (374) 
-5.959709

>  <∆G_bound>  (374) 
-5.83915

>  <∆G_unbound>  (374) 
0.12056

>  <comRMSD>  (374) 
0.625569

>  <N_constrained_atoms>  (374) 
19.0

>  <N_unconstrained_atoms>  (374) 
1.0

>  <runtime>  (374) 
34.112216

>  <LE>  (374) 
0.297985

>  <percent_hybrid>  (374) 
20.0

>  <dist>  (374) 
6.0

>  <ecfp4>  (374) 
0.081967

>  <daylight>  (374) 
0.174129

>  <topodist>  (374) 
3.0

>  <mces>  (374) 
19.0

>  <tdn>  (374) 
1.0

>  <tup>  (374) 
0.0

>  <rdn>  (374) 
1.0

>  <rup>  (374) 
0.0

>  <ldn>  (374) 
1.0

>  <lup>  (374) 
0.0

>  <mut>  (374) 
2.0

>  <maj>  (374) 
2.0

>  <min>  (374) 
0.0

>  <hyb>  (374) 
1.0

>  <sub>  (374) 
3.0

>  <query_index>  (374) 
135.0

>  <max_hit_Tanimoto>  (374) 
0.165971

>  <largest_ring>  (374) 
6

>  <N_interactions_kept>  (374) 
5.0

>  <N_interactions_lost>  (374) 
2.5

>  <interaction_uniqueness_metric>  (374) 
0.071041

>  <ad_hoc_penalty>  (374) 
-19.89774

>  <N_rotatable_bonds>  (374) 
1

>  <N_HA>  (374) 
17

>  <cluster>  (374) 
5766

>  <N_interactions>  (374) 
6

>  <Enamine>  (374) 
1

>  <Mcule>  (374) 
0

>  <N_PAINS>  (374) 
0

>  <UFF_Gibbs>  (374) 
97.363556

>  <strain_per_HA>  (374) 
4.868178

>  <saltbridge:HIS:51>  (374) 
0

>  <pistack:HIS:51>  (374) 
0

>  <hydroph_interaction:HIS:51>  (374) 
0

>  <hbond:ALA:132>  (374) 
0

>  <hbond:SER:135>  (374) 
0

>  <hydroph_interaction:TYR:150>  (374) 
1

>  <pistack:TYR:161>  (374) 
0

>  <hydroph_interaction:TYR:161>  (374) 
4

>  <hydroph_interaction:ASP:83>  (374) 
0

>  <hbond:TYR:130>  (374) 
0

>  <hydroph_interaction:ALA:132>  (374) 
0

>  <hbond:HIS:51>  (374) 
0

>  <hbond:ASP:129>  (374) 
0

>  <hbond:TYR:150>  (374) 
0

>  <hbond:GLY:151>  (374) 
0

>  <hbond:TYR:161>  (374) 
0

>  <hydroph_interaction:TYR:130>  (374) 
0

>  <hydroph_interaction:PRO:131>  (374) 
0

>  <hydroph_interaction:ASP:129>  (374) 
1

>  <saltbridge:ASP:75>  (374) 
0

>  <saltbridge:ASP:83>  (374) 
0

>  <hydroph_interaction:ASN:152>  (374) 
0

>  <halogenbond:TYR:150>  (374) 
0

>  <hbond:ASP:83>  (374) 
0

>  <hydroph_interaction:VAL:155>  (374) 
0

>  <pication:TYR:161>  (374) 
0

>  <hbond:PRO:131>  (374) 
0

>  <hbond:LEU:128>  (374) 
0

>  <saltbridge:ASP:129>  (374) 
0

>  <hbond:THR:134>  (374) 
0

>  <pication:HIS:51>  (374) 
0

>  <hbond:SER:81>  (374) 
0

>  <hbond:GLY:159>  (374) 
0

>  <hydroph_interaction:PRO:101>  (374) 
0

>  <hydroph_interaction:THR:134>  (374) 
0

>  <hbond:GLY:82>  (374) 
0

>  <hydroph_interaction:GLU:104>  (374) 
0

>  <hydroph_interaction:VAL:36>  (374) 
0

>  <hydroph_interaction:MET:49>  (374) 
0

>  <halogenbond:GLU:104>  (374) 
0

>  <hydroph_interaction:LYS:107>  (374) 
0

$$$$
CSSB03496583017
     RDKit          3D

 29 31  0  0  0  0  0  0  0  0999 V2000
   -3.4837    4.9214  -18.6039 C   0  0  0  0  0  0  0  0  0  0  0  0
   -3.7897    5.9647  -17.5401 C   0  0  0  0  0  0  0  0  0  0  0  0
   -5.1298    6.2585  -18.2232 C   0  0  0  0  0  0  0  0  0  0  0  0
   -5.2091    7.6197  -18.9098 C   0  0  0  0  0  0  0  0  0  0  0  0
   -4.5792    7.4724  -20.2235 N   0  0  0  0  0  0  0  0  0  0  0  0
   -4.6633    6.0532  -20.5855 C   0  0  0  0  0  0  0  0  0  0  0  0
   -4.8108    5.2411  -19.2968 C   0  0  0  0  0  0  0  0  0  0  0  0
   -6.2301    5.9285  -17.3634 O   0  0  0  0  0  0  0  0  0  0  0  0
   -7.5774    5.7381  -17.7189 C   0  0  0  0  0  0  0  0  0  0  0  0
   -8.0516    5.8270  -19.0428 C   0  0  0  0  0  0  0  0  0  0  0  0
   -9.4063    5.6211  -19.3228 C   0  0  0  0  0  0  0  0  0  0  0  0
  -10.2992    5.3251  -18.2907 C   0  0  0  0  0  0  0  0  0  0  0  0
   -9.8384    5.2345  -16.9757 C   0  0  0  0  0  0  0  0  0  0  0  0
   -8.4847    5.4399  -16.6930 C   0  0  0  0  0  0  0  0  0  0  0  0
   -2.5786    5.1736  -19.1991 H   0  0  0  0  0  0  0  0  0  0  0  0
   -3.4673    3.8905  -18.1878 H   0  0  0  0  0  0  0  0  0  0  0  0
   -3.9032    5.5124  -16.5302 H   0  0  0  0  0  0  0  0  0  0  0  0
   -3.0698    6.8124  -17.5644 H   0  0  0  0  0  0  0  0  0  0  0  0
   -4.6781    8.3980  -18.3216 H   0  0  0  0  0  0  0  0  0  0  0  0
   -6.2658    7.9454  -19.0219 H   0  0  0  0  0  0  0  0  0  0  0  0
   -5.1099    8.0394  -20.9260 H   0  0  0  0  0  0  0  0  0  0  0  0
   -3.7569    5.7540  -21.1535 H   0  0  0  0  0  0  0  0  0  0  0  0
   -5.5446    5.8733  -21.2400 H   0  0  0  0  0  0  0  0  0  0  0  0
   -5.5082    4.3765  -19.3548 H   0  0  0  0  0  0  0  0  0  0  0  0
   -7.3936    6.0553  -19.8625 H   0  0  0  0  0  0  0  0  0  0  0  0
   -9.7641    5.6917  -20.3420 H   0  0  0  0  0  0  0  0  0  0  0  0
  -11.3472    5.1661  -18.5097 H   0  0  0  0  0  0  0  0  0  0  0  0
  -10.5295    5.0048  -16.1751 H   0  0  0  0  0  0  0  0  0  0  0  0
   -8.1371    5.3666  -15.6702 H   0  0  0  0  0  0  0  0  0  0  0  0
  1  2  1  0
  2  3  1  0
  3  4  1  0
  4  5  1  0
  5  6  1  0
  6  7  1  0
  3  8  1  0
  8  9  1  0
  9 10  2  0
 10 11  1  0
 11 12  2  0
 12 13  1  0
 13 14  2  0
  7  1  1  0
  7  3  1  0
 14  9  1  0
  1 15  1  0
  1 16  1  0
  2 17  1  0
  2 18  1  0
  4 19  1  0
  4 20  1  0
  5 21  1  0
  6 22  1  0
  6 23  1  0
  7 24  1  0
 10 25  1  0
 11 26  1  0
 12 27  1  0
 13 28  1  0
 14 29  1  0
A    1
 C1 
A    2
 C2 
A    3
 C3 
A    4
 C4 
A    5
 N1 
A    6
 C5 
A    7
 C6 
A    8
 O1 
A    9
 C7 
A   10
 C8 
A   11
 C9 
A   12
 C10
A   13
 C11
A   14
 C12
A   15
 H1 
A   16
 H2 
A   17
 H3 
A   18
 H4 
A   19
 H5 
A   20
 H6 
A   21
 H7 
A   22
 H8 
A   23
 H9 
A   24
 H10
A   25
 H11
A   26
 H12
A   27
 H13
A   28
 H14
A   29
 H15
M  END
>  <ref_pdb>  (375) 
x0051_0B

>  <ref_mols>  (375) 
x0490_0B,x0945_0B

>  <original SMILES>  (375) 
[H]c1c([H])c([H])c(OC23C([H])([H])N([H])C([H])([H])C2([H])C([H])([H])C3([H])[H])c([H])c1[H]

>  <index>  (375) 
456

>  <∆∆G>  (375) 
-5.735578

>  <∆G_bound>  (375) 
-5.616547

>  <∆G_unbound>  (375) 
0.119031

>  <comRMSD>  (375) 
0.820141

>  <N_constrained_atoms>  (375) 
17.0

>  <N_unconstrained_atoms>  (375) 
1.0

>  <runtime>  (375) 
32.96418

>  <LE>  (375) 
0.318643

>  <percent_hybrid>  (375) 
34.0

>  <dist>  (375) 
4.0

>  <ecfp4>  (375) 
0.185185

>  <daylight>  (375) 
0.161972

>  <topodist>  (375) 
3.0

>  <mces>  (375) 
15.0

>  <tdn>  (375) 
1.0

>  <tup>  (375) 
0.0

>  <rdn>  (375) 
0.0

>  <rup>  (375) 
1.0

>  <ldn>  (375) 
1.0

>  <lup>  (375) 
0.0

>  <mut>  (375) 
1.0

>  <maj>  (375) 
1.0

>  <min>  (375) 
0.0

>  <hyb>  (375) 
0.0

>  <sub>  (375) 
3.0

>  <query_index>  (375) 
227.0

>  <max_hit_Tanimoto>  (375) 
0.152924

>  <largest_ring>  (375) 
6

>  <N_interactions_kept>  (375) 
1.0

>  <N_interactions_lost>  (375) 
1.5

>  <interaction_uniqueness_metric>  (375) 
0.034305

>  <ad_hoc_penalty>  (375) 
-19.850769

>  <N_rotatable_bonds>  (375) 
2

>  <N_HA>  (375) 
14

>  <cluster>  (375) 
5804

>  <N_interactions>  (375) 
5

>  <Enamine>  (375) 
1

>  <Mcule>  (375) 
0

>  <N_PAINS>  (375) 
0

>  <UFF_Gibbs>  (375) 
91.709832

>  <strain_per_HA>  (375) 
5.094991

>  <saltbridge:HIS:51>  (375) 
0

>  <pistack:HIS:51>  (375) 
0

>  <hydroph_interaction:HIS:51>  (375) 
0

>  <hbond:ALA:132>  (375) 
0

>  <hbond:SER:135>  (375) 
0

>  <hydroph_interaction:TYR:150>  (375) 
1

>  <pistack:TYR:161>  (375) 
0

>  <hydroph_interaction:TYR:161>  (375) 
4

>  <hydroph_interaction:ASP:83>  (375) 
0

>  <hbond:TYR:130>  (375) 
0

>  <hydroph_interaction:ALA:132>  (375) 
0

>  <hbond:HIS:51>  (375) 
0

>  <hbond:ASP:129>  (375) 
0

>  <hbond:TYR:150>  (375) 
0

>  <hbond:GLY:151>  (375) 
0

>  <hbond:TYR:161>  (375) 
0

>  <hydroph_interaction:TYR:130>  (375) 
0

>  <hydroph_interaction:PRO:131>  (375) 
0

>  <hydroph_interaction:ASP:129>  (375) 
0

>  <saltbridge:ASP:75>  (375) 
0

>  <saltbridge:ASP:83>  (375) 
0

>  <hydroph_interaction:ASN:152>  (375) 
0

>  <halogenbond:TYR:150>  (375) 
0

>  <hbond:ASP:83>  (375) 
0

>  <hydroph_interaction:VAL:155>  (375) 
0

>  <pication:TYR:161>  (375) 
0

>  <hbond:PRO:131>  (375) 
0

>  <hbond:LEU:128>  (375) 
0

>  <saltbridge:ASP:129>  (375) 
0

>  <hbond:THR:134>  (375) 
0

>  <pication:HIS:51>  (375) 
0

>  <hbond:SER:81>  (375) 
0

>  <hbond:GLY:159>  (375) 
0

>  <hydroph_interaction:PRO:101>  (375) 
0

>  <hydroph_interaction:THR:134>  (375) 
0

>  <hbond:GLY:82>  (375) 
0

>  <hydroph_interaction:GLU:104>  (375) 
0

>  <hydroph_interaction:VAL:36>  (375) 
0

>  <hydroph_interaction:MET:49>  (375) 
0

>  <halogenbond:GLU:104>  (375) 
0

>  <hydroph_interaction:LYS:107>  (375) 
0

$$$$
CSSS00000080862
     RDKit          3D

 24 26  0  0  0  0  0  0  0  0999 V2000
  -10.1484    5.1043  -17.4428 N   0  0  0  0  0  0  0  0  0  0  0  0
   -8.8721    5.0903  -18.1023 C   0  0  0  0  0  0  0  0  0  0  0  0
   -7.6419    5.1958  -17.3965 C   0  0  0  0  0  0  0  0  0  0  0  0
   -7.5794    5.3704  -15.9894 C   0  0  0  0  0  0  0  0  0  0  0  0
   -6.3479    5.4649  -15.3318 C   0  0  0  0  0  0  0  0  0  0  0  0
   -5.1900    5.3894  -16.0941 C   0  0  0  0  0  0  0  0  0  0  0  0
   -3.8862    5.4612  -15.6518 C   0  0  0  0  0  0  0  0  0  0  0  0
   -3.1012    5.3426  -16.7865 C   0  0  0  0  0  0  0  0  0  0  0  0
   -3.9599    5.2050  -17.8651 C   0  0  0  0  0  0  0  0  0  0  0  0
   -5.2387    5.2349  -17.4294 N   0  0  0  0  0  0  0  0  0  0  0  0
   -6.4141    5.1387  -18.1233 C   0  0  0  0  0  0  0  0  0  0  0  0
   -6.4370    4.9930  -19.5214 C   0  0  0  0  0  0  0  0  0  0  0  0
   -7.6500    4.9080  -20.1990 C   0  0  0  0  0  0  0  0  0  0  0  0
   -8.8531    4.9568  -19.4989 C   0  0  0  0  0  0  0  0  0  0  0  0
  -11.0286    5.1078  -18.0053 H   0  0  0  0  0  0  0  0  0  0  0  0
  -10.2631    5.0353  -16.4107 H   0  0  0  0  0  0  0  0  0  0  0  0
   -8.4640    5.4487  -15.3786 H   0  0  0  0  0  0  0  0  0  0  0  0
   -6.3022    5.5978  -14.2580 H   0  0  0  0  0  0  0  0  0  0  0  0
   -3.5440    5.5856  -14.6328 H   0  0  0  0  0  0  0  0  0  0  0  0
   -2.0203    5.3558  -16.8237 H   0  0  0  0  0  0  0  0  0  0  0  0
   -3.6472    5.0913  -18.8936 H   0  0  0  0  0  0  0  0  0  0  0  0
   -5.5252    4.9490  -20.0992 H   0  0  0  0  0  0  0  0  0  0  0  0
   -7.6585    4.7995  -21.2761 H   0  0  0  0  0  0  0  0  0  0  0  0
   -9.7819    4.8800  -20.0505 H   0  0  0  0  0  0  0  0  0  0  0  0
  1  2  1  0
  2  3  2  0
  3  4  1  0
  4  5  2  0
  5  6  1  0
  6  7  2  0
  7  8  1  0
  8  9  2  0
  9 10  1  0
 10 11  1  0
 11 12  2  0
 12 13  1  0
 13 14  2  0
 14  2  1  0
 11  3  1  0
 10  6  1  0
  1 15  1  0
  1 16  1  0
  4 17  1  0
  5 18  1  0
  7 19  1  0
  8 20  1  0
  9 21  1  0
 12 22  1  0
 13 23  1  0
 14 24  1  0
A    1
 N1 
A    2
 C1 
A    3
 C2 
A    4
 C3 
A    5
 C4 
A    6
 C5 
A    7
 C6 
A    8
 C7 
A    9
 C8 
A   10
 N2 
A   11
 C9 
A   12
 C10
A   13
 C11
A   14
 C12
A   15
 H1 
A   16
 H2 
A   17
 H3 
A   18
 H4 
A   19
 H5 
A   20
 H6 
A   21
 H7 
A   22
 H8 
A   23
 H9 
A   24
 H10
M  END
>  <ref_pdb>  (376) 
x0051_0B

>  <ref_mols>  (376) 
x0680_0B,x0472_0B

>  <original SMILES>  (376) 
[H]c1c([H])c([H])c2c(c([H])c([H])c3c([H])c([H])c([H])n32)c1N([H])[H]

>  <index>  (376) 
726

>  <∆∆G>  (376) 
-5.367527

>  <∆G_bound>  (376) 
-5.290504

>  <∆G_unbound>  (376) 
0.077023

>  <comRMSD>  (376) 
0.804954

>  <N_constrained_atoms>  (376) 
15.0

>  <N_unconstrained_atoms>  (376) 
2.0

>  <runtime>  (376) 
20.041733

>  <LE>  (376) 
0.315737

>  <percent_hybrid>  (376) 
34.0

>  <dist>  (376) 
7.0

>  <ecfp4>  (376) 
0.089552

>  <daylight>  (376) 
0.109524

>  <topodist>  (376) 
2.0

>  <mces>  (376) 
16.0

>  <tdn>  (376) 
1.0

>  <tup>  (376) 
0.0

>  <rdn>  (376) 
0.0

>  <rup>  (376) 
0.0

>  <ldn>  (376) 
1.0

>  <lup>  (376) 
0.0

>  <mut>  (376) 
3.0

>  <maj>  (376) 
3.0

>  <min>  (376) 
0.0

>  <hyb>  (376) 
2.0

>  <sub>  (376) 
1.0

>  <query_index>  (376) 
38.0

>  <max_hit_Tanimoto>  (376) 
0.134301

>  <largest_ring>  (376) 
6

>  <N_interactions_kept>  (376) 
2.0

>  <N_interactions_lost>  (376) 
3.0

>  <interaction_uniqueness_metric>  (376) 
0.087709

>  <ad_hoc_penalty>  (376) 
-19.82116

>  <N_rotatable_bonds>  (376) 
1

>  <N_HA>  (376) 
14

>  <cluster>  (376) 
5555

>  <N_interactions>  (376) 
7

>  <Enamine>  (376) 
1

>  <Mcule>  (376) 
0

>  <N_PAINS>  (376) 
0

>  <UFF_Gibbs>  (376) 
36.888395

>  <strain_per_HA>  (376) 
2.169906

>  <saltbridge:HIS:51>  (376) 
0

>  <pistack:HIS:51>  (376) 
0

>  <hydroph_interaction:HIS:51>  (376) 
0

>  <hbond:ALA:132>  (376) 
0

>  <hbond:SER:135>  (376) 
0

>  <hydroph_interaction:TYR:150>  (376) 
1

>  <pistack:TYR:161>  (376) 
2

>  <hydroph_interaction:TYR:161>  (376) 
3

>  <hydroph_interaction:ASP:83>  (376) 
0

>  <hbond:TYR:130>  (376) 
0

>  <hydroph_interaction:ALA:132>  (376) 
0

>  <hbond:HIS:51>  (376) 
0

>  <hbond:ASP:129>  (376) 
0

>  <hbond:TYR:150>  (376) 
0

>  <hbond:GLY:151>  (376) 
1

>  <hbond:TYR:161>  (376) 
0

>  <hydroph_interaction:TYR:130>  (376) 
0

>  <hydroph_interaction:PRO:131>  (376) 
0

>  <hydroph_interaction:ASP:129>  (376) 
0

>  <saltbridge:ASP:75>  (376) 
0

>  <saltbridge:ASP:83>  (376) 
0

>  <hydroph_interaction:ASN:152>  (376) 
0

>  <halogenbond:TYR:150>  (376) 
0

>  <hbond:ASP:83>  (376) 
0

>  <hydroph_interaction:VAL:155>  (376) 
0

>  <pication:TYR:161>  (376) 
0

>  <hbond:PRO:131>  (376) 
0

>  <hbond:LEU:128>  (376) 
0

>  <saltbridge:ASP:129>  (376) 
0

>  <hbond:THR:134>  (376) 
0

>  <pication:HIS:51>  (376) 
0

>  <hbond:SER:81>  (376) 
0

>  <hbond:GLY:159>  (376) 
0

>  <hydroph_interaction:PRO:101>  (376) 
0

>  <hydroph_interaction:THR:134>  (376) 
0

>  <hbond:GLY:82>  (376) 
0

>  <hydroph_interaction:GLU:104>  (376) 
0

>  <hydroph_interaction:VAL:36>  (376) 
0

>  <hydroph_interaction:MET:49>  (376) 
0

>  <halogenbond:GLU:104>  (376) 
0

>  <hydroph_interaction:LYS:107>  (376) 
0

$$$$
MRPCXMFFWBVRCI-UHFFFAOYSA-N
     RDKit          3D

 43 46  0  0  0  0  0  0  0  0999 V2000
   -7.5674    9.2998  -26.7036 C   0  0  0  0  0  0  0  0  0  0  0  0
   -6.9111    9.9343  -25.5992 N   0  0  0  0  0  0  0  0  0  0  0  0
   -7.5808   10.2545  -24.3422 C   0  0  0  0  0  0  0  0  0  0  0  0
   -7.3436    9.1587  -23.3412 C   0  0  0  0  0  0  0  0  0  0  0  0
   -8.2693    8.1162  -23.1900 C   0  0  0  0  0  0  0  0  0  0  0  0
   -8.0261    7.0825  -22.2793 C   0  0  0  0  0  0  0  0  0  0  0  0
   -6.8574    7.0752  -21.5103 C   0  0  0  0  0  0  0  0  0  0  0  0
   -6.6381    6.0115  -20.6222 O   0  0  0  0  0  0  0  0  0  0  0  0
   -5.8969    6.0851  -19.4340 C   0  0  0  0  0  0  0  0  0  0  0  0
   -5.8534    7.2560  -18.6569 C   0  0  0  0  0  0  0  0  0  0  0  0
   -5.1009    7.2922  -17.4787 C   0  0  0  0  0  0  0  0  0  0  0  0
   -4.3865    6.1594  -17.0600 C   0  0  0  0  0  0  0  0  0  0  0  0
   -3.6036    6.1836  -15.7804 C   0  0  0  0  0  0  0  0  0  0  0  0
   -4.4648    4.9793  -17.8139 C   0  0  0  0  0  0  0  0  0  0  0  0
   -5.2181    4.9441  -18.9912 C   0  0  0  0  0  0  0  0  0  0  0  0
   -5.9145    8.1018  -21.6861 C   0  0  0  0  0  0  0  0  0  0  0  0
   -6.1579    9.1356  -22.5947 C   0  0  0  0  0  0  0  0  0  0  0  0
   -6.8957    8.9035  -27.8117 N   0  0  0  0  0  0  0  0  0  0  0  0
   -7.7421    8.3575  -28.7241 C   0  0  0  0  0  0  0  0  0  0  0  0
   -7.3526    7.8641  -29.9736 C   0  0  0  0  0  0  0  0  0  0  0  0
   -8.3398    7.3411  -30.8288 C   0  0  0  0  0  0  0  0  0  0  0  0
   -9.6914    7.3127  -30.4301 C   0  0  0  0  0  0  0  0  0  0  0  0
  -10.0707    7.8104  -29.1735 C   0  0  0  0  0  0  0  0  0  0  0  0
   -9.0763    8.3213  -28.3433 C   0  0  0  0  0  0  0  0  0  0  0  0
   -9.2344    8.9909  -26.8125 S   0  0  0  0  0  0  0  0  0  0  0  0
   -5.6742    7.9083  -30.4827 Cl  0  0  0  0  0  0  0  0  0  0  0  0
   -5.8763   10.0755  -25.6525 H   0  0  0  0  0  0  0  0  0  0  0  0
   -7.1748   11.2119  -23.9518 H   0  0  0  0  0  0  0  0  0  0  0  0
   -8.6680   10.4169  -24.4994 H   0  0  0  0  0  0  0  0  0  0  0  0
   -9.1796    8.1019  -23.7760 H   0  0  0  0  0  0  0  0  0  0  0  0
   -8.7520    6.2860  -22.1672 H   0  0  0  0  0  0  0  0  0  0  0  0
   -6.4087    8.1367  -18.9534 H   0  0  0  0  0  0  0  0  0  0  0  0
   -5.0668    8.2057  -16.8975 H   0  0  0  0  0  0  0  0  0  0  0  0
   -4.2295    5.7713  -14.9601 H   0  0  0  0  0  0  0  0  0  0  0  0
   -2.6826    5.5712  -15.8790 H   0  0  0  0  0  0  0  0  0  0  0  0
   -3.3015    7.2208  -15.5177 H   0  0  0  0  0  0  0  0  0  0  0  0
   -3.9422    4.0878  -17.4905 H   0  0  0  0  0  0  0  0  0  0  0  0
   -5.2654    4.0284  -19.5695 H   0  0  0  0  0  0  0  0  0  0  0  0
   -4.9807    8.0921  -21.1399 H   0  0  0  0  0  0  0  0  0  0  0  0
   -5.4162    9.9128  -22.7248 H   0  0  0  0  0  0  0  0  0  0  0  0
   -8.0615    6.9626  -31.8050 H   0  0  0  0  0  0  0  0  0  0  0  0
  -10.4427    6.9130  -31.0987 H   0  0  0  0  0  0  0  0  0  0  0  0
  -11.1077    7.8051  -28.8614 H   0  0  0  0  0  0  0  0  0  0  0  0
  1  2  1  0
  2  3  1  0
  3  4  1  0
  4  5  2  0
  5  6  1  0
  6  7  2  0
  7  8  1  0
  8  9  1  0
  9 10  2  0
 10 11  1  0
 11 12  2  0
 12 13  1  0
 12 14  1  0
 14 15  2  0
  7 16  1  0
 16 17  2  0
  1 18  2  0
 18 19  1  0
 19 20  2  0
 20 21  1  0
 21 22  2  0
 22 23  1  0
 23 24  2  0
 24 25  1  0
 20 26  1  0
 25  1  1  0
 17  4  1  0
 15  9  1  0
 24 19  1  0
  2 27  1  0
  3 28  1  0
  3 29  1  0
  5 30  1  0
  6 31  1  0
 10 32  1  0
 11 33  1  0
 13 34  1  0
 13 35  1  0
 13 36  1  0
 14 37  1  0
 15 38  1  0
 16 39  1  0
 17 40  1  0
 21 41  1  0
 22 42  1  0
 23 43  1  0
A    1
 C1 
A    2
 N1 
A    3
 C2 
A    4
 C3 
A    5
 C4 
A    6
 C5 
A    7
 C6 
A    8
 O1 
A    9
 C7 
A   10
 C8 
A   11
 C9 
A   12
 C10
A   13
 C11
A   14
 C12
A   15
 C13
A   16
 C14
A   17
 C15
A   18
 N2 
A   19
 C16
A   20
 C17
A   21
 C18
A   22
 C19
A   23
 C20
A   24
 C21
A   25
 S1 
A   26
CL1 
A   27
 H1 
A   28
 H2 
A   29
 H3 
A   30
 H4 
A   31
 H5 
A   32
 H6 
A   33
 H7 
A   34
 H8 
A   35
 H9 
A   36
 H10
A   37
 H11
A   38
 H12
A   39
 H13
A   40
 H14
A   41
 H15
A   42
 H16
A   43
 H17
M  END
>  <ref_pdb>  (377) 
x0051_0B

>  <ref_mols>  (377) 
x0846_1B,x0680_0B

>  <original SMILES>  (377) 
[H]c1c([H])c(C([H])([H])[H])c([H])c([H])c1Oc1c([H])c([H])c(C([H])([H])N([H])c2nc3c(Cl)c([H])c([H])c([H])c3s2)c([H])c1[H]

>  <index>  (377) 
736

>  <∆∆G>  (377) 
-6.291014

>  <∆G_bound>  (377) 
-6.375779

>  <∆G_unbound>  (377) 
-0.084765

>  <comRMSD>  (377) 
0.549692

>  <N_constrained_atoms>  (377) 
26.0

>  <N_unconstrained_atoms>  (377) 
2.0

>  <runtime>  (377) 
59.566102

>  <LE>  (377) 
0.224679

>  <percent_hybrid>  (377) 
31.0

>  <dist>  (377) 
7.0

>  <ecfp4>  (377) 
0.214286

>  <daylight>  (377) 
0.42233

>  <topodist>  (377) 
6.0

>  <mces>  (377) 
28.0

>  <tdn>  (377) 
5.0

>  <tup>  (377) 
1.0

>  <rdn>  (377) 
0.0

>  <rup>  (377) 
0.0

>  <ldn>  (377) 
0.0

>  <lup>  (377) 
0.0

>  <mut>  (377) 
1.0

>  <maj>  (377) 
1.0

>  <min>  (377) 
0.0

>  <hyb>  (377) 
0.0

>  <sub>  (377) 
3.0

>  <query_index>  (377) 
100.0

>  <max_hit_Tanimoto>  (377) 
0.311916

>  <largest_ring>  (377) 
6

>  <N_interactions_kept>  (377) 
3.0

>  <N_interactions_lost>  (377) 
1.0

>  <interaction_uniqueness_metric>  (377) 
0.07262

>  <ad_hoc_penalty>  (377) 
-19.812568

>  <N_rotatable_bonds>  (377) 
6

>  <N_HA>  (377) 
26

>  <cluster>  (377) 
466

>  <N_interactions>  (377) 
5

>  <Enamine>  (377) 
0

>  <Mcule>  (377) 
1

>  <N_PAINS>  (377) 
0

>  <UFF_Gibbs>  (377) 
56.69423

>  <strain_per_HA>  (377) 
2.024794

>  <saltbridge:HIS:51>  (377) 
0

>  <pistack:HIS:51>  (377) 
0

>  <hydroph_interaction:HIS:51>  (377) 
0

>  <hbond:ALA:132>  (377) 
0

>  <hbond:SER:135>  (377) 
0

>  <hydroph_interaction:TYR:150>  (377) 
0

>  <pistack:TYR:161>  (377) 
0

>  <hydroph_interaction:TYR:161>  (377) 
4

>  <hydroph_interaction:ASP:83>  (377) 
0

>  <hbond:TYR:130>  (377) 
0

>  <hydroph_interaction:ALA:132>  (377) 
0

>  <hbond:HIS:51>  (377) 
0

>  <hbond:ASP:129>  (377) 
0

>  <hbond:TYR:150>  (377) 
0

>  <hbond:GLY:151>  (377) 
0

>  <hbond:TYR:161>  (377) 
0

>  <hydroph_interaction:TYR:130>  (377) 
0

>  <hydroph_interaction:PRO:131>  (377) 
1

>  <hydroph_interaction:ASP:129>  (377) 
0

>  <saltbridge:ASP:75>  (377) 
0

>  <saltbridge:ASP:83>  (377) 
0

>  <hydroph_interaction:ASN:152>  (377) 
0

>  <halogenbond:TYR:150>  (377) 
0

>  <hbond:ASP:83>  (377) 
0

>  <hydroph_interaction:VAL:155>  (377) 
0

>  <pication:TYR:161>  (377) 
0

>  <hbond:PRO:131>  (377) 
0

>  <hbond:LEU:128>  (377) 
0

>  <saltbridge:ASP:129>  (377) 
0

>  <hbond:THR:134>  (377) 
0

>  <pication:HIS:51>  (377) 
0

>  <hbond:SER:81>  (377) 
0

>  <hbond:GLY:159>  (377) 
0

>  <hydroph_interaction:PRO:101>  (377) 
0

>  <hydroph_interaction:THR:134>  (377) 
0

>  <hbond:GLY:82>  (377) 
0

>  <hydroph_interaction:GLU:104>  (377) 
0

>  <hydroph_interaction:VAL:36>  (377) 
0

>  <hydroph_interaction:MET:49>  (377) 
0

>  <halogenbond:GLU:104>  (377) 
0

>  <hydroph_interaction:LYS:107>  (377) 
0

$$$$
MCULE-2101012942
     RDKit          3D

 26 27  0  0  0  0  0  0  0  0999 V2000
   -3.6057    4.3254  -15.4213 C   0  0  0  0  0  0  0  0  0  0  0  0
   -4.5305    4.3911  -16.6326 C   0  0  0  0  0  0  0  0  0  0  0  0
   -5.2912    5.7181  -16.6783 C   0  0  0  0  0  0  0  0  0  0  0  0
   -6.1714    5.7551  -17.8489 N   0  0  0  0  0  0  0  0  0  0  0  0
   -7.4458    5.3349  -17.9354 C   0  0  0  0  0  0  0  0  0  0  0  0
   -7.8749    5.4828  -19.2242 C   0  0  0  0  0  0  0  0  0  0  0  0
   -9.1610    5.1204  -19.6177 C   0  0  0  0  0  0  0  0  0  0  0  0
  -10.0204    4.5877  -18.6389 C   0  0  0  0  0  0  0  0  0  0  0  0
   -9.5759    4.4269  -17.3071 C   0  0  0  0  0  0  0  0  0  0  0  0
   -8.2695    4.8007  -16.9411 C   0  0  0  0  0  0  0  0  0  0  0  0
   -6.8932    5.9809  -19.9981 N   0  0  0  0  0  0  0  0  0  0  0  0
   -5.8658    6.1267  -19.1217 C   0  0  0  0  0  0  0  0  0  0  0  0
   -4.5796    6.5976  -19.5283 N   0  0  0  0  0  0  0  0  0  0  0  0
   -2.8565    5.1446  -15.4634 H   0  0  0  0  0  0  0  0  0  0  0  0
   -4.1931    4.4127  -14.4824 H   0  0  0  0  0  0  0  0  0  0  0  0
   -3.0693    3.3533  -15.4157 H   0  0  0  0  0  0  0  0  0  0  0  0
   -3.9251    4.2770  -17.5578 H   0  0  0  0  0  0  0  0  0  0  0  0
   -5.2557    3.5500  -16.5817 H   0  0  0  0  0  0  0  0  0  0  0  0
   -4.5781    6.5688  -16.7135 H   0  0  0  0  0  0  0  0  0  0  0  0
   -5.8906    5.8421  -15.7511 H   0  0  0  0  0  0  0  0  0  0  0  0
   -9.4878    5.2393  -20.6426 H   0  0  0  0  0  0  0  0  0  0  0  0
  -11.0265    4.2947  -18.9092 H   0  0  0  0  0  0  0  0  0  0  0  0
  -10.2437    4.0109  -16.5641 H   0  0  0  0  0  0  0  0  0  0  0  0
   -7.9246    4.6706  -15.9243 H   0  0  0  0  0  0  0  0  0  0  0  0
   -3.7812    6.6545  -18.8597 H   0  0  0  0  0  0  0  0  0  0  0  0
   -4.4169    6.8694  -20.5229 H   0  0  0  0  0  0  0  0  0  0  0  0
  1  2  1  0
  2  3  1  0
  3  4  1  0
  4  5  1  0
  5  6  2  0
  6  7  1  0
  7  8  2  0
  8  9  1  0
  9 10  2  0
  6 11  1  0
 11 12  2  0
 12 13  1  0
 12  4  1  0
 10  5  1  0
  1 14  1  0
  1 15  1  0
  1 16  1  0
  2 17  1  0
  2 18  1  0
  3 19  1  0
  3 20  1  0
  7 21  1  0
  8 22  1  0
  9 23  1  0
 10 24  1  0
 13 25  1  0
 13 26  1  0
A    1
 C1 
A    2
 C2 
A    3
 C3 
A    4
 N1 
A    5
 C4 
A    6
 C5 
A    7
 C6 
A    8
 C7 
A    9
 C8 
A   10
 C9 
A   11
 N2 
A   12
 C10
A   13
 N3 
A   14
 H1 
A   15
 H2 
A   16
 H3 
A   17
 H4 
A   18
 H5 
A   19
 H6 
A   20
 H7 
A   21
 H8 
A   22
 H9 
A   23
 H10
A   24
 H11
A   25
 H12
A   26
 H13
M  END
>  <ref_pdb>  (378) 
x0051_0B

>  <ref_mols>  (378) 
x0490_0B,x0089_0B

>  <original SMILES>  (378) 
[H]c1c([H])c([H])c2c(nc(N([H])[H])n2C([H])([H])C([H])([H])C([H])([H])[H])c1[H]

>  <index>  (378) 
519

>  <∆∆G>  (378) 
-5.668255

>  <∆G_bound>  (378) 
-5.573419

>  <∆G_unbound>  (378) 
0.094835

>  <comRMSD>  (378) 
0.657079

>  <N_constrained_atoms>  (378) 
13.0

>  <N_unconstrained_atoms>  (378) 
1.0

>  <runtime>  (378) 
22.499909

>  <LE>  (378) 
0.404875

>  <percent_hybrid>  (378) 
50.0

>  <dist>  (378) 
2.0

>  <ecfp4>  (378) 
0.4

>  <daylight>  (378) 
0.719626

>  <topodist>  (378) 
2.0

>  <mces>  (378) 
14.0

>  <tdn>  (378) 
1.0

>  <tup>  (378) 
0.0

>  <rdn>  (378) 
1.0

>  <rup>  (378) 
0.0

>  <ldn>  (378) 
0.0

>  <lup>  (378) 
0.0

>  <mut>  (378) 
0.0

>  <maj>  (378) 
0.0

>  <min>  (378) 
0.0

>  <hyb>  (378) 
0.0

>  <sub>  (378) 
2.0

>  <query_index>  (378) 
184.0

>  <max_hit_Tanimoto>  (378) 
0.664544

>  <largest_ring>  (378) 
6

>  <N_interactions_kept>  (378) 
2.0

>  <N_interactions_lost>  (378) 
2.0

>  <interaction_uniqueness_metric>  (378) 
0.089447

>  <ad_hoc_penalty>  (378) 
-19.787329

>  <N_rotatable_bonds>  (378) 
4

>  <N_HA>  (378) 
13

>  <cluster>  (378) 
5745

>  <N_interactions>  (378) 
7

>  <Enamine>  (378) 
0

>  <Mcule>  (378) 
1

>  <N_PAINS>  (378) 
0

>  <UFF_Gibbs>  (378) 
66.792859

>  <strain_per_HA>  (378) 
4.770919

>  <saltbridge:HIS:51>  (378) 
0

>  <pistack:HIS:51>  (378) 
0

>  <hydroph_interaction:HIS:51>  (378) 
0

>  <hbond:ALA:132>  (378) 
0

>  <hbond:SER:135>  (378) 
0

>  <hydroph_interaction:TYR:150>  (378) 
1

>  <pistack:TYR:161>  (378) 
0

>  <hydroph_interaction:TYR:161>  (378) 
4

>  <hydroph_interaction:ASP:83>  (378) 
0

>  <hbond:TYR:130>  (378) 
0

>  <hydroph_interaction:ALA:132>  (378) 
1

>  <hbond:HIS:51>  (378) 
0

>  <hbond:ASP:129>  (378) 
0

>  <hbond:TYR:150>  (378) 
0

>  <hbond:GLY:151>  (378) 
0

>  <hbond:TYR:161>  (378) 
0

>  <hydroph_interaction:TYR:130>  (378) 
0

>  <hydroph_interaction:PRO:131>  (378) 
0

>  <hydroph_interaction:ASP:129>  (378) 
0

>  <saltbridge:ASP:75>  (378) 
0

>  <saltbridge:ASP:83>  (378) 
0

>  <hydroph_interaction:ASN:152>  (378) 
0

>  <halogenbond:TYR:150>  (378) 
0

>  <hbond:ASP:83>  (378) 
0

>  <hydroph_interaction:VAL:155>  (378) 
1

>  <pication:TYR:161>  (378) 
0

>  <hbond:PRO:131>  (378) 
0

>  <hbond:LEU:128>  (378) 
0

>  <saltbridge:ASP:129>  (378) 
0

>  <hbond:THR:134>  (378) 
0

>  <pication:HIS:51>  (378) 
0

>  <hbond:SER:81>  (378) 
0

>  <hbond:GLY:159>  (378) 
0

>  <hydroph_interaction:PRO:101>  (378) 
0

>  <hydroph_interaction:THR:134>  (378) 
0

>  <hbond:GLY:82>  (378) 
0

>  <hydroph_interaction:GLU:104>  (378) 
0

>  <hydroph_interaction:VAL:36>  (378) 
0

>  <hydroph_interaction:MET:49>  (378) 
0

>  <halogenbond:GLU:104>  (378) 
0

>  <hydroph_interaction:LYS:107>  (378) 
0

$$$$
CSSS00011538856
     RDKit          3D

 30 31  0  0  0  0  0  0  0  0999 V2000
   -2.3309    4.4388  -16.0588 C   0  0  0  0  0  0  0  0  0  0  0  0
   -2.7515    5.7579  -16.7057 C   0  0  0  0  0  0  0  0  0  0  0  0
   -3.9031    5.5949  -17.7154 C   0  0  0  0  0  0  0  0  0  0  0  0
   -5.2216    5.0252  -17.1285 C   0  0  0  0  0  0  0  0  0  0  0  0
   -5.7637    5.9154  -15.9878 C   0  0  0  0  0  0  0  0  0  0  0  0
   -7.1345    5.4350  -15.5035 C   0  0  0  0  0  0  0  0  0  0  0  0
   -8.1266    5.3946  -16.6349 C   0  0  0  0  0  0  0  0  0  0  0  0
   -9.4929    5.5831  -16.3717 C   0  0  0  0  0  0  0  0  0  0  0  0
  -10.4283    5.4984  -17.4052 C   0  0  0  0  0  0  0  0  0  0  0  0
  -10.0101    5.2114  -18.7053 C   0  0  0  0  0  0  0  0  0  0  0  0
   -8.6554    5.0038  -18.9766 C   0  0  0  0  0  0  0  0  0  0  0  0
   -7.7022    5.0874  -17.9450 C   0  0  0  0  0  0  0  0  0  0  0  0
   -6.2617    4.8651  -18.2232 C   0  0  0  0  0  0  0  0  0  0  0  0
   -5.9046    4.4648  -19.3657 O   0  0  0  0  0  0  0  0  0  0  0  0
   -2.1333    3.6699  -16.8357 H   0  0  0  0  0  0  0  0  0  0  0  0
   -1.4017    4.5956  -15.4716 H   0  0  0  0  0  0  0  0  0  0  0  0
   -3.1172    4.0740  -15.3659 H   0  0  0  0  0  0  0  0  0  0  0  0
   -3.0160    6.4963  -15.9205 H   0  0  0  0  0  0  0  0  0  0  0  0
   -1.8744    6.1709  -17.2497 H   0  0  0  0  0  0  0  0  0  0  0  0
   -3.5449    4.9291  -18.5313 H   0  0  0  0  0  0  0  0  0  0  0  0
   -4.1085    6.5883  -18.1719 H   0  0  0  0  0  0  0  0  0  0  0  0
   -5.0267    4.0096  -16.7223 H   0  0  0  0  0  0  0  0  0  0  0  0
   -5.0712    5.8872  -15.1204 H   0  0  0  0  0  0  0  0  0  0  0  0
   -5.8457    6.9701  -16.3335 H   0  0  0  0  0  0  0  0  0  0  0  0
   -7.0420    4.4169  -15.0672 H   0  0  0  0  0  0  0  0  0  0  0  0
   -7.4889    6.1229  -14.7048 H   0  0  0  0  0  0  0  0  0  0  0  0
   -9.8337    5.7944  -15.3656 H   0  0  0  0  0  0  0  0  0  0  0  0
  -11.4795    5.6508  -17.1968 H   0  0  0  0  0  0  0  0  0  0  0  0
  -10.7375    5.1453  -19.5041 H   0  0  0  0  0  0  0  0  0  0  0  0
   -8.3547    4.7788  -19.9922 H   0  0  0  0  0  0  0  0  0  0  0  0
  1  2  1  0
  2  3  1  0
  3  4  1  0
  4  5  1  0
  5  6  1  0
  6  7  1  0
  7  8  2  0
  8  9  1  0
  9 10  2  0
 10 11  1  0
 11 12  2  0
 12 13  1  0
 13 14  2  0
 13  4  1  0
 12  7  1  0
  1 15  1  0
  1 16  1  0
  1 17  1  0
  2 18  1  0
  2 19  1  0
  3 20  1  0
  3 21  1  0
  4 22  1  0
  5 23  1  0
  5 24  1  0
  6 25  1  0
  6 26  1  0
  8 27  1  0
  9 28  1  0
 10 29  1  0
 11 30  1  0
A    1
 C1 
A    2
 C2 
A    3
 C3 
A    4
 C4 
A    5
 C5 
A    6
 C6 
A    7
 C7 
A    8
 C8 
A    9
 C9 
A   10
 C10
A   11
 C11
A   12
 C12
A   13
 C13
A   14
 O1 
A   15
 H1 
A   16
 H2 
A   17
 H3 
A   18
 H4 
A   19
 H5 
A   20
 H6 
A   21
 H7 
A   22
 H8 
A   23
 H9 
A   24
 H10
A   25
 H11
A   26
 H12
A   27
 H13
A   28
 H14
A   29
 H15
A   30
 H16
M  END
>  <ref_pdb>  (379) 
x0051_0B

>  <ref_mols>  (379) 
x0472_0B,x0386_0B

>  <original SMILES>  (379) 
[H]c1c([H])c([H])c2c(c1[H])C(=O)C([H])(C([H])([H])C([H])([H])C([H])([H])[H])C([H])([H])C2([H])[H]

>  <index>  (379) 
204

>  <∆∆G>  (379) 
-6.528968

>  <∆G_bound>  (379) 
-6.209373

>  <∆G_unbound>  (379) 
0.319595

>  <comRMSD>  (379) 
0.510422

>  <N_constrained_atoms>  (379) 
15.0

>  <N_unconstrained_atoms>  (379) 
0.0

>  <runtime>  (379) 
25.73561

>  <LE>  (379) 
0.435265

>  <percent_hybrid>  (379) 
20.0

>  <dist>  (379) 
7.0

>  <ecfp4>  (379) 
0.063492

>  <daylight>  (379) 
0.102564

>  <topodist>  (379) 
2.0

>  <mces>  (379) 
14.0

>  <tdn>  (379) 
1.0

>  <tup>  (379) 
0.0

>  <rdn>  (379) 
0.0

>  <rup>  (379) 
0.0

>  <ldn>  (379) 
0.0

>  <lup>  (379) 
1.0

>  <mut>  (379) 
4.0

>  <maj>  (379) 
4.0

>  <min>  (379) 
0.0

>  <hyb>  (379) 
1.0

>  <sub>  (379) 
1.0

>  <query_index>  (379) 
75.0

>  <max_hit_Tanimoto>  (379) 
0.163239

>  <largest_ring>  (379) 
6

>  <N_interactions_kept>  (379) 
2.0

>  <N_interactions_lost>  (379) 
1.0

>  <interaction_uniqueness_metric>  (379) 
0.075051

>  <ad_hoc_penalty>  (379) 
-19.781461

>  <N_rotatable_bonds>  (379) 
3

>  <N_HA>  (379) 
14

>  <cluster>  (379) 
6033

>  <N_interactions>  (379) 
5

>  <Enamine>  (379) 
1

>  <Mcule>  (379) 
0

>  <N_PAINS>  (379) 
0

>  <UFF_Gibbs>  (379) 
157.04546

>  <strain_per_HA>  (379) 
10.469697

>  <saltbridge:HIS:51>  (379) 
0

>  <pistack:HIS:51>  (379) 
0

>  <hydroph_interaction:HIS:51>  (379) 
0

>  <hbond:ALA:132>  (379) 
0

>  <hbond:SER:135>  (379) 
0

>  <hydroph_interaction:TYR:150>  (379) 
1

>  <pistack:TYR:161>  (379) 
1

>  <hydroph_interaction:TYR:161>  (379) 
2

>  <hydroph_interaction:ASP:83>  (379) 
0

>  <hbond:TYR:130>  (379) 
0

>  <hydroph_interaction:ALA:132>  (379) 
0

>  <hbond:HIS:51>  (379) 
0

>  <hbond:ASP:129>  (379) 
0

>  <hbond:TYR:150>  (379) 
0

>  <hbond:GLY:151>  (379) 
0

>  <hbond:TYR:161>  (379) 
0

>  <hydroph_interaction:TYR:130>  (379) 
0

>  <hydroph_interaction:PRO:131>  (379) 
0

>  <hydroph_interaction:ASP:129>  (379) 
0

>  <saltbridge:ASP:75>  (379) 
0

>  <saltbridge:ASP:83>  (379) 
0

>  <hydroph_interaction:ASN:152>  (379) 
0

>  <halogenbond:TYR:150>  (379) 
0

>  <hbond:ASP:83>  (379) 
0

>  <hydroph_interaction:VAL:155>  (379) 
1

>  <pication:TYR:161>  (379) 
0

>  <hbond:PRO:131>  (379) 
0

>  <hbond:LEU:128>  (379) 
0

>  <saltbridge:ASP:129>  (379) 
0

>  <hbond:THR:134>  (379) 
0

>  <pication:HIS:51>  (379) 
0

>  <hbond:SER:81>  (379) 
0

>  <hbond:GLY:159>  (379) 
0

>  <hydroph_interaction:PRO:101>  (379) 
0

>  <hydroph_interaction:THR:134>  (379) 
0

>  <hbond:GLY:82>  (379) 
0

>  <hydroph_interaction:GLU:104>  (379) 
0

>  <hydroph_interaction:VAL:36>  (379) 
0

>  <hydroph_interaction:MET:49>  (379) 
0

>  <halogenbond:GLU:104>  (379) 
0

>  <hydroph_interaction:LYS:107>  (379) 
0

$$$$
MCULE-2757584494
     RDKit          3D

 26 28  0  0  0  0  0  0  0  0999 V2000
   -8.1677    5.5470  -14.8889 C   0  0  0  0  0  0  0  0  0  0  0  0
   -7.4576    6.5331  -14.5554 O   0  0  0  0  0  0  0  0  0  0  0  0
   -8.7328    4.6950  -13.8788 N   0  0  0  0  0  0  0  0  0  0  0  0
   -8.8570    5.0598  -12.4965 C   0  0  0  0  0  0  0  0  0  0  0  0
   -9.1701    4.2103  -11.4618 C   0  0  0  0  0  0  0  0  0  0  0  0
   -9.2483    4.9334  -10.3284 N   0  0  0  0  0  0  0  0  0  0  0  0
   -9.0076    6.1758  -10.6423 O   0  0  0  0  0  0  0  0  0  0  0  0
   -8.7732    6.3131  -11.9278 C   0  0  0  0  0  0  0  0  0  0  0  0
   -8.3954    5.2593  -16.3254 C   0  0  0  0  0  0  0  0  0  0  0  0
   -9.5770    4.6074  -16.7511 C   0  0  0  0  0  0  0  0  0  0  0  0
   -9.8087    4.3469  -18.1182 C   0  0  0  0  0  0  0  0  0  0  0  0
   -8.8687    4.7309  -19.0868 C   0  0  0  0  0  0  0  0  0  0  0  0
   -7.7118    5.3728  -18.6539 C   0  0  0  0  0  0  0  0  0  0  0  0
   -7.4779    5.6319  -17.3249 C   0  0  0  0  0  0  0  0  0  0  0  0
   -6.2388    6.2453  -17.2545 C   0  0  0  0  0  0  0  0  0  0  0  0
   -5.7896    6.3324  -18.5665 C   0  0  0  0  0  0  0  0  0  0  0  0
   -6.6925    5.7988  -19.4173 N   0  0  0  0  0  0  0  0  0  0  0  0
   -9.0280    3.7299  -14.1491 H   0  0  0  0  0  0  0  0  0  0  0  0
   -9.3335    3.1427  -11.5241 H   0  0  0  0  0  0  0  0  0  0  0  0
   -8.5695    7.2548  -12.4176 H   0  0  0  0  0  0  0  0  0  0  0  0
  -10.3341    4.3165  -16.0343 H   0  0  0  0  0  0  0  0  0  0  0  0
  -10.7206    3.8503  -18.4234 H   0  0  0  0  0  0  0  0  0  0  0  0
   -9.0385    4.5313  -20.1370 H   0  0  0  0  0  0  0  0  0  0  0  0
   -5.7078    6.5776  -16.3735 H   0  0  0  0  0  0  0  0  0  0  0  0
   -4.8448    6.7577  -18.8781 H   0  0  0  0  0  0  0  0  0  0  0  0
   -6.6064    5.7251  -20.4555 H   0  0  0  0  0  0  0  0  0  0  0  0
  1  2  2  0
  1  3  1  0
  3  4  1  0
  4  5  1  0
  5  6  2  0
  6  7  1  0
  7  8  1  0
  1  9  1  0
  9 10  2  0
 10 11  1  0
 11 12  2  0
 12 13  1  0
 13 14  2  0
 14 15  1  0
 15 16  2  0
 16 17  1  0
  4  8  2  0
  9 14  1  0
 17 13  1  0
  3 18  1  0
  5 19  1  0
  8 20  1  0
 10 21  1  0
 11 22  1  0
 12 23  1  0
 15 24  1  0
 16 25  1  0
 17 26  1  0
A    1
 C1 
A    2
 O1 
A    3
 N1 
A    4
 C2 
A    5
 C3 
A    6
 N2 
A    7
 O2 
A    8
 C4 
A    9
 C5 
A   10
 C6 
A   11
 C7 
A   12
 C8 
A   13
 C9 
A   14
 C10
A   15
 C11
A   16
 C12
A   17
 N3 
A   18
 H1 
A   19
 H2 
A   20
 H3 
A   21
 H4 
A   22
 H5 
A   23
 H6 
A   24
 H7 
A   25
 H8 
A   26
 H9 
M  END
>  <ref_pdb>  (380) 
x0051_0B

>  <ref_mols>  (380) 
x1098_0B,x0386_0B

>  <original SMILES>  (380) 
[H]c1noc([H])c1N([H])C(=O)c1c([H])c([H])c([H])c2c1c([H])c([H])n2[H]

>  <index>  (380) 
823

>  <∆∆G>  (380) 
-6.836686

>  <∆G_bound>  (380) 
-6.427852

>  <∆G_unbound>  (380) 
0.408835

>  <comRMSD>  (380) 
0.662635

>  <N_constrained_atoms>  (380) 
19.0

>  <N_unconstrained_atoms>  (380) 
0.0

>  <runtime>  (380) 
47.135659

>  <LE>  (380) 
0.359826

>  <percent_hybrid>  (380) 
8.0

>  <dist>  (380) 
7.0

>  <ecfp4>  (380) 
0.289855

>  <daylight>  (380) 
0.274194

>  <topodist>  (380) 
4.0

>  <mces>  (380) 
18.0

>  <tdn>  (380) 
3.0

>  <tup>  (380) 
0.0

>  <rdn>  (380) 
0.0

>  <rup>  (380) 
1.0

>  <ldn>  (380) 
0.0

>  <lup>  (380) 
0.0

>  <mut>  (380) 
2.0

>  <maj>  (380) 
2.0

>  <min>  (380) 
0.0

>  <hyb>  (380) 
1.0

>  <sub>  (380) 
2.0

>  <query_index>  (380) 
61.0

>  <max_hit_Tanimoto>  (380) 
0.333333

>  <largest_ring>  (380) 
6

>  <N_interactions_kept>  (380) 
1.5

>  <N_interactions_lost>  (380) 
3.5

>  <interaction_uniqueness_metric>  (380) 
0.164058

>  <ad_hoc_penalty>  (380) 
-19.779764

>  <N_rotatable_bonds>  (380) 
2

>  <N_HA>  (380) 
17

>  <cluster>  (380) 
5465

>  <N_interactions>  (380) 
7

>  <Enamine>  (380) 
0

>  <Mcule>  (380) 
1

>  <N_PAINS>  (380) 
0

>  <UFF_Gibbs>  (380) 
40.751164

>  <strain_per_HA>  (380) 
2.144798

>  <saltbridge:HIS:51>  (380) 
0

>  <pistack:HIS:51>  (380) 
1

>  <hydroph_interaction:HIS:51>  (380) 
0

>  <hbond:ALA:132>  (380) 
0

>  <hbond:SER:135>  (380) 
0

>  <hydroph_interaction:TYR:150>  (380) 
1

>  <pistack:TYR:161>  (380) 
2

>  <hydroph_interaction:TYR:161>  (380) 
0

>  <hydroph_interaction:ASP:83>  (380) 
0

>  <hbond:TYR:130>  (380) 
0

>  <hydroph_interaction:ALA:132>  (380) 
1

>  <hbond:HIS:51>  (380) 
0

>  <hbond:ASP:129>  (380) 
0

>  <hbond:TYR:150>  (380) 
0

>  <hbond:GLY:151>  (380) 
1

>  <hbond:TYR:161>  (380) 
1

>  <hydroph_interaction:TYR:130>  (380) 
0

>  <hydroph_interaction:PRO:131>  (380) 
0

>  <hydroph_interaction:ASP:129>  (380) 
0

>  <saltbridge:ASP:75>  (380) 
0

>  <saltbridge:ASP:83>  (380) 
0

>  <hydroph_interaction:ASN:152>  (380) 
0

>  <halogenbond:TYR:150>  (380) 
0

>  <hbond:ASP:83>  (380) 
0

>  <hydroph_interaction:VAL:155>  (380) 
0

>  <pication:TYR:161>  (380) 
0

>  <hbond:PRO:131>  (380) 
0

>  <hbond:LEU:128>  (380) 
0

>  <saltbridge:ASP:129>  (380) 
0

>  <hbond:THR:134>  (380) 
0

>  <pication:HIS:51>  (380) 
0

>  <hbond:SER:81>  (380) 
0

>  <hbond:GLY:159>  (380) 
0

>  <hydroph_interaction:PRO:101>  (380) 
0

>  <hydroph_interaction:THR:134>  (380) 
0

>  <hbond:GLY:82>  (380) 
0

>  <hydroph_interaction:GLU:104>  (380) 
0

>  <hydroph_interaction:VAL:36>  (380) 
0

>  <hydroph_interaction:MET:49>  (380) 
0

>  <halogenbond:GLU:104>  (380) 
0

>  <hydroph_interaction:LYS:107>  (380) 
0

$$$$
CSCS00020646180
     RDKit          3D

 27 29  0  0  0  0  0  0  0  0999 V2000
   -2.7823    4.8344  -18.0543 O   0  0  0  0  0  0  0  0  0  0  0  0
   -3.8448    5.0378  -18.7045 C   0  0  0  0  0  0  0  0  0  0  0  0
   -5.0544    4.9847  -17.9729 C   0  0  0  0  0  0  0  0  0  0  0  0
   -6.3303    5.1824  -18.5179 C   0  0  0  0  0  0  0  0  0  0  0  0
   -6.4163    5.4967  -20.1766 S   0  0  0  0  0  0  0  0  0  0  0  0
   -4.8970    5.5286  -20.9072 C   0  0  0  0  0  0  0  0  0  0  0  0
   -4.7808    5.7790  -22.2789 C   0  0  0  0  0  0  0  0  0  0  0  0
   -3.5215    5.8059  -22.8775 C   0  0  0  0  0  0  0  0  0  0  0  0
   -2.3792    5.5833  -22.1086 C   0  0  0  0  0  0  0  0  0  0  0  0
   -2.4901    5.3322  -20.7373 C   0  0  0  0  0  0  0  0  0  0  0  0
   -3.7541    5.2993  -20.1049 C   0  0  0  0  0  0  0  0  0  0  0  0
   -7.5626    5.1228  -17.6914 C   0  0  0  0  0  0  0  0  0  0  0  0
   -7.5634    5.5893  -16.3622 C   0  0  0  0  0  0  0  0  0  0  0  0
   -8.7294    5.5342  -15.5923 C   0  0  0  0  0  0  0  0  0  0  0  0
   -9.9062    5.0173  -16.1378 C   0  0  0  0  0  0  0  0  0  0  0  0
   -9.9206    4.5568  -17.4559 C   0  0  0  0  0  0  0  0  0  0  0  0
   -8.7580    4.6103  -18.2309 C   0  0  0  0  0  0  0  0  0  0  0  0
   -4.9808    4.7536  -16.9168 H   0  0  0  0  0  0  0  0  0  0  0  0
   -5.6630    5.9532  -22.8826 H   0  0  0  0  0  0  0  0  0  0  0  0
   -3.4306    5.9997  -23.9385 H   0  0  0  0  0  0  0  0  0  0  0  0
   -1.4031    5.6048  -22.5760 H   0  0  0  0  0  0  0  0  0  0  0  0
   -1.5793    5.1639  -20.1760 H   0  0  0  0  0  0  0  0  0  0  0  0
   -6.6713    6.0167  -15.9230 H   0  0  0  0  0  0  0  0  0  0  0  0
   -8.7214    5.8979  -14.5729 H   0  0  0  0  0  0  0  0  0  0  0  0
  -10.8075    4.9759  -15.5400 H   0  0  0  0  0  0  0  0  0  0  0  0
  -10.8333    4.1560  -17.8777 H   0  0  0  0  0  0  0  0  0  0  0  0
   -8.7916    4.2364  -19.2464 H   0  0  0  0  0  0  0  0  0  0  0  0
  1  2  2  0
  2  3  1  0
  3  4  2  0
  4  5  1  0
  5  6  1  0
  6  7  2  0
  7  8  1  0
  8  9  2  0
  9 10  1  0
 10 11  2  0
  4 12  1  0
 12 13  2  0
 13 14  1  0
 14 15  2  0
 15 16  1  0
 16 17  2  0
 11  2  1  0
 11  6  1  0
 17 12  1  0
  3 18  1  0
  7 19  1  0
  8 20  1  0
  9 21  1  0
 10 22  1  0
 13 23  1  0
 14 24  1  0
 15 25  1  0
 16 26  1  0
 17 27  1  0
A    1
 O1 
A    2
 C1 
A    3
 C2 
A    4
 C3 
A    5
 S1 
A    6
 C4 
A    7
 C5 
A    8
 C6 
A    9
 C7 
A   10
 C8 
A   11
 C9 
A   12
 C10
A   13
 C11
A   14
 C12
A   15
 C13
A   16
 C14
A   17
 C15
A   18
 H1 
A   19
 H2 
A   20
 H3 
A   21
 H4 
A   22
 H5 
A   23
 H6 
A   24
 H7 
A   25
 H8 
A   26
 H9 
A   27
 H10
M  END
>  <ref_pdb>  (381) 
x0051_0B

>  <ref_mols>  (381) 
x0852_0B,x0680_0B

>  <original SMILES>  (381) 
[H]c1c([H])c([H])c(-c2sc3c([H])c([H])c([H])c([H])c3c(=O)c2[H])c([H])c1[H]

>  <index>  (381) 
390

>  <∆∆G>  (381) 
-6.510392

>  <∆G_bound>  (381) 
-6.384868

>  <∆G_unbound>  (381) 
0.125524

>  <comRMSD>  (381) 
0.62101

>  <N_constrained_atoms>  (381) 
19.0

>  <N_unconstrained_atoms>  (381) 
1.0

>  <runtime>  (381) 
37.165508

>  <LE>  (381) 
0.32552

>  <percent_hybrid>  (381) 
20.0

>  <dist>  (381) 
6.0

>  <ecfp4>  (381) 
0.081967

>  <daylight>  (381) 
0.15122

>  <topodist>  (381) 
3.0

>  <mces>  (381) 
19.0

>  <tdn>  (381) 
1.0

>  <tup>  (381) 
0.0

>  <rdn>  (381) 
1.0

>  <rup>  (381) 
0.0

>  <ldn>  (381) 
1.0

>  <lup>  (381) 
0.0

>  <mut>  (381) 
2.0

>  <maj>  (381) 
2.0

>  <min>  (381) 
0.0

>  <hyb>  (381) 
1.0

>  <sub>  (381) 
3.0

>  <query_index>  (381) 
135.0

>  <max_hit_Tanimoto>  (381) 
0.165109

>  <largest_ring>  (381) 
6

>  <N_interactions_kept>  (381) 
6.0

>  <N_interactions_lost>  (381) 
1.5

>  <interaction_uniqueness_metric>  (381) 
0.053002

>  <ad_hoc_penalty>  (381) 
-19.772244

>  <N_rotatable_bonds>  (381) 
1

>  <N_HA>  (381) 
17

>  <cluster>  (381) 
5861

>  <N_interactions>  (381) 
4

>  <Enamine>  (381) 
1

>  <Mcule>  (381) 
0

>  <N_PAINS>  (381) 
0

>  <UFF_Gibbs>  (381) 
125.681478

>  <strain_per_HA>  (381) 
6.284074

>  <saltbridge:HIS:51>  (381) 
0

>  <pistack:HIS:51>  (381) 
0

>  <hydroph_interaction:HIS:51>  (381) 
0

>  <hbond:ALA:132>  (381) 
0

>  <hbond:SER:135>  (381) 
0

>  <hydroph_interaction:TYR:150>  (381) 
0

>  <pistack:TYR:161>  (381) 
0

>  <hydroph_interaction:TYR:161>  (381) 
3

>  <hydroph_interaction:ASP:83>  (381) 
0

>  <hbond:TYR:130>  (381) 
0

>  <hydroph_interaction:ALA:132>  (381) 
0

>  <hbond:HIS:51>  (381) 
0

>  <hbond:ASP:129>  (381) 
0

>  <hbond:TYR:150>  (381) 
0

>  <hbond:GLY:151>  (381) 
0

>  <hbond:TYR:161>  (381) 
0

>  <hydroph_interaction:TYR:130>  (381) 
0

>  <hydroph_interaction:PRO:131>  (381) 
0

>  <hydroph_interaction:ASP:129>  (381) 
1

>  <saltbridge:ASP:75>  (381) 
0

>  <saltbridge:ASP:83>  (381) 
0

>  <hydroph_interaction:ASN:152>  (381) 
0

>  <halogenbond:TYR:150>  (381) 
0

>  <hbond:ASP:83>  (381) 
0

>  <hydroph_interaction:VAL:155>  (381) 
0

>  <pication:TYR:161>  (381) 
0

>  <hbond:PRO:131>  (381) 
0

>  <hbond:LEU:128>  (381) 
0

>  <saltbridge:ASP:129>  (381) 
0

>  <hbond:THR:134>  (381) 
0

>  <pication:HIS:51>  (381) 
0

>  <hbond:SER:81>  (381) 
0

>  <hbond:GLY:159>  (381) 
0

>  <hydroph_interaction:PRO:101>  (381) 
0

>  <hydroph_interaction:THR:134>  (381) 
0

>  <hbond:GLY:82>  (381) 
0

>  <hydroph_interaction:GLU:104>  (381) 
0

>  <hydroph_interaction:VAL:36>  (381) 
0

>  <hydroph_interaction:MET:49>  (381) 
0

>  <halogenbond:GLU:104>  (381) 
0

>  <hydroph_interaction:LYS:107>  (381) 
0

$$$$
IVNZSCFPKDAKAE-UHFFFAOYSA-N
     RDKit          3D

 30 31  0  0  0  0  0  0  0  0999 V2000
   -5.7842    6.0982  -18.4169 N   0  0  0  0  0  0  0  0  0  0  0  0
   -4.8335    6.8964  -17.6347 C   0  0  0  0  0  0  0  0  0  0  0  0
   -3.6134    6.0733  -17.1619 C   0  0  0  0  0  0  0  0  0  0  0  0
   -2.8475    5.4506  -18.3357 C   0  0  0  0  0  0  0  0  0  0  0  0
   -3.9899    4.9995  -16.1354 C   0  0  0  0  0  0  0  0  0  0  0  0
   -6.9381    5.4319  -17.9234 C   0  0  0  0  0  0  0  0  0  0  0  0
   -7.6944    4.9276  -18.9468 C   0  0  0  0  0  0  0  0  0  0  0  0
   -8.8861    4.2436  -18.7031 C   0  0  0  0  0  0  0  0  0  0  0  0
   -9.3099    4.0879  -17.3741 C   0  0  0  0  0  0  0  0  0  0  0  0
   -8.5466    4.6255  -16.3193 C   0  0  0  0  0  0  0  0  0  0  0  0
   -9.1414    4.4286  -14.5156 Br  0  0  0  0  0  0  0  0  0  0  0  0
   -7.3519    5.3132  -16.5913 C   0  0  0  0  0  0  0  0  0  0  0  0
   -7.0790    5.2495  -20.2624 C   0  0  0  0  0  0  0  0  0  0  0  0
   -5.8632    6.1259  -19.8802 C   0  0  0  0  0  0  0  0  0  0  0  0
   -4.4653    7.7388  -18.2605 H   0  0  0  0  0  0  0  0  0  0  0  0
   -5.3465    7.3602  -16.7654 H   0  0  0  0  0  0  0  0  0  0  0  0
   -2.9210    6.7821  -16.6556 H   0  0  0  0  0  0  0  0  0  0  0  0
   -3.4392    4.6375  -18.8070 H   0  0  0  0  0  0  0  0  0  0  0  0
   -1.8886    5.0199  -17.9761 H   0  0  0  0  0  0  0  0  0  0  0  0
   -2.6139    6.2234  -19.0986 H   0  0  0  0  0  0  0  0  0  0  0  0
   -4.4822    5.4654  -15.2564 H   0  0  0  0  0  0  0  0  0  0  0  0
   -3.0752    4.4822  -15.7750 H   0  0  0  0  0  0  0  0  0  0  0  0
   -4.6666    4.2416  -16.5828 H   0  0  0  0  0  0  0  0  0  0  0  0
   -9.4754    3.8489  -19.5205 H   0  0  0  0  0  0  0  0  0  0  0  0
  -10.2318    3.5614  -17.1639 H   0  0  0  0  0  0  0  0  0  0  0  0
   -6.7790    5.7434  -15.7834 H   0  0  0  0  0  0  0  0  0  0  0  0
   -7.7934    5.8107  -20.9023 H   0  0  0  0  0  0  0  0  0  0  0  0
   -6.7522    4.3155  -20.7678 H   0  0  0  0  0  0  0  0  0  0  0  0
   -4.9319    5.7257  -20.3315 H   0  0  0  0  0  0  0  0  0  0  0  0
   -6.0236    7.1704  -20.2257 H   0  0  0  0  0  0  0  0  0  0  0  0
  1  2  1  0
  2  3  1  0
  3  4  1  0
  3  5  1  0
  1  6  1  0
  6  7  2  0
  7  8  1  0
  8  9  2  0
  9 10  1  0
 10 11  1  0
 10 12  2  0
  7 13  1  0
 13 14  1  0
 14  1  1  0
 12  6  1  0
  2 15  1  0
  2 16  1  0
  3 17  1  0
  4 18  1  0
  4 19  1  0
  4 20  1  0
  5 21  1  0
  5 22  1  0
  5 23  1  0
  8 24  1  0
  9 25  1  0
 12 26  1  0
 13 27  1  0
 13 28  1  0
 14 29  1  0
 14 30  1  0
A    1
 N1 
A    2
 C1 
A    3
 C2 
A    4
 C3 
A    5
 C4 
A    6
 C5 
A    7
 C6 
A    8
 C7 
A    9
 C8 
A   10
 C9 
A   11
BR1 
A   12
 C10
A   13
 C11
A   14
 C12
A   15
 H1 
A   16
 H2 
A   17
 H3 
A   18
 H4 
A   19
 H5 
A   20
 H6 
A   21
 H7 
A   22
 H8 
A   23
 H9 
A   24
 H10
A   25
 H11
A   26
 H12
A   27
 H13
A   28
 H14
A   29
 H15
A   30
 H16
M  END
>  <ref_pdb>  (382) 
x0051_0B

>  <ref_mols>  (382) 
x0490_0B,x0472_0B

>  <original SMILES>  (382) 
[H]c1c([H])c2c(c([H])c1Br)N(C([H])([H])C([H])(C([H])([H])[H])C([H])([H])[H])C([H])([H])C2([H])[H]

>  <index>  (382) 
520

>  <∆∆G>  (382) 
-5.688475

>  <∆G_bound>  (382) 
-5.849947

>  <∆G_unbound>  (382) 
-0.161472

>  <comRMSD>  (382) 
0.697133

>  <N_constrained_atoms>  (382) 
16.0

>  <N_unconstrained_atoms>  (382) 
1.0

>  <runtime>  (382) 
28.779199

>  <LE>  (382) 
0.334616

>  <percent_hybrid>  (382) 
38.0

>  <dist>  (382) 
4.0

>  <ecfp4>  (382) 
0.2

>  <daylight>  (382) 
0.085106

>  <topodist>  (382) 
2.0

>  <mces>  (382) 
14.0

>  <tdn>  (382) 
1.0

>  <tup>  (382) 
1.0

>  <rdn>  (382) 
0.0

>  <rup>  (382) 
0.0

>  <ldn>  (382) 
0.0

>  <lup>  (382) 
0.0

>  <mut>  (382) 
1.0

>  <maj>  (382) 
1.0

>  <min>  (382) 
0.0

>  <hyb>  (382) 
1.0

>  <sub>  (382) 
2.0

>  <query_index>  (382) 
228.0

>  <max_hit_Tanimoto>  (382) 
0.203659

>  <largest_ring>  (382) 
6

>  <N_interactions_kept>  (382) 
3.0

>  <N_interactions_lost>  (382) 
1.0

>  <interaction_uniqueness_metric>  (382) 
0.064957

>  <ad_hoc_penalty>  (382) 
-19.745164

>  <N_rotatable_bonds>  (382) 
4

>  <N_HA>  (382) 
14

>  <cluster>  (382) 
5744

>  <N_interactions>  (382) 
5

>  <Enamine>  (382) 
0

>  <Mcule>  (382) 
1

>  <N_PAINS>  (382) 
0

>  <UFF_Gibbs>  (382) 
76.891894

>  <strain_per_HA>  (382) 
4.523053

>  <saltbridge:HIS:51>  (382) 
0

>  <pistack:HIS:51>  (382) 
0

>  <hydroph_interaction:HIS:51>  (382) 
0

>  <hbond:ALA:132>  (382) 
0

>  <hbond:SER:135>  (382) 
0

>  <hydroph_interaction:TYR:150>  (382) 
1

>  <pistack:TYR:161>  (382) 
0

>  <hydroph_interaction:TYR:161>  (382) 
3

>  <hydroph_interaction:ASP:83>  (382) 
0

>  <hbond:TYR:130>  (382) 
0

>  <hydroph_interaction:ALA:132>  (382) 
0

>  <hbond:HIS:51>  (382) 
0

>  <hbond:ASP:129>  (382) 
0

>  <hbond:TYR:150>  (382) 
0

>  <hbond:GLY:151>  (382) 
0

>  <hbond:TYR:161>  (382) 
0

>  <hydroph_interaction:TYR:130>  (382) 
0

>  <hydroph_interaction:PRO:131>  (382) 
0

>  <hydroph_interaction:ASP:129>  (382) 
0

>  <saltbridge:ASP:75>  (382) 
0

>  <saltbridge:ASP:83>  (382) 
0

>  <hydroph_interaction:ASN:152>  (382) 
0

>  <halogenbond:TYR:150>  (382) 
0

>  <hbond:ASP:83>  (382) 
0

>  <hydroph_interaction:VAL:155>  (382) 
1

>  <pication:TYR:161>  (382) 
0

>  <hbond:PRO:131>  (382) 
0

>  <hbond:LEU:128>  (382) 
0

>  <saltbridge:ASP:129>  (382) 
0

>  <hbond:THR:134>  (382) 
0

>  <pication:HIS:51>  (382) 
0

>  <hbond:SER:81>  (382) 
0

>  <hbond:GLY:159>  (382) 
0

>  <hydroph_interaction:PRO:101>  (382) 
0

>  <hydroph_interaction:THR:134>  (382) 
0

>  <hbond:GLY:82>  (382) 
0

>  <hydroph_interaction:GLU:104>  (382) 
0

>  <hydroph_interaction:VAL:36>  (382) 
0

>  <hydroph_interaction:MET:49>  (382) 
0

>  <halogenbond:GLU:104>  (382) 
0

>  <hydroph_interaction:LYS:107>  (382) 
0

$$$$
MCULE-9299501064
     RDKit          3D

 19 20  0  0  0  0  0  0  0  0999 V2000
  -10.1771    4.8060  -18.1327 O   0  0  0  0  0  0  0  0  0  0  0  0
   -9.7162    4.9442  -16.9109 C   0  0  0  0  0  0  0  0  0  0  0  0
   -8.3773    5.1011  -16.8794 N   0  0  0  0  0  0  0  0  0  0  0  0
   -8.0202    5.0520  -18.1788 C   0  0  0  0  0  0  0  0  0  0  0  0
   -6.6211    5.1804  -18.6556 C   0  0  0  0  0  0  0  0  0  0  0  0
   -5.5788    5.3653  -17.7285 C   0  0  0  0  0  0  0  0  0  0  0  0
   -4.2553    5.4880  -18.1621 C   0  0  0  0  0  0  0  0  0  0  0  0
   -3.9525    5.4282  -19.5247 C   0  0  0  0  0  0  0  0  0  0  0  0
   -2.6292    5.5521  -19.9420 O   0  0  0  0  0  0  0  0  0  0  0  0
   -4.9814    5.2446  -20.4564 C   0  0  0  0  0  0  0  0  0  0  0  0
   -6.3065    5.1214  -20.0271 C   0  0  0  0  0  0  0  0  0  0  0  0
   -9.1539    4.8676  -18.9472 C   0  0  0  0  0  0  0  0  0  0  0  0
  -10.3393    4.9337  -16.0267 H   0  0  0  0  0  0  0  0  0  0  0  0
   -5.7852    5.4153  -16.6667 H   0  0  0  0  0  0  0  0  0  0  0  0
   -3.4637    5.6298  -17.4372 H   0  0  0  0  0  0  0  0  0  0  0  0
   -2.3775    5.5129  -20.9228 H   0  0  0  0  0  0  0  0  0  0  0  0
   -4.7557    5.1971  -21.5142 H   0  0  0  0  0  0  0  0  0  0  0  0
   -7.0765    4.9806  -20.7725 H   0  0  0  0  0  0  0  0  0  0  0  0
   -9.2237    4.7847  -20.0228 H   0  0  0  0  0  0  0  0  0  0  0  0
  1  2  1  0
  2  3  2  0
  3  4  1  0
  4  5  1  0
  5  6  2  0
  6  7  1  0
  7  8  2  0
  8  9  1  0
  8 10  1  0
 10 11  2  0
  4 12  2  0
 12  1  1  0
 11  5  1  0
  2 13  1  0
  6 14  1  0
  7 15  1  0
  9 16  1  0
 10 17  1  0
 11 18  1  0
 12 19  1  0
A    1
 O1 
A    2
 C1 
A    3
 N1 
A    4
 C2 
A    5
 C3 
A    6
 C4 
A    7
 C5 
A    8
 C6 
A    9
 O2 
A   10
 C7 
A   11
 C8 
A   12
 C9 
A   13
 H1 
A   14
 H2 
A   15
 H3 
A   16
 H4 
A   17
 H5 
A   18
 H6 
A   19
 H7 
M  END
>  <ref_pdb>  (383) 
x0051_0B

>  <ref_mols>  (383) 
x0680_0B,x0386_0B

>  <original SMILES>  (383) 
[H]Oc1c([H])c([H])c(-c2nc([H])oc2[H])c([H])c1[H]

>  <index>  (383) 
595

>  <∆∆G>  (383) 
-5.381267

>  <∆G_bound>  (383) 
-5.313313

>  <∆G_unbound>  (383) 
0.067955

>  <comRMSD>  (383) 
0.59009

>  <N_constrained_atoms>  (383) 
13.0

>  <N_unconstrained_atoms>  (383) 
1.0

>  <runtime>  (383) 
21.219147

>  <LE>  (383) 
0.384376

>  <percent_hybrid>  (383) 
25.0

>  <dist>  (383) 
3.0

>  <ecfp4>  (383) 
0.380952

>  <daylight>  (383) 
0.487179

>  <topodist>  (383) 
2.0

>  <mces>  (383) 
12.0

>  <tdn>  (383) 
1.0

>  <tup>  (383) 
1.0

>  <rdn>  (383) 
0.0

>  <rup>  (383) 
0.0

>  <ldn>  (383) 
0.0

>  <lup>  (383) 
0.0

>  <mut>  (383) 
1.0

>  <maj>  (383) 
1.0

>  <min>  (383) 
0.0

>  <hyb>  (383) 
0.0

>  <sub>  (383) 
2.0

>  <query_index>  (383) 
296.0

>  <max_hit_Tanimoto>  (383) 
0.137536

>  <largest_ring>  (383) 
6

>  <N_interactions_kept>  (383) 
3.5

>  <N_interactions_lost>  (383) 
0.5

>  <interaction_uniqueness_metric>  (383) 
0.016266

>  <ad_hoc_penalty>  (383) 
-19.70871

>  <N_rotatable_bonds>  (383) 
2

>  <N_HA>  (383) 
12

>  <cluster>  (383) 
5674

>  <N_interactions>  (383) 
3

>  <Enamine>  (383) 
0

>  <Mcule>  (383) 
1

>  <N_PAINS>  (383) 
0

>  <UFF_Gibbs>  (383) 
41.971191

>  <strain_per_HA>  (383) 
2.997942

>  <saltbridge:HIS:51>  (383) 
0

>  <pistack:HIS:51>  (383) 
0

>  <hydroph_interaction:HIS:51>  (383) 
0

>  <hbond:ALA:132>  (383) 
0

>  <hbond:SER:135>  (383) 
0

>  <hydroph_interaction:TYR:150>  (383) 
0

>  <pistack:TYR:161>  (383) 
0

>  <hydroph_interaction:TYR:161>  (383) 
3

>  <hydroph_interaction:ASP:83>  (383) 
0

>  <hbond:TYR:130>  (383) 
0

>  <hydroph_interaction:ALA:132>  (383) 
0

>  <hbond:HIS:51>  (383) 
0

>  <hbond:ASP:129>  (383) 
0

>  <hbond:TYR:150>  (383) 
0

>  <hbond:GLY:151>  (383) 
0

>  <hbond:TYR:161>  (383) 
0

>  <hydroph_interaction:TYR:130>  (383) 
0

>  <hydroph_interaction:PRO:131>  (383) 
0

>  <hydroph_interaction:ASP:129>  (383) 
0

>  <saltbridge:ASP:75>  (383) 
0

>  <saltbridge:ASP:83>  (383) 
0

>  <hydroph_interaction:ASN:152>  (383) 
0

>  <halogenbond:TYR:150>  (383) 
0

>  <hbond:ASP:83>  (383) 
0

>  <hydroph_interaction:VAL:155>  (383) 
0

>  <pication:TYR:161>  (383) 
0

>  <hbond:PRO:131>  (383) 
0

>  <hbond:LEU:128>  (383) 
0

>  <saltbridge:ASP:129>  (383) 
0

>  <hbond:THR:134>  (383) 
0

>  <pication:HIS:51>  (383) 
0

>  <hbond:SER:81>  (383) 
0

>  <hbond:GLY:159>  (383) 
0

>  <hydroph_interaction:PRO:101>  (383) 
0

>  <hydroph_interaction:THR:134>  (383) 
0

>  <hbond:GLY:82>  (383) 
0

>  <hydroph_interaction:GLU:104>  (383) 
0

>  <hydroph_interaction:VAL:36>  (383) 
0

>  <hydroph_interaction:MET:49>  (383) 
0

>  <halogenbond:GLU:104>  (383) 
0

>  <hydroph_interaction:LYS:107>  (383) 
0

$$$$
MCULE-4462762499
     RDKit          3D

 26 27  0  0  0  0  0  0  0  0999 V2000
   -9.2619    4.8613  -19.3289 C   0  0  0  0  0  0  0  0  0  0  0  0
   -7.9454    5.1903  -19.0075 C   0  0  0  0  0  0  0  0  0  0  0  0
   -7.5497    5.2891  -17.6662 C   0  0  0  0  0  0  0  0  0  0  0  0
   -6.0976    5.5521  -17.3452 C   0  0  0  0  0  0  0  0  0  0  0  0
   -5.8742    5.9504  -15.8835 C   0  0  0  0  0  0  0  0  0  0  0  0
   -6.6558    5.0252  -14.9484 C   0  0  0  0  0  0  0  0  0  0  0  0
   -8.1728    5.1672  -15.1828 C   0  0  1  0  0  0  0  0  0  0  0  0
   -8.6490    6.4758  -14.6849 N   0  0  0  0  0  0  0  0  0  0  0  0
   -8.9738    6.4267  -13.2557 C   0  0  0  0  0  0  0  0  0  0  0  0
   -8.5031    5.0215  -16.6555 C   0  0  0  0  0  0  0  0  0  0  0  0
   -9.7818    4.7088  -17.0068 N   0  0  0  0  0  0  0  0  0  0  0  0
  -10.1754    4.6201  -18.3040 C   0  0  0  0  0  0  0  0  0  0  0  0
   -9.5699    4.7875  -20.3639 H   0  0  0  0  0  0  0  0  0  0  0  0
   -7.2311    5.3603  -19.8037 H   0  0  0  0  0  0  0  0  0  0  0  0
   -5.5188    4.6277  -17.5607 H   0  0  0  0  0  0  0  0  0  0  0  0
   -5.7067    6.3607  -18.0004 H   0  0  0  0  0  0  0  0  0  0  0  0
   -6.1920    7.0047  -15.7279 H   0  0  0  0  0  0  0  0  0  0  0  0
   -4.7900    5.8842  -15.6482 H   0  0  0  0  0  0  0  0  0  0  0  0
   -6.3948    5.2612  -13.8962 H   0  0  0  0  0  0  0  0  0  0  0  0
   -6.3499    3.9711  -15.1316 H   0  0  0  0  0  0  0  0  0  0  0  0
   -8.6832    4.3339  -14.6464 H   0  0  0  0  0  0  0  0  0  0  0  0
   -9.5353    6.7410  -15.1765 H   0  0  0  0  0  0  0  0  0  0  0  0
   -9.7913    5.6982  -13.0602 H   0  0  0  0  0  0  0  0  0  0  0  0
   -8.0820    6.1575  -12.6536 H   0  0  0  0  0  0  0  0  0  0  0  0
   -9.3146    7.4300  -12.9233 H   0  0  0  0  0  0  0  0  0  0  0  0
  -11.2000    4.3647  -18.5390 H   0  0  0  0  0  0  0  0  0  0  0  0
  1  2  2  0
  2  3  1  0
  3  4  1  0
  4  5  1  0
  5  6  1  0
  6  7  1  0
  7  8  1  0
  8  9  1  0
  7 10  1  0
 10 11  1  0
 11 12  2  0
  1 12  1  0
 10  3  2  0
  1 13  1  0
  2 14  1  0
  4 15  1  0
  4 16  1  0
  5 17  1  0
  5 18  1  0
  6 19  1  0
  6 20  1  0
  7 21  1  1
  8 22  1  0
  9 23  1  0
  9 24  1  0
  9 25  1  0
 12 26  1  0
A    1
 C1 
A    2
 C2 
A    3
 C3 
A    4
 C4 
A    5
 C5 
A    6
 C6 
A    7
 C7 
A    8
 N1 
A    9
 C8 
A   10
 C9 
A   11
 N2 
A   12
 C10
A   13
 H1 
A   14
 H2 
A   15
 H3 
A   16
 H4 
A   17
 H5 
A   18
 H6 
A   19
 H7 
A   20
 H8 
A   21
 H9 
A   22
 H10
A   23
 H11
A   24
 H12
A   25
 H13
A   26
 H14
M  END
>  <ref_pdb>  (384) 
x0051_0B

>  <ref_mols>  (384) 
x0455_0B,x0951_0B

>  <original SMILES>  (384) 
[H]c1nc2c(c([H])c1[H])C([H])([H])C([H])([H])C([H])([H])[C@@]2([H])N([H])C([H])([H])[H]

>  <index>  (384) 
535

>  <∆∆G>  (384) 
-5.339879

>  <∆G_bound>  (384) 
-5.181857

>  <∆G_unbound>  (384) 
0.158022

>  <comRMSD>  (384) 
0.649901

>  <N_constrained_atoms>  (384) 
14.0

>  <N_unconstrained_atoms>  (384) 
0.0

>  <runtime>  (384) 
22.425984

>  <LE>  (384) 
0.38142

>  <percent_hybrid>  (384) 
34.0

>  <dist>  (384) 
2.0

>  <ecfp4>  (384) 
0.361702

>  <daylight>  (384) 
0.344444

>  <topodist>  (384) 
1.0

>  <mces>  (384) 
13.0

>  <tdn>  (384) 
0.0

>  <tup>  (384) 
0.0

>  <rdn>  (384) 
0.0

>  <rup>  (384) 
0.0

>  <ldn>  (384) 
1.0

>  <lup>  (384) 
0.0

>  <mut>  (384) 
1.0

>  <maj>  (384) 
1.0

>  <min>  (384) 
0.0

>  <hyb>  (384) 
0.0

>  <sub>  (384) 
0.0

>  <query_index>  (384) 
288.0

>  <max_hit_Tanimoto>  (384) 
0.298789

>  <largest_ring>  (384) 
6

>  <N_interactions_kept>  (384) 
1.0

>  <N_interactions_lost>  (384) 
1.5

>  <interaction_uniqueness_metric>  (384) 
0.034305

>  <ad_hoc_penalty>  (384) 
-19.701995

>  <N_rotatable_bonds>  (384) 
2

>  <N_HA>  (384) 
12

>  <cluster>  (384) 
5729

>  <N_interactions>  (384) 
5

>  <Enamine>  (384) 
0

>  <Mcule>  (384) 
1

>  <N_PAINS>  (384) 
0

>  <UFF_Gibbs>  (384) 
57.435462

>  <strain_per_HA>  (384) 
4.102533

>  <saltbridge:HIS:51>  (384) 
0

>  <pistack:HIS:51>  (384) 
0

>  <hydroph_interaction:HIS:51>  (384) 
0

>  <hbond:ALA:132>  (384) 
0

>  <hbond:SER:135>  (384) 
0

>  <hydroph_interaction:TYR:150>  (384) 
1

>  <pistack:TYR:161>  (384) 
0

>  <hydroph_interaction:TYR:161>  (384) 
4

>  <hydroph_interaction:ASP:83>  (384) 
0

>  <hbond:TYR:130>  (384) 
0

>  <hydroph_interaction:ALA:132>  (384) 
0

>  <hbond:HIS:51>  (384) 
0

>  <hbond:ASP:129>  (384) 
0

>  <hbond:TYR:150>  (384) 
0

>  <hbond:GLY:151>  (384) 
0

>  <hbond:TYR:161>  (384) 
0

>  <hydroph_interaction:TYR:130>  (384) 
0

>  <hydroph_interaction:PRO:131>  (384) 
0

>  <hydroph_interaction:ASP:129>  (384) 
0

>  <saltbridge:ASP:75>  (384) 
0

>  <saltbridge:ASP:83>  (384) 
0

>  <hydroph_interaction:ASN:152>  (384) 
0

>  <halogenbond:TYR:150>  (384) 
0

>  <hbond:ASP:83>  (384) 
0

>  <hydroph_interaction:VAL:155>  (384) 
0

>  <pication:TYR:161>  (384) 
0

>  <hbond:PRO:131>  (384) 
0

>  <hbond:LEU:128>  (384) 
0

>  <saltbridge:ASP:129>  (384) 
0

>  <hbond:THR:134>  (384) 
0

>  <pication:HIS:51>  (384) 
0

>  <hbond:SER:81>  (384) 
0

>  <hbond:GLY:159>  (384) 
0

>  <hydroph_interaction:PRO:101>  (384) 
0

>  <hydroph_interaction:THR:134>  (384) 
0

>  <hbond:GLY:82>  (384) 
0

>  <hydroph_interaction:GLU:104>  (384) 
0

>  <hydroph_interaction:VAL:36>  (384) 
0

>  <hydroph_interaction:MET:49>  (384) 
0

>  <halogenbond:GLU:104>  (384) 
0

>  <hydroph_interaction:LYS:107>  (384) 
0

$$$$
CSSB00000184963
     RDKit          3D

 22 23  0  0  0  0  0  0  0  0999 V2000
   -7.1931    5.6697  -20.1454 O   0  0  0  0  0  0  0  0  0  0  0  0
   -8.0204    5.3570  -19.0674 C   0  0  0  0  0  0  0  0  0  0  0  0
   -9.3399    4.9417  -19.2940 C   0  0  0  0  0  0  0  0  0  0  0  0
  -10.1751    4.6314  -18.2192 C   0  0  0  0  0  0  0  0  0  0  0  0
   -9.6986    4.7272  -16.9105 C   0  0  0  0  0  0  0  0  0  0  0  0
   -8.3757    5.1244  -16.6664 C   0  0  0  0  0  0  0  0  0  0  0  0
   -7.5352    5.4603  -17.7503 C   0  0  0  0  0  0  0  0  0  0  0  0
   -6.1801    5.8723  -17.5004 N   0  0  0  0  0  0  0  0  0  0  0  0
   -5.7037    6.1336  -16.1440 C   0  0  0  0  0  0  0  0  0  0  0  0
   -6.3576    5.1640  -15.1582 C   0  0  0  0  0  0  0  0  0  0  0  0
   -7.8854    5.2625  -15.2453 C   0  0  0  0  0  0  0  0  0  0  0  0
   -7.5200    5.6040  -21.1023 H   0  0  0  0  0  0  0  0  0  0  0  0
   -9.7204    4.8627  -20.3044 H   0  0  0  0  0  0  0  0  0  0  0  0
  -11.1951    4.3182  -18.4009 H   0  0  0  0  0  0  0  0  0  0  0  0
  -10.3605    4.4907  -16.0864 H   0  0  0  0  0  0  0  0  0  0  0  0
   -5.5205    6.0296  -18.2951 H   0  0  0  0  0  0  0  0  0  0  0  0
   -5.9551    7.1793  -15.8637 H   0  0  0  0  0  0  0  0  0  0  0  0
   -4.5994    6.0161  -16.1063 H   0  0  0  0  0  0  0  0  0  0  0  0
   -6.0277    5.4046  -14.1247 H   0  0  0  0  0  0  0  0  0  0  0  0
   -6.0371    4.1252  -15.3933 H   0  0  0  0  0  0  0  0  0  0  0  0
   -8.2160    6.2464  -14.8475 H   0  0  0  0  0  0  0  0  0  0  0  0
   -8.3296    4.4661  -14.6093 H   0  0  0  0  0  0  0  0  0  0  0  0
  1  2  1  0
  2  3  2  0
  3  4  1  0
  4  5  2  0
  5  6  1  0
  6  7  2  0
  7  8  1  0
  8  9  1  0
  9 10  1  0
 10 11  1  0
  7  2  1  0
 11  6  1  0
  1 12  1  0
  3 13  1  0
  4 14  1  0
  5 15  1  0
  8 16  1  0
  9 17  1  0
  9 18  1  0
 10 19  1  0
 10 20  1  0
 11 21  1  0
 11 22  1  0
A    1
 O1 
A    2
 C1 
A    3
 C2 
A    4
 C3 
A    5
 C4 
A    6
 C5 
A    7
 C6 
A    8
 N1 
A    9
 C7 
A   10
 C8 
A   11
 C9 
A   12
 H1 
A   13
 H2 
A   14
 H3 
A   15
 H4 
A   16
 H5 
A   17
 H6 
A   18
 H7 
A   19
 H8 
A   20
 H9 
A   21
 H10
A   22
 H11
M  END
>  <ref_pdb>  (385) 
x0051_0B

>  <ref_mols>  (385) 
x0455_0B,x0382_0B

>  <original SMILES>  (385) 
[H]Oc1c([H])c([H])c([H])c2c1N([H])C([H])([H])C([H])([H])C2([H])[H]

>  <index>  (385) 
511

>  <∆∆G>  (385) 
-6.251436

>  <∆G_bound>  (385) 
-6.090521

>  <∆G_unbound>  (385) 
0.160915

>  <comRMSD>  (385) 
0.386203

>  <N_constrained_atoms>  (385) 
11.0

>  <N_unconstrained_atoms>  (385) 
0.0

>  <runtime>  (385) 
18.505506

>  <LE>  (385) 
0.568312

>  <percent_hybrid>  (385) 
20.0

>  <dist>  (385) 
2.0

>  <ecfp4>  (385) 
0.365854

>  <daylight>  (385) 
0.361842

>  <topodist>  (385) 
1.0

>  <mces>  (385) 
12.0

>  <tdn>  (385) 
0.0

>  <tup>  (385) 
0.0

>  <rdn>  (385) 
0.0

>  <rup>  (385) 
0.0

>  <ldn>  (385) 
1.0

>  <lup>  (385) 
0.0

>  <mut>  (385) 
1.0

>  <maj>  (385) 
1.0

>  <min>  (385) 
0.0

>  <hyb>  (385) 
0.0

>  <sub>  (385) 
0.0

>  <query_index>  (385) 
293.0

>  <max_hit_Tanimoto>  (385) 
0.335017

>  <largest_ring>  (385) 
6

>  <N_interactions_kept>  (385) 
0.0

>  <N_interactions_lost>  (385) 
1.5

>  <interaction_uniqueness_metric>  (385) 
0.053165

>  <ad_hoc_penalty>  (385) 
-19.649458

>  <N_rotatable_bonds>  (385) 
1

>  <N_HA>  (385) 
11

>  <cluster>  (385) 
5752

>  <N_interactions>  (385) 
4

>  <Enamine>  (385) 
1

>  <Mcule>  (385) 
0

>  <N_PAINS>  (385) 
0

>  <UFF_Gibbs>  (385) 
51.734886

>  <strain_per_HA>  (385) 
4.703171

>  <saltbridge:HIS:51>  (385) 
0

>  <pistack:HIS:51>  (385) 
0

>  <hydroph_interaction:HIS:51>  (385) 
0

>  <hbond:ALA:132>  (385) 
0

>  <hbond:SER:135>  (385) 
0

>  <hydroph_interaction:TYR:150>  (385) 
1

>  <pistack:TYR:161>  (385) 
0

>  <hydroph_interaction:TYR:161>  (385) 
2

>  <hydroph_interaction:ASP:83>  (385) 
0

>  <hbond:TYR:130>  (385) 
1

>  <hydroph_interaction:ALA:132>  (385) 
0

>  <hbond:HIS:51>  (385) 
0

>  <hbond:ASP:129>  (385) 
0

>  <hbond:TYR:150>  (385) 
0

>  <hbond:GLY:151>  (385) 
0

>  <hbond:TYR:161>  (385) 
0

>  <hydroph_interaction:TYR:130>  (385) 
0

>  <hydroph_interaction:PRO:131>  (385) 
0

>  <hydroph_interaction:ASP:129>  (385) 
0

>  <saltbridge:ASP:75>  (385) 
0

>  <saltbridge:ASP:83>  (385) 
0

>  <hydroph_interaction:ASN:152>  (385) 
0

>  <halogenbond:TYR:150>  (385) 
0

>  <hbond:ASP:83>  (385) 
0

>  <hydroph_interaction:VAL:155>  (385) 
0

>  <pication:TYR:161>  (385) 
0

>  <hbond:PRO:131>  (385) 
0

>  <hbond:LEU:128>  (385) 
0

>  <saltbridge:ASP:129>  (385) 
0

>  <hbond:THR:134>  (385) 
0

>  <pication:HIS:51>  (385) 
0

>  <hbond:SER:81>  (385) 
0

>  <hbond:GLY:159>  (385) 
0

>  <hydroph_interaction:PRO:101>  (385) 
0

>  <hydroph_interaction:THR:134>  (385) 
0

>  <hbond:GLY:82>  (385) 
0

>  <hydroph_interaction:GLU:104>  (385) 
0

>  <hydroph_interaction:VAL:36>  (385) 
0

>  <hydroph_interaction:MET:49>  (385) 
0

>  <halogenbond:GLU:104>  (385) 
0

>  <hydroph_interaction:LYS:107>  (385) 
0

$$$$
CSSB00012186507
     RDKit          3D

 17 18  0  0  0  0  0  0  0  0999 V2000
  -10.4134    4.7794  -18.2504 S   0  0  0  0  0  0  0  0  0  0  0  0
   -9.6237    5.0120  -16.7893 C   0  0  0  0  0  0  0  0  0  0  0  0
   -8.2947    5.1526  -16.9786 N   0  0  0  0  0  0  0  0  0  0  0  0
   -7.9370    5.0745  -18.2921 C   0  0  0  0  0  0  0  0  0  0  0  0
   -9.0074    4.8627  -19.1665 C   0  0  0  0  0  0  0  0  0  0  0  0
   -6.5170    5.1986  -18.7156 C   0  0  0  0  0  0  0  0  0  0  0  0
   -5.4911    5.1864  -17.7537 C   0  0  0  0  0  0  0  0  0  0  0  0
   -4.1562    5.3033  -18.1437 C   0  0  0  0  0  0  0  0  0  0  0  0
   -3.8485    5.4364  -19.4966 C   0  0  0  0  0  0  0  0  0  0  0  0
   -4.8437    5.4540  -20.4207 N   0  0  0  0  0  0  0  0  0  0  0  0
   -6.1525    5.3403  -20.0691 C   0  0  0  0  0  0  0  0  0  0  0  0
  -10.0975    5.0453  -15.8178 H   0  0  0  0  0  0  0  0  0  0  0  0
   -8.9641    4.7509  -20.2402 H   0  0  0  0  0  0  0  0  0  0  0  0
   -5.7179    5.0801  -16.7003 H   0  0  0  0  0  0  0  0  0  0  0  0
   -3.3671    5.2904  -17.4030 H   0  0  0  0  0  0  0  0  0  0  0  0
   -2.8182    5.5284  -19.8131 H   0  0  0  0  0  0  0  0  0  0  0  0
   -6.8971    5.3746  -20.8503 H   0  0  0  0  0  0  0  0  0  0  0  0
  1  2  1  0
  2  3  2  0
  3  4  1  0
  4  5  2  0
  4  6  1  0
  6  7  2  0
  7  8  1  0
  8  9  2  0
  9 10  1  0
 10 11  2  0
  5  1  1  0
 11  6  1  0
  2 12  1  0
  5 13  1  0
  7 14  1  0
  8 15  1  0
  9 16  1  0
 11 17  1  0
A    1
 S1 
A    2
 C1 
A    3
 N1 
A    4
 C2 
A    5
 C3 
A    6
 C4 
A    7
 C5 
A    8
 C6 
A    9
 C7 
A   10
 N2 
A   11
 C8 
A   12
 H1 
A   13
 H2 
A   14
 H3 
A   15
 H4 
A   16
 H5 
A   17
 H6 
M  END
>  <ref_pdb>  (386) 
x0051_0B

>  <ref_mols>  (386) 
x0680_0B,x0386_0B

>  <original SMILES>  (386) 
[H]c1nc(-c2c([H])nc([H])c([H])c2[H])c([H])s1

>  <index>  (386) 
608

>  <∆∆G>  (386) 
-5.837742

>  <∆G_bound>  (386) 
-5.749935

>  <∆G_unbound>  (386) 
0.087807

>  <comRMSD>  (386) 
0.652216

>  <N_constrained_atoms>  (386) 
13.0

>  <N_unconstrained_atoms>  (386) 
0.0

>  <runtime>  (386) 
20.266644

>  <LE>  (386) 
0.449057

>  <percent_hybrid>  (386) 
25.0

>  <dist>  (386) 
2.0

>  <ecfp4>  (386) 
0.270833

>  <daylight>  (386) 
0.391304

>  <topodist>  (386) 
1.0

>  <mces>  (386) 
12.0

>  <tdn>  (386) 
1.0

>  <tup>  (386) 
0.0

>  <rdn>  (386) 
0.0

>  <rup>  (386) 
0.0

>  <ldn>  (386) 
0.0

>  <lup>  (386) 
0.0

>  <mut>  (386) 
1.0

>  <maj>  (386) 
0.0

>  <min>  (386) 
1.0

>  <hyb>  (386) 
0.0

>  <sub>  (386) 
1.0

>  <query_index>  (386) 
296.0

>  <max_hit_Tanimoto>  (386) 
0.123188

>  <largest_ring>  (386) 
6

>  <N_interactions_kept>  (386) 
3.5

>  <N_interactions_lost>  (386) 
0.5

>  <interaction_uniqueness_metric>  (386) 
0.013281

>  <ad_hoc_penalty>  (386) 
-19.649134

>  <N_rotatable_bonds>  (386) 
1

>  <N_HA>  (386) 
11

>  <cluster>  (386) 
5662

>  <N_interactions>  (386) 
2

>  <Enamine>  (386) 
1

>  <Mcule>  (386) 
0

>  <N_PAINS>  (386) 
0

>  <UFF_Gibbs>  (386) 
37.087684

>  <strain_per_HA>  (386) 
2.852899

>  <saltbridge:HIS:51>  (386) 
0

>  <pistack:HIS:51>  (386) 
0

>  <hydroph_interaction:HIS:51>  (386) 
0

>  <hbond:ALA:132>  (386) 
0

>  <hbond:SER:135>  (386) 
0

>  <hydroph_interaction:TYR:150>  (386) 
0

>  <pistack:TYR:161>  (386) 
0

>  <hydroph_interaction:TYR:161>  (386) 
2

>  <hydroph_interaction:ASP:83>  (386) 
0

>  <hbond:TYR:130>  (386) 
0

>  <hydroph_interaction:ALA:132>  (386) 
0

>  <hbond:HIS:51>  (386) 
0

>  <hbond:ASP:129>  (386) 
0

>  <hbond:TYR:150>  (386) 
0

>  <hbond:GLY:151>  (386) 
0

>  <hbond:TYR:161>  (386) 
0

>  <hydroph_interaction:TYR:130>  (386) 
0

>  <hydroph_interaction:PRO:131>  (386) 
0

>  <hydroph_interaction:ASP:129>  (386) 
0

>  <saltbridge:ASP:75>  (386) 
0

>  <saltbridge:ASP:83>  (386) 
0

>  <hydroph_interaction:ASN:152>  (386) 
0

>  <halogenbond:TYR:150>  (386) 
0

>  <hbond:ASP:83>  (386) 
0

>  <hydroph_interaction:VAL:155>  (386) 
0

>  <pication:TYR:161>  (386) 
0

>  <hbond:PRO:131>  (386) 
0

>  <hbond:LEU:128>  (386) 
0

>  <saltbridge:ASP:129>  (386) 
0

>  <hbond:THR:134>  (386) 
0

>  <pication:HIS:51>  (386) 
0

>  <hbond:SER:81>  (386) 
0

>  <hbond:GLY:159>  (386) 
0

>  <hydroph_interaction:PRO:101>  (386) 
0

>  <hydroph_interaction:THR:134>  (386) 
0

>  <hbond:GLY:82>  (386) 
0

>  <hydroph_interaction:GLU:104>  (386) 
0

>  <hydroph_interaction:VAL:36>  (386) 
0

>  <hydroph_interaction:MET:49>  (386) 
0

>  <halogenbond:GLU:104>  (386) 
0

>  <hydroph_interaction:LYS:107>  (386) 
0

$$$$
CSSS02267473081
     RDKit          3D

 30 32  0  0  0  0  0  0  0  0999 V2000
   -7.7940    4.8466  -20.6121 O   0  0  0  0  0  0  0  0  0  0  0  0
   -6.6579    5.4069  -20.0155 C   0  0  0  0  0  0  0  0  0  0  0  0
   -6.7817    5.9472  -18.7222 C   0  0  0  0  0  0  0  0  0  0  0  0
   -8.0945    5.9420  -18.0307 C   0  0  0  0  0  0  0  0  0  0  0  0
   -9.1020    6.3896  -18.6435 O   0  0  0  0  0  0  0  0  0  0  0  0
   -8.2554    5.4223  -16.6489 C   0  0  0  0  0  0  0  0  0  0  0  0
   -7.3398    4.4972  -16.1104 C   0  0  0  0  0  0  0  0  0  0  0  0
   -7.5094    4.0072  -14.8119 C   0  0  0  0  0  0  0  0  0  0  0  0
   -8.5950    4.4270  -14.0403 C   0  0  0  0  0  0  0  0  0  0  0  0
   -9.5160    5.3349  -14.5671 C   0  0  0  0  0  0  0  0  0  0  0  0
   -9.3516    5.8282  -15.8651 C   0  0  0  0  0  0  0  0  0  0  0  0
   -5.6465    6.5156  -18.1146 C   0  0  0  0  0  0  0  0  0  0  0  0
   -5.7261    7.0415  -16.9722 O   0  0  0  0  0  0  0  0  0  0  0  0
   -4.4783    6.5214  -18.7427 O   0  0  0  0  0  0  0  0  0  0  0  0
   -4.3083    6.0146  -19.9572 C   0  0  0  0  0  0  0  0  0  0  0  0
   -3.0384    6.0630  -20.5426 C   0  0  0  0  0  0  0  0  0  0  0  0
   -2.8328    5.5416  -21.8200 C   0  0  0  0  0  0  0  0  0  0  0  0
   -3.8951    4.9692  -22.5201 C   0  0  0  0  0  0  0  0  0  0  0  0
   -5.1699    4.9130  -21.9481 C   0  0  0  0  0  0  0  0  0  0  0  0
   -5.3960    5.4347  -20.6560 C   0  0  0  0  0  0  0  0  0  0  0  0
   -7.8134    4.4286  -21.5305 H   0  0  0  0  0  0  0  0  0  0  0  0
   -6.5003    4.1429  -16.6948 H   0  0  0  0  0  0  0  0  0  0  0  0
   -6.8004    3.2975  -14.4053 H   0  0  0  0  0  0  0  0  0  0  0  0
   -8.7246    4.0458  -13.0356 H   0  0  0  0  0  0  0  0  0  0  0  0
  -10.3588    5.6572  -13.9692 H   0  0  0  0  0  0  0  0  0  0  0  0
  -10.0759    6.5341  -16.2522 H   0  0  0  0  0  0  0  0  0  0  0  0
   -2.2093    6.5070  -20.0058 H   0  0  0  0  0  0  0  0  0  0  0  0
   -1.8486    5.5818  -22.2687 H   0  0  0  0  0  0  0  0  0  0  0  0
   -3.7306    4.5666  -23.5114 H   0  0  0  0  0  0  0  0  0  0  0  0
   -5.9532    4.4601  -22.5343 H   0  0  0  0  0  0  0  0  0  0  0  0
  1  2  1  0
  2  3  2  0
  3  4  1  0
  4  5  2  0
  4  6  1  0
  6  7  2  0
  7  8  1  0
  8  9  2  0
  9 10  1  0
 10 11  2  0
  3 12  1  0
 12 13  2  0
 12 14  1  0
 14 15  1  0
 15 16  2  0
 16 17  1  0
 17 18  2  0
 18 19  1  0
 19 20  2  0
 20  2  1  0
 11  6  1  0
 20 15  1  0
  1 21  1  0
  7 22  1  0
  8 23  1  0
  9 24  1  0
 10 25  1  0
 11 26  1  0
 16 27  1  0
 17 28  1  0
 18 29  1  0
 19 30  1  0
A    1
 O1 
A    2
 C1 
A    3
 C2 
A    4
 C3 
A    5
 O2 
A    6
 C4 
A    7
 C5 
A    8
 C6 
A    9
 C7 
A   10
 C8 
A   11
 C9 
A   12
 C10
A   13
 O3 
A   14
 O4 
A   15
 C11
A   16
 C12
A   17
 C13
A   18
 C14
A   19
 C15
A   20
 C16
A   21
 H1 
A   22
 H2 
A   23
 H3 
A   24
 H4 
A   25
 H5 
A   26
 H6 
A   27
 H7 
A   28
 H8 
A   29
 H9 
A   30
 H10
M  END
>  <ref_pdb>  (387) 
x0051_0B

>  <ref_mols>  (387) 
x0951_0B,x0852_0B

>  <original SMILES>  (387) 
[H]Oc1c(C(=O)c2c([H])c([H])c([H])c([H])c2[H])c(=O)oc2c([H])c([H])c([H])c([H])c12

>  <index>  (387) 
657

>  <∆∆G>  (387) 
-5.655838

>  <∆G_bound>  (387) 
-4.197354

>  <∆G_unbound>  (387) 
1.458484

>  <comRMSD>  (387) 
0.908045

>  <N_constrained_atoms>  (387) 
20.0

>  <N_unconstrained_atoms>  (387) 
3.0

>  <runtime>  (387) 
34.104878

>  <LE>  (387) 
0.245906

>  <percent_hybrid>  (387) 
22.0

>  <dist>  (387) 
12.0

>  <ecfp4>  (387) 
0.153846

>  <daylight>  (387) 
0.160772

>  <topodist>  (387) 
4.0

>  <mces>  (387) 
21.0

>  <tdn>  (387) 
2.0

>  <tup>  (387) 
0.0

>  <rdn>  (387) 
1.0

>  <rup>  (387) 
1.0

>  <ldn>  (387) 
0.0

>  <lup>  (387) 
0.0

>  <mut>  (387) 
5.0

>  <maj>  (387) 
5.0

>  <min>  (387) 
0.0

>  <hyb>  (387) 
3.0

>  <sub>  (387) 
3.0

>  <query_index>  (387) 
206.0

>  <max_hit_Tanimoto>  (387) 
0.244737

>  <largest_ring>  (387) 
6

>  <N_interactions_kept>  (387) 
4.0

>  <N_interactions_lost>  (387) 
2.0

>  <interaction_uniqueness_metric>  (387) 
0.099337

>  <ad_hoc_penalty>  (387) 
-19.64891

>  <N_rotatable_bonds>  (387) 
3

>  <N_HA>  (387) 
20

>  <cluster>  (387) 
5617

>  <N_interactions>  (387) 
6

>  <Enamine>  (387) 
1

>  <Mcule>  (387) 
0

>  <N_PAINS>  (387) 
0

>  <UFF_Gibbs>  (387) 
70.151828

>  <strain_per_HA>  (387) 
3.050079

>  <saltbridge:HIS:51>  (387) 
0

>  <pistack:HIS:51>  (387) 
0

>  <hydroph_interaction:HIS:51>  (387) 
0

>  <hbond:ALA:132>  (387) 
0

>  <hbond:SER:135>  (387) 
0

>  <hydroph_interaction:TYR:150>  (387) 
0

>  <pistack:TYR:161>  (387) 
0

>  <hydroph_interaction:TYR:161>  (387) 
3

>  <hydroph_interaction:ASP:83>  (387) 
0

>  <hbond:TYR:130>  (387) 
1

>  <hydroph_interaction:ALA:132>  (387) 
1

>  <hbond:HIS:51>  (387) 
0

>  <hbond:ASP:129>  (387) 
0

>  <hbond:TYR:150>  (387) 
0

>  <hbond:GLY:151>  (387) 
0

>  <hbond:TYR:161>  (387) 
0

>  <hydroph_interaction:TYR:130>  (387) 
0

>  <hydroph_interaction:PRO:131>  (387) 
0

>  <hydroph_interaction:ASP:129>  (387) 
1

>  <saltbridge:ASP:75>  (387) 
0

>  <saltbridge:ASP:83>  (387) 
0

>  <hydroph_interaction:ASN:152>  (387) 
0

>  <halogenbond:TYR:150>  (387) 
0

>  <hbond:ASP:83>  (387) 
0

>  <hydroph_interaction:VAL:155>  (387) 
0

>  <pication:TYR:161>  (387) 
0

>  <hbond:PRO:131>  (387) 
0

>  <hbond:LEU:128>  (387) 
0

>  <saltbridge:ASP:129>  (387) 
0

>  <hbond:THR:134>  (387) 
0

>  <pication:HIS:51>  (387) 
0

>  <hbond:SER:81>  (387) 
0

>  <hbond:GLY:159>  (387) 
0

>  <hydroph_interaction:PRO:101>  (387) 
0

>  <hydroph_interaction:THR:134>  (387) 
0

>  <hbond:GLY:82>  (387) 
0

>  <hydroph_interaction:GLU:104>  (387) 
0

>  <hydroph_interaction:VAL:36>  (387) 
0

>  <hydroph_interaction:MET:49>  (387) 
0

>  <halogenbond:GLU:104>  (387) 
0

>  <hydroph_interaction:LYS:107>  (387) 
0

$$$$
PV-006188596149
     RDKit          3D

 25 25  0  0  0  0  0  0  0  0999 V2000
  -11.0550    5.0683  -18.4751 C   0  0  0  0  0  0  0  0  0  0  0  0
   -9.6486    5.0540  -17.9515 C   0  0  0  0  0  0  0  0  0  0  0  0
   -9.4075    4.8350  -16.5928 C   0  0  0  0  0  0  0  0  0  0  0  0
   -8.1017    4.8610  -16.0792 C   0  0  0  0  0  0  0  0  0  0  0  0
   -7.9047    4.6182  -14.6040 C   0  0  0  0  0  0  0  0  0  0  0  0
   -7.0053    5.0824  -16.9549 C   0  0  0  0  0  0  0  0  0  0  0  0
   -5.5851    5.0306  -16.4319 C   0  0  0  0  0  0  0  0  0  0  0  0
   -7.2603    5.3764  -18.3226 C   0  0  0  0  0  0  0  0  0  0  0  0
   -6.1798    5.7490  -19.2683 C   0  0  0  0  0  0  0  0  0  0  0  0
   -6.1749    5.2458  -20.6058 N   0  0  0  0  0  0  0  0  0  0  0  0
   -5.2665    6.5378  -18.9052 O   0  0  0  0  0  0  0  0  0  0  0  0
   -8.5798    5.3495  -18.8019 C   0  0  0  0  0  0  0  0  0  0  0  0
  -11.0804    4.7527  -19.5399 H   0  0  0  0  0  0  0  0  0  0  0  0
  -11.6964    4.3698  -17.8964 H   0  0  0  0  0  0  0  0  0  0  0  0
  -11.4697    6.0945  -18.3915 H   0  0  0  0  0  0  0  0  0  0  0  0
  -10.2448    4.6464  -15.9307 H   0  0  0  0  0  0  0  0  0  0  0  0
   -8.8610    4.7006  -14.0446 H   0  0  0  0  0  0  0  0  0  0  0  0
   -7.2085    5.3720  -14.1797 H   0  0  0  0  0  0  0  0  0  0  0  0
   -7.4948    3.5990  -14.4443 H   0  0  0  0  0  0  0  0  0  0  0  0
   -5.4859    4.3413  -15.5694 H   0  0  0  0  0  0  0  0  0  0  0  0
   -4.8895    4.6409  -17.2038 H   0  0  0  0  0  0  0  0  0  0  0  0
   -5.2646    6.0472  -16.1226 H   0  0  0  0  0  0  0  0  0  0  0  0
   -5.4330    5.5457  -21.2764 H   0  0  0  0  0  0  0  0  0  0  0  0
   -6.8774    4.5398  -20.9190 H   0  0  0  0  0  0  0  0  0  0  0  0
   -8.7829    5.5844  -19.8404 H   0  0  0  0  0  0  0  0  0  0  0  0
  1  2  1  0
  2  3  2  0
  3  4  1  0
  4  5  1  0
  4  6  2  0
  6  7  1  0
  6  8  1  0
  8  9  1  0
  9 10  1  0
  9 11  2  0
  8 12  2  0
 12  2  1  0
  1 13  1  0
  1 14  1  0
  1 15  1  0
  3 16  1  0
  5 17  1  0
  5 18  1  0
  5 19  1  0
  7 20  1  0
  7 21  1  0
  7 22  1  0
 10 23  1  0
 10 24  1  0
 12 25  1  0
A    1
 C1 
A    2
 C2 
A    3
 C3 
A    4
 C4 
A    5
 C5 
A    6
 C6 
A    7
 C7 
A    8
 C8 
A    9
 C9 
A   10
 N1 
A   11
 O1 
A   12
 C10
A   13
 H1 
A   14
 H2 
A   15
 H3 
A   16
 H4 
A   17
 H5 
A   18
 H6 
A   19
 H7 
A   20
 H8 
A   21
 H9 
A   22
 H10
A   23
 H11
A   24
 H12
A   25
 H13
M  END
>  <ref_pdb>  (388) 
x0051_0B

>  <ref_mols>  (388) 
x0435_0B,x0605_0B

>  <original SMILES>  (388) 
[H]c1c(C(=O)N([H])[H])c(C([H])([H])[H])c(C([H])([H])[H])c([H])c1C([H])([H])[H]

>  <index>  (388) 
548

>  <∆∆G>  (388) 
-7.574697

>  <∆G_bound>  (388) 
-7.509368

>  <∆G_unbound>  (388) 
0.065328

>  <comRMSD>  (388) 
0.773788

>  <N_constrained_atoms>  (388) 
12.0

>  <N_unconstrained_atoms>  (388) 
1.0

>  <runtime>  (388) 
22.54303

>  <LE>  (388) 
0.582669

>  <percent_hybrid>  (388) 
40.0

>  <dist>  (388) 
4.0

>  <ecfp4>  (388) 
0.081633

>  <daylight>  (388) 
0.132743

>  <topodist>  (388) 
1.0

>  <mces>  (388) 
12.0

>  <tdn>  (388) 
0.0

>  <tup>  (388) 
0.0

>  <rdn>  (388) 
1.0

>  <rup>  (388) 
0.0

>  <ldn>  (388) 
0.0

>  <lup>  (388) 
0.0

>  <mut>  (388) 
3.0

>  <maj>  (388) 
3.0

>  <min>  (388) 
0.0

>  <hyb>  (388) 
0.0

>  <sub>  (388) 
0.0

>  <query_index>  (388) 
211.0

>  <max_hit_Tanimoto>  (388) 
0.101333

>  <largest_ring>  (388) 
6

>  <N_interactions_kept>  (388) 
2.0

>  <N_interactions_lost>  (388) 
1.5

>  <interaction_uniqueness_metric>  (388) 
0.05615

>  <ad_hoc_penalty>  (388) 
-19.635132

>  <N_rotatable_bonds>  (388) 
4

>  <N_HA>  (388) 
12

>  <cluster>  (388) 
5717

>  <N_interactions>  (388) 
5

>  <Enamine>  (388) 
1

>  <Mcule>  (388) 
0

>  <N_PAINS>  (388) 
0

>  <UFF_Gibbs>  (388) 
54.772788

>  <strain_per_HA>  (388) 
4.213291

>  <saltbridge:HIS:51>  (388) 
0

>  <pistack:HIS:51>  (388) 
0

>  <hydroph_interaction:HIS:51>  (388) 
0

>  <hbond:ALA:132>  (388) 
0

>  <hbond:SER:135>  (388) 
0

>  <hydroph_interaction:TYR:150>  (388) 
1

>  <pistack:TYR:161>  (388) 
0

>  <hydroph_interaction:TYR:161>  (388) 
3

>  <hydroph_interaction:ASP:83>  (388) 
0

>  <hbond:TYR:130>  (388) 
1

>  <hydroph_interaction:ALA:132>  (388) 
0

>  <hbond:HIS:51>  (388) 
0

>  <hbond:ASP:129>  (388) 
0

>  <hbond:TYR:150>  (388) 
0

>  <hbond:GLY:151>  (388) 
0

>  <hbond:TYR:161>  (388) 
0

>  <hydroph_interaction:TYR:130>  (388) 
0

>  <hydroph_interaction:PRO:131>  (388) 
0

>  <hydroph_interaction:ASP:129>  (388) 
0

>  <saltbridge:ASP:75>  (388) 
0

>  <saltbridge:ASP:83>  (388) 
0

>  <hydroph_interaction:ASN:152>  (388) 
0

>  <halogenbond:TYR:150>  (388) 
0

>  <hbond:ASP:83>  (388) 
0

>  <hydroph_interaction:VAL:155>  (388) 
0

>  <pication:TYR:161>  (388) 
0

>  <hbond:PRO:131>  (388) 
0

>  <hbond:LEU:128>  (388) 
0

>  <saltbridge:ASP:129>  (388) 
0

>  <hbond:THR:134>  (388) 
0

>  <pication:HIS:51>  (388) 
0

>  <hbond:SER:81>  (388) 
0

>  <hbond:GLY:159>  (388) 
0

>  <hydroph_interaction:PRO:101>  (388) 
0

>  <hydroph_interaction:THR:134>  (388) 
0

>  <hbond:GLY:82>  (388) 
0

>  <hydroph_interaction:GLU:104>  (388) 
0

>  <hydroph_interaction:VAL:36>  (388) 
0

>  <hydroph_interaction:MET:49>  (388) 
0

>  <halogenbond:GLU:104>  (388) 
0

>  <hydroph_interaction:LYS:107>  (388) 
0

$$$$
PV-002221382693
     RDKit          3D

 50 54  0  0  0  0  0  0  0  0999 V2000
  -11.1046    5.7224  -29.3739 C   0  0  0  0  0  0  0  0  0  0  0  0
  -10.4293    6.6925  -28.4518 C   0  0  0  0  0  0  0  0  0  0  0  0
   -9.0263    6.8083  -28.4412 C   0  0  0  0  0  0  0  0  0  0  0  0
   -8.4645    7.7265  -27.6153 N   0  0  0  0  0  0  0  0  0  0  0  0
   -7.1748    8.0271  -27.4143 C   0  0  0  0  0  0  0  0  0  0  0  0
   -7.1451    9.0375  -26.4662 C   0  0  0  0  0  0  0  0  0  0  0  0
   -5.9128    9.7064  -25.9420 C   0  0  0  0  0  0  0  0  0  0  0  0
   -5.9573    9.7921  -24.5179 O   0  0  0  0  0  0  0  0  0  0  0  0
   -5.8513    8.7029  -23.6372 C   0  0  0  0  0  0  0  0  0  0  0  0
   -6.0105    8.9416  -22.2682 C   0  0  0  0  0  0  0  0  0  0  0  0
   -5.9232    7.8936  -21.3479 C   0  0  0  0  0  0  0  0  0  0  0  0
   -5.6779    6.5809  -21.7851 C   0  0  0  0  0  0  0  0  0  0  0  0
   -5.5735    5.4692  -20.8120 C   0  0  0  0  0  0  0  0  0  0  0  0
   -4.9119    4.4381  -21.1129 O   0  0  0  0  0  0  0  0  0  0  0  0
   -6.1989    5.5530  -19.5207 N   0  0  0  0  0  0  0  0  0  0  0  0
   -5.4853    5.0377  -18.3413 C   0  0  0  0  0  0  0  0  0  0  0  0
   -5.7664    5.9267  -17.1213 C   0  0  0  0  0  0  0  0  0  0  0  0
   -7.1897    6.2400  -17.0426 N   0  0  0  0  0  0  0  0  0  0  0  0
   -7.8092    6.6854  -15.9621 N   0  0  0  0  0  0  0  0  0  0  0  0
   -9.0908    6.9313  -16.3101 C   0  0  0  0  0  0  0  0  0  0  0  0
   -9.2781    6.6472  -17.6536 C   0  0  0  0  0  0  0  0  0  0  0  0
   -8.0386    6.2265  -18.0815 C   0  0  0  0  0  0  0  0  0  0  0  0
   -7.6564    5.7448  -19.4450 C   0  0  0  0  0  0  0  0  0  0  0  0
   -5.5002    6.3425  -23.1580 C   0  0  0  0  0  0  0  0  0  0  0  0
   -5.5895    7.3916  -24.0778 C   0  0  0  0  0  0  0  0  0  0  0  0
   -8.4024    9.3747  -26.0876 N   0  0  0  0  0  0  0  0  0  0  0  0
   -9.1724    8.5412  -26.8161 C   0  0  0  0  0  0  0  0  0  0  0  0
  -10.5632    8.4867  -26.7932 C   0  0  0  0  0  0  0  0  0  0  0  0
  -11.1940    7.5513  -27.6294 C   0  0  0  0  0  0  0  0  0  0  0  0
  -12.0648    5.3734  -28.9377 H   0  0  0  0  0  0  0  0  0  0  0  0
  -10.4608    4.8337  -29.5472 H   0  0  0  0  0  0  0  0  0  0  0  0
  -11.3076    6.2179  -30.3462 H   0  0  0  0  0  0  0  0  0  0  0  0
   -8.4063    6.1828  -29.0730 H   0  0  0  0  0  0  0  0  0  0  0  0
   -6.3332    7.5570  -27.9075 H   0  0  0  0  0  0  0  0  0  0  0  0
   -5.8704   10.7345  -26.3572 H   0  0  0  0  0  0  0  0  0  0  0  0
   -4.9938    9.1732  -26.2678 H   0  0  0  0  0  0  0  0  0  0  0  0
   -6.2033    9.9468  -21.9150 H   0  0  0  0  0  0  0  0  0  0  0  0
   -6.0370    8.1126  -20.2934 H   0  0  0  0  0  0  0  0  0  0  0  0
   -5.8258    3.9999  -18.1336 H   0  0  0  0  0  0  0  0  0  0  0  0
   -4.3881    5.0165  -18.5224 H   0  0  0  0  0  0  0  0  0  0  0  0
   -5.1936    6.8742  -17.2159 H   0  0  0  0  0  0  0  0  0  0  0  0
   -5.4425    5.4049  -16.1953 H   0  0  0  0  0  0  0  0  0  0  0  0
   -9.8458    7.2987  -15.6278 H   0  0  0  0  0  0  0  0  0  0  0  0
  -10.1888    6.7348  -18.2313 H   0  0  0  0  0  0  0  0  0  0  0  0
   -7.9990    6.4850  -20.1979 H   0  0  0  0  0  0  0  0  0  0  0  0
   -8.1640    4.7771  -19.6438 H   0  0  0  0  0  0  0  0  0  0  0  0
   -5.3021    5.3418  -23.5222 H   0  0  0  0  0  0  0  0  0  0  0  0
   -5.4507    7.1697  -25.1262 H   0  0  0  0  0  0  0  0  0  0  0  0
  -11.1402    9.1451  -26.1566 H   0  0  0  0  0  0  0  0  0  0  0  0
  -12.2753    7.4946  -27.6376 H   0  0  0  0  0  0  0  0  0  0  0  0
  1  2  1  0
  2  3  2  0
  3  4  1  0
  4  5  1  0
  5  6  2  0
  6  7  1  0
  7  8  1  0
  8  9  1  0
  9 10  2  0
 10 11  1  0
 11 12  2  0
 12 13  1  0
 13 14  2  0
 13 15  1  0
 15 16  1  0
 16 17  1  0
 17 18  1  0
 18 19  1  0
 19 20  2  0
 20 21  1  0
 21 22  2  0
 22 23  1  0
 12 24  1  0
 24 25  2  0
  6 26  1  0
 26 27  2  0
 27 28  1  0
 28 29  2  0
 29  2  1  0
 27  4  1  0
 25  9  1  0
 23 15  1  0
 22 18  1  0
  1 30  1  0
  1 31  1  0
  1 32  1  0
  3 33  1  0
  5 34  1  0
  7 35  1  0
  7 36  1  0
 10 37  1  0
 11 38  1  0
 16 39  1  0
 16 40  1  0
 17 41  1  0
 17 42  1  0
 20 43  1  0
 21 44  1  0
 23 45  1  0
 23 46  1  0
 24 47  1  0
 25 48  1  0
 28 49  1  0
 29 50  1  0
A    1
 C1 
A    2
 C2 
A    3
 C3 
A    4
 N1 
A    5
 C4 
A    6
 C5 
A    7
 C6 
A    8
 O1 
A    9
 C7 
A   10
 C8 
A   11
 C9 
A   12
 C10
A   13
 C11
A   14
 O2 
A   15
 N2 
A   16
 C12
A   17
 C13
A   18
 N3 
A   19
 N4 
A   20
 C14
A   21
 C15
A   22
 C16
A   23
 C17
A   24
 C18
A   25
 C19
A   26
 N5 
A   27
 C20
A   28
 C21
A   29
 C22
A   30
 H1 
A   31
 H2 
A   32
 H3 
A   33
 H4 
A   34
 H5 
A   35
 H6 
A   36
 H7 
A   37
 H8 
A   38
 H9 
A   39
 H10
A   40
 H11
A   41
 H12
A   42
 H13
A   43
 H14
A   44
 H15
A   45
 H16
A   46
 H17
A   47
 H18
A   48
 H19
A   49
 H20
A   50
 H21
M  END
>  <ref_pdb>  (389) 
x0051_0B

>  <ref_mols>  (389) 
x0846_1B,x0969_0B

>  <original SMILES>  (389) 
[H]c1nn2c(c1[H])C([H])([H])N(C(=O)c1c([H])c([H])c(OC([H])([H])c3nc4c([H])c([H])c(C([H])([H])[H])c([H])n4c3[H])c([H])c1[H])C([H])([H])C2([H])[H]

>  <index>  (389) 
735

>  <∆∆G>  (389) 
-8.455667

>  <∆G_bound>  (389) 
-8.263444

>  <∆G_unbound>  (389) 
0.192223

>  <comRMSD>  (389) 
0.759745

>  <N_constrained_atoms>  (389) 
28.0

>  <N_unconstrained_atoms>  (389) 
4.0

>  <runtime>  (389) 
50.654006

>  <LE>  (389) 
0.26424

>  <percent_hybrid>  (389) 
36.0

>  <dist>  (389) 
9.0

>  <ecfp4>  (389) 
0.174757

>  <daylight>  (389) 
0.449541

>  <topodist>  (389) 
4.0

>  <mces>  (389) 
31.0

>  <tdn>  (389) 
2.0

>  <tup>  (389) 
2.0

>  <rdn>  (389) 
0.0

>  <rup>  (389) 
0.0

>  <ldn>  (389) 
0.0

>  <lup>  (389) 
0.0

>  <mut>  (389) 
5.0

>  <maj>  (389) 
5.0

>  <min>  (389) 
0.0

>  <hyb>  (389) 
0.0

>  <sub>  (389) 
3.0

>  <query_index>  (389) 
45.0

>  <max_hit_Tanimoto>  (389) 
0.362976

>  <largest_ring>  (389) 
6

>  <N_interactions_kept>  (389) 
0.5

>  <N_interactions_lost>  (389) 
2.0

>  <interaction_uniqueness_metric>  (389) 
0.176201

>  <ad_hoc_penalty>  (389) 
-19.634031

>  <N_rotatable_bonds>  (389) 
5

>  <N_HA>  (389) 
29

>  <cluster>  (389) 
5546

>  <N_interactions>  (389) 
5

>  <Enamine>  (389) 
1

>  <Mcule>  (389) 
0

>  <N_PAINS>  (389) 
0

>  <UFF_Gibbs>  (389) 
103.03864

>  <strain_per_HA>  (389) 
3.219957

>  <saltbridge:HIS:51>  (389) 
0

>  <pistack:HIS:51>  (389) 
0

>  <hydroph_interaction:HIS:51>  (389) 
0

>  <hbond:ALA:132>  (389) 
0

>  <hbond:SER:135>  (389) 
0

>  <hydroph_interaction:TYR:150>  (389) 
0

>  <pistack:TYR:161>  (389) 
1

>  <hydroph_interaction:TYR:161>  (389) 
0

>  <hydroph_interaction:ASP:83>  (389) 
0

>  <hbond:TYR:130>  (389) 
0

>  <hydroph_interaction:ALA:132>  (389) 
0

>  <hbond:HIS:51>  (389) 
0

>  <hbond:ASP:129>  (389) 
0

>  <hbond:TYR:150>  (389) 
0

>  <hbond:GLY:151>  (389) 
0

>  <hbond:TYR:161>  (389) 
0

>  <hydroph_interaction:TYR:130>  (389) 
2

>  <hydroph_interaction:PRO:131>  (389) 
1

>  <hydroph_interaction:ASP:129>  (389) 
1

>  <saltbridge:ASP:75>  (389) 
0

>  <saltbridge:ASP:83>  (389) 
0

>  <hydroph_interaction:ASN:152>  (389) 
0

>  <halogenbond:TYR:150>  (389) 
0

>  <hbond:ASP:83>  (389) 
0

>  <hydroph_interaction:VAL:155>  (389) 
0

>  <pication:TYR:161>  (389) 
0

>  <hbond:PRO:131>  (389) 
0

>  <hbond:LEU:128>  (389) 
0

>  <saltbridge:ASP:129>  (389) 
0

>  <hbond:THR:134>  (389) 
0

>  <pication:HIS:51>  (389) 
0

>  <hbond:SER:81>  (389) 
0

>  <hbond:GLY:159>  (389) 
0

>  <hydroph_interaction:PRO:101>  (389) 
0

>  <hydroph_interaction:THR:134>  (389) 
0

>  <hbond:GLY:82>  (389) 
0

>  <hydroph_interaction:GLU:104>  (389) 
0

>  <hydroph_interaction:VAL:36>  (389) 
0

>  <hydroph_interaction:MET:49>  (389) 
0

>  <halogenbond:GLU:104>  (389) 
0

>  <hydroph_interaction:LYS:107>  (389) 
0

$$$$
MCULE-6426400558
     RDKit          3D

 50 54  0  0  0  0  0  0  0  0999 V2000
   -6.4934   10.0335  -23.6402 F   0  0  0  0  0  0  0  0  0  0  0  0
   -6.5554    8.7934  -23.0926 C   0  0  0  0  0  0  0  0  0  0  0  0
   -6.1440    8.6118  -21.7685 C   0  0  0  0  0  0  0  0  0  0  0  0
   -6.1875    7.3392  -21.1753 C   0  0  0  0  0  0  0  0  0  0  0  0
   -5.7410    7.1437  -19.7738 C   0  0  0  0  0  0  0  0  0  0  0  0
   -6.4824    6.3320  -18.8948 C   0  0  0  0  0  0  0  0  0  0  0  0
   -6.0526    6.1240  -17.5708 C   0  0  0  0  0  0  0  0  0  0  0  0
   -6.8258    5.2703  -16.6373 C   0  0  0  0  0  0  0  0  0  0  0  0
   -8.0996    4.8753  -16.8224 N   0  0  0  0  0  0  0  0  0  0  0  0
   -8.4514    4.1425  -15.7831 N   0  0  0  0  0  0  0  0  0  0  0  0
   -7.3744    4.1011  -14.9767 C   0  0  0  0  0  0  0  0  0  0  0  0
   -6.3315    4.7999  -15.4739 N   0  0  0  0  0  0  0  0  0  0  0  0
   -4.8625    6.7325  -17.1380 C   0  0  0  0  0  0  0  0  0  0  0  0
   -4.1250    7.5418  -18.0043 C   0  0  0  0  0  0  0  0  0  0  0  0
   -4.5612    7.7502  -19.3135 C   0  0  0  0  0  0  0  0  0  0  0  0
   -6.6442    6.2492  -21.9348 C   0  0  0  0  0  0  0  0  0  0  0  0
   -7.0492    6.4254  -23.2610 C   0  0  0  0  0  0  0  0  0  0  0  0
   -7.4592    5.3459  -23.9731 F   0  0  0  0  0  0  0  0  0  0  0  0
   -7.0230    7.7034  -23.8469 C   0  0  0  0  0  0  0  0  0  0  0  0
   -7.4202    7.8974  -25.2868 C   0  0  0  0  0  0  0  0  0  0  0  0
   -6.2084    7.9192  -26.1255 N   0  0  0  0  0  0  0  0  0  0  0  0
   -6.4059    8.4217  -27.5028 C   0  0  0  0  0  0  0  0  0  0  0  0
   -7.4773    7.6305  -28.2968 C   0  0  0  0  0  0  0  0  0  0  0  0
   -8.5877    8.6017  -28.4375 C   0  0  0  0  0  0  0  0  0  0  0  0
   -9.8593    8.3481  -28.9564 C   0  0  0  0  0  0  0  0  0  0  0  0
  -10.7771    9.4068  -29.0404 C   0  0  0  0  0  0  0  0  0  0  0  0
  -10.4100   10.6966  -28.6145 C   0  0  0  0  0  0  0  0  0  0  0  0
   -9.1247   10.9311  -28.1021 C   0  0  0  0  0  0  0  0  0  0  0  0
   -8.2288    9.8620  -28.0209 C   0  0  0  0  0  0  0  0  0  0  0  0
   -6.8309    9.9109  -27.5291 C   0  0  0  0  0  0  0  0  0  0  0  0
   -5.8005    9.4686  -21.2031 H   0  0  0  0  0  0  0  0  0  0  0  0
   -7.3901    5.8641  -19.2514 H   0  0  0  0  0  0  0  0  0  0  0  0
   -8.7358    5.1048  -17.6173 H   0  0  0  0  0  0  0  0  0  0  0  0
   -7.3481    3.5698  -14.0353 H   0  0  0  0  0  0  0  0  0  0  0  0
   -4.5030    6.5878  -16.1263 H   0  0  0  0  0  0  0  0  0  0  0  0
   -3.2055    8.0004  -17.6612 H   0  0  0  0  0  0  0  0  0  0  0  0
   -3.9626    8.3646  -19.9743 H   0  0  0  0  0  0  0  0  0  0  0  0
   -6.6643    5.2540  -21.5088 H   0  0  0  0  0  0  0  0  0  0  0  0
   -8.1059    7.0839  -25.6038 H   0  0  0  0  0  0  0  0  0  0  0  0
   -7.9923    8.8439  -25.3704 H   0  0  0  0  0  0  0  0  0  0  0  0
   -5.8354    6.9423  -26.1862 H   0  0  0  0  0  0  0  0  0  0  0  0
   -5.4329    8.3311  -28.0368 H   0  0  0  0  0  0  0  0  0  0  0  0
   -7.0924    7.3737  -29.3075 H   0  0  0  0  0  0  0  0  0  0  0  0
   -7.8072    6.6991  -27.7930 H   0  0  0  0  0  0  0  0  0  0  0  0
  -10.1318    7.3548  -29.2875 H   0  0  0  0  0  0  0  0  0  0  0  0
  -11.7681    9.2308  -29.4371 H   0  0  0  0  0  0  0  0  0  0  0  0
  -11.1193   11.5109  -28.6851 H   0  0  0  0  0  0  0  0  0  0  0  0
   -8.8342   11.9216  -27.7763 H   0  0  0  0  0  0  0  0  0  0  0  0
   -6.7652   10.3991  -26.5337 H   0  0  0  0  0  0  0  0  0  0  0  0
   -6.2087   10.4785  -28.2540 H   0  0  0  0  0  0  0  0  0  0  0  0
  1  2  1  0
  2  3  2  0
  3  4  1  0
  4  5  1  0
  5  6  2  0
  6  7  1  0
  7  8  1  0
  8  9  1  0
  9 10  1  0
 10 11  2  0
 11 12  1  0
  7 13  2  0
 13 14  1  0
 14 15  2  0
  4 16  2  0
 16 17  1  0
 17 18  1  0
 17 19  2  0
 19 20  1  0
 20 21  1  0
 21 22  1  0
 22 23  1  0
 23 24  1  0
 24 25  2  0
 25 26  1  0
 26 27  2  0
 27 28  1  0
 28 29  2  0
 29 30  1  0
  2 19  1  0
  5 15  1  0
  8 12  2  0
 30 22  1  0
 24 29  1  0
  3 31  1  0
  6 32  1  0
  9 33  1  0
 11 34  1  0
 13 35  1  0
 14 36  1  0
 15 37  1  0
 16 38  1  0
 20 39  1  0
 20 40  1  0
 21 41  1  0
 22 42  1  0
 23 43  1  0
 23 44  1  0
 25 45  1  0
 26 46  1  0
 27 47  1  0
 28 48  1  0
 30 49  1  0
 30 50  1  0
A    1
 F1 
A    2
 C1 
A    3
 C2 
A    4
 C3 
A    5
 C4 
A    6
 C5 
A    7
 C6 
A    8
 C7 
A    9
 N1 
A   10
 N2 
A   11
 C8 
A   12
 N3 
A   13
 C9 
A   14
 C10
A   15
 C11
A   16
 C12
A   17
 C13
A   18
 F2 
A   19
 C14
A   20
 C15
A   21
 N4 
A   22
 C16
A   23
 C17
A   24
 C18
A   25
 C19
A   26
 C20
A   27
 C21
A   28
 C22
A   29
 C23
A   30
 C24
A   31
 H1 
A   32
 H2 
A   33
 H3 
A   34
 H4 
A   35
 H5 
A   36
 H6 
A   37
 H7 
A   38
 H8 
A   39
 H9 
A   40
 H10
A   41
 H11
A   42
 H12
A   43
 H13
A   44
 H14
A   45
 H15
A   46
 H16
A   47
 H17
A   48
 H18
A   49
 H19
A   50
 H20
M  END
>  <ref_pdb>  (390) 
x0051_0B

>  <ref_mols>  (390) 
x0846_1B,x0680_0B

>  <original SMILES>  (390) 
[H]c1nc(-c2c([H])c([H])c([H])c(-c3c([H])c(F)c(C([H])([H])N([H])C4([H])C([H])([H])c5c([H])c([H])c([H])c([H])c5C4([H])[H])c(F)c3[H])c2[H])n([H])n1

>  <index>  (390) 
570

>  <∆∆G>  (390) 
-7.444421

>  <∆G_bound>  (390) 
-6.773771

>  <∆G_unbound>  (390) 
0.67065

>  <comRMSD>  (390) 
0.768579

>  <N_constrained_atoms>  (390) 
29.0

>  <N_unconstrained_atoms>  (390) 
3.0

>  <runtime>  (390) 
47.55151

>  <LE>  (390) 
0.232638

>  <percent_hybrid>  (390) 
38.0

>  <dist>  (390) 
12.0

>  <ecfp4>  (390) 
0.117021

>  <daylight>  (390) 
0.159363

>  <topodist>  (390) 
7.0

>  <mces>  (390) 
30.0

>  <tdn>  (390) 
2.0

>  <tup>  (390) 
1.0

>  <rdn>  (390) 
0.0

>  <rup>  (390) 
1.0

>  <ldn>  (390) 
1.0

>  <lup>  (390) 
2.0

>  <mut>  (390) 
4.0

>  <maj>  (390) 
4.0

>  <min>  (390) 
0.0

>  <hyb>  (390) 
1.0

>  <sub>  (390) 
3.0

>  <query_index>  (390) 
100.0

>  <max_hit_Tanimoto>  (390) 
0.192632

>  <largest_ring>  (390) 
6

>  <N_interactions_kept>  (390) 
2.5

>  <N_interactions_lost>  (390) 
1.5

>  <interaction_uniqueness_metric>  (390) 
0.121403

>  <ad_hoc_penalty>  (390) 
-19.591694

>  <N_rotatable_bonds>  (390) 
5

>  <N_HA>  (390) 
30

>  <cluster>  (390) 
5696

>  <N_interactions>  (390) 
5

>  <Enamine>  (390) 
0

>  <Mcule>  (390) 
1

>  <N_PAINS>  (390) 
0

>  <UFF_Gibbs>  (390) 
149.1922

>  <strain_per_HA>  (390) 
4.662256

>  <saltbridge:HIS:51>  (390) 
0

>  <pistack:HIS:51>  (390) 
0

>  <hydroph_interaction:HIS:51>  (390) 
0

>  <hbond:ALA:132>  (390) 
0

>  <hbond:SER:135>  (390) 
0

>  <hydroph_interaction:TYR:150>  (390) 
0

>  <pistack:TYR:161>  (390) 
0

>  <hydroph_interaction:TYR:161>  (390) 
3

>  <hydroph_interaction:ASP:83>  (390) 
0

>  <hbond:TYR:130>  (390) 
0

>  <hydroph_interaction:ALA:132>  (390) 
0

>  <hbond:HIS:51>  (390) 
0

>  <hbond:ASP:129>  (390) 
0

>  <hbond:TYR:150>  (390) 
0

>  <hbond:GLY:151>  (390) 
0

>  <hbond:TYR:161>  (390) 
0

>  <hydroph_interaction:TYR:130>  (390) 
1

>  <hydroph_interaction:PRO:131>  (390) 
1

>  <hydroph_interaction:ASP:129>  (390) 
0

>  <saltbridge:ASP:75>  (390) 
0

>  <saltbridge:ASP:83>  (390) 
0

>  <hydroph_interaction:ASN:152>  (390) 
0

>  <halogenbond:TYR:150>  (390) 
0

>  <hbond:ASP:83>  (390) 
0

>  <hydroph_interaction:VAL:155>  (390) 
0

>  <pication:TYR:161>  (390) 
0

>  <hbond:PRO:131>  (390) 
0

>  <hbond:LEU:128>  (390) 
0

>  <saltbridge:ASP:129>  (390) 
0

>  <hbond:THR:134>  (390) 
0

>  <pication:HIS:51>  (390) 
0

>  <hbond:SER:81>  (390) 
0

>  <hbond:GLY:159>  (390) 
0

>  <hydroph_interaction:PRO:101>  (390) 
0

>  <hydroph_interaction:THR:134>  (390) 
0

>  <hbond:GLY:82>  (390) 
0

>  <hydroph_interaction:GLU:104>  (390) 
0

>  <hydroph_interaction:VAL:36>  (390) 
0

>  <hydroph_interaction:MET:49>  (390) 
0

>  <halogenbond:GLU:104>  (390) 
0

>  <hydroph_interaction:LYS:107>  (390) 
0

$$$$
CSSB00132890764
     RDKit          3D

 42 46  0  0  0  0  0  0  0  0999 V2000
   -4.9804    8.6520  -19.6330 O   0  0  0  0  0  0  0  0  0  0  0  0
   -4.0914    7.9850  -20.2320 C   0  0  0  0  0  0  0  0  0  0  0  0
   -4.2609    7.6243  -21.5816 O   0  0  0  0  0  0  0  0  0  0  0  0
   -5.3806    7.9729  -22.3569 C   0  0  0  0  0  0  0  0  0  0  0  0
   -5.9760    9.2466  -22.2806 C   0  0  0  0  0  0  0  0  0  0  0  0
   -7.1802    9.5037  -22.9437 C   0  0  0  0  0  0  0  0  0  0  0  0
   -7.8015    8.4925  -23.6968 C   0  0  0  0  0  0  0  0  0  0  0  0
   -7.1502    7.2450  -23.8427 C   0  0  0  0  0  0  0  0  0  0  0  0
   -7.7149    6.2768  -24.5585 O   0  0  0  0  0  0  0  0  0  0  0  0
   -8.9088    6.4026  -25.1201 C   0  0  0  0  0  0  0  0  0  0  0  0
   -9.6479    7.5840  -24.9777 C   0  0  0  0  0  0  0  0  0  0  0  0
  -11.0659    7.5986  -25.4043 C   0  0  0  0  0  0  0  0  0  0  0  0
  -11.4790    7.1688  -26.6244 N   0  0  0  0  0  0  0  0  0  0  0  0
  -12.8297    7.0640  -26.6745 C   0  0  0  0  0  0  0  0  0  0  0  0
  -13.5458    6.5886  -27.7771 C   0  0  0  0  0  0  0  0  0  0  0  0
  -14.9348    6.4234  -27.6576 C   0  0  0  0  0  0  0  0  0  0  0  0
  -15.5859    6.7239  -26.4468 C   0  0  0  0  0  0  0  0  0  0  0  0
  -14.8567    7.2070  -25.3482 C   0  0  0  0  0  0  0  0  0  0  0  0
  -13.4854    7.3735  -25.4957 C   0  0  0  0  0  0  0  0  0  0  0  0
  -12.3584    7.8389  -24.3417 S   0  0  0  0  0  0  0  0  0  0  0  0
   -9.0725    8.6563  -24.2733 C   0  0  0  0  0  0  0  0  0  0  0  0
   -9.6992    9.7514  -24.1590 O   0  0  0  0  0  0  0  0  0  0  0  0
   -5.9300    7.0063  -23.1993 C   0  0  0  0  0  0  0  0  0  0  0  0
   -2.8991    7.5244  -19.4843 C   0  0  0  0  0  0  0  0  0  0  0  0
   -1.8425    6.8659  -20.1447 C   0  0  0  0  0  0  0  0  0  0  0  0
   -0.7667    6.3449  -19.4089 C   0  0  0  0  0  0  0  0  0  0  0  0
   -0.7227    6.4926  -18.0204 C   0  0  0  0  0  0  0  0  0  0  0  0
   -1.7517    7.1690  -17.3607 C   0  0  0  0  0  0  0  0  0  0  0  0
   -2.8271    7.6905  -18.0863 C   0  0  0  0  0  0  0  0  0  0  0  0
   -5.5263   10.0303  -21.6850 H   0  0  0  0  0  0  0  0  0  0  0  0
   -7.6293   10.4836  -22.8422 H   0  0  0  0  0  0  0  0  0  0  0  0
   -9.3246    5.5588  -25.6581 H   0  0  0  0  0  0  0  0  0  0  0  0
  -13.0316    6.2983  -28.6844 H   0  0  0  0  0  0  0  0  0  0  0  0
  -15.5074    6.0322  -28.4916 H   0  0  0  0  0  0  0  0  0  0  0  0
  -16.6517    6.5667  -26.3581 H   0  0  0  0  0  0  0  0  0  0  0  0
  -15.3410    7.3961  -24.4044 H   0  0  0  0  0  0  0  0  0  0  0  0
   -5.4681    6.0320  -23.2835 H   0  0  0  0  0  0  0  0  0  0  0  0
   -1.8650    6.7321  -21.2205 H   0  0  0  0  0  0  0  0  0  0  0  0
    0.0413    5.8366  -19.9139 H   0  0  0  0  0  0  0  0  0  0  0  0
    0.1166    6.0942  -17.4560 H   0  0  0  0  0  0  0  0  0  0  0  0
   -1.7100    7.2946  -16.2878 H   0  0  0  0  0  0  0  0  0  0  0  0
   -3.6080    8.2157  -17.5470 H   0  0  0  0  0  0  0  0  0  0  0  0
  1  2  2  0
  2  3  1  0
  3  4  1  0
  4  5  2  0
  5  6  1  0
  6  7  2  0
  7  8  1  0
  8  9  1  0
  9 10  1  0
 10 11  2  0
 11 12  1  0
 12 13  2  0
 13 14  1  0
 14 15  2  0
 15 16  1  0
 16 17  2  0
 17 18  1  0
 18 19  2  0
 19 20  1  0
 11 21  1  0
 21 22  2  0
  8 23  2  0
  2 24  1  0
 24 25  2  0
 25 26  1  0
 26 27  2  0
 27 28  1  0
 28 29  2  0
 23  4  1  0
 21  7  1  0
 20 12  1  0
 19 14  1  0
 29 24  1  0
  5 30  1  0
  6 31  1  0
 10 32  1  0
 15 33  1  0
 16 34  1  0
 17 35  1  0
 18 36  1  0
 23 37  1  0
 25 38  1  0
 26 39  1  0
 27 40  1  0
 28 41  1  0
 29 42  1  0
A    1
 O1 
A    2
 C1 
A    3
 O2 
A    4
 C2 
A    5
 C3 
A    6
 C4 
A    7
 C5 
A    8
 C6 
A    9
 O3 
A   10
 C7 
A   11
 C8 
A   12
 C9 
A   13
 N1 
A   14
 C10
A   15
 C11
A   16
 C12
A   17
 C13
A   18
 C14
A   19
 C15
A   20
 S1 
A   21
 C16
A   22
 O4 
A   23
 C17
A   24
 C18
A   25
 C19
A   26
 C20
A   27
 C21
A   28
 C22
A   29
 C23
A   30
 H1 
A   31
 H2 
A   32
 H3 
A   33
 H4 
A   34
 H5 
A   35
 H6 
A   36
 H7 
A   37
 H8 
A   38
 H9 
A   39
 H10
A   40
 H11
A   41
 H12
A   42
 H13
M  END
>  <ref_pdb>  (391) 
x0051_0B

>  <ref_mols>  (391) 
x0846_1B,x0101_0B

>  <original SMILES>  (391) 
[H]c1oc2c([H])c(OC(=O)c3c([H])c([H])c([H])c([H])c3[H])c([H])c([H])c2c(=O)c1-c1nc2c([H])c([H])c([H])c([H])c2s1

>  <index>  (391) 
304

>  <∆∆G>  (391) 
-8.578099

>  <∆G_bound>  (391) 
-7.576629

>  <∆G_unbound>  (391) 
1.00147

>  <comRMSD>  (391) 
0.82977

>  <N_constrained_atoms>  (391) 
29.0

>  <N_unconstrained_atoms>  (391) 
2.0

>  <runtime>  (391) 
49.246073

>  <LE>  (391) 
0.276713

>  <percent_hybrid>  (391) 
40.0

>  <dist>  (391) 
12.0

>  <ecfp4>  (391) 
0.1875

>  <daylight>  (391) 
0.217009

>  <topodist>  (391) 
4.0

>  <mces>  (391) 
32.0

>  <tdn>  (391) 
1.0

>  <tup>  (391) 
0.0

>  <rdn>  (391) 
0.0

>  <rup>  (391) 
1.0

>  <ldn>  (391) 
2.0

>  <lup>  (391) 
0.0

>  <mut>  (391) 
4.0

>  <maj>  (391) 
4.0

>  <min>  (391) 
0.0

>  <hyb>  (391) 
4.0

>  <sub>  (391) 
2.0

>  <query_index>  (391) 
236.0

>  <max_hit_Tanimoto>  (391) 
0.208

>  <largest_ring>  (391) 
6

>  <N_interactions_kept>  (391) 
2.5

>  <N_interactions_lost>  (391) 
1.0

>  <interaction_uniqueness_metric>  (391) 
0.050576

>  <ad_hoc_penalty>  (391) 
-19.579949

>  <N_rotatable_bonds>  (391) 
3

>  <N_HA>  (391) 
29

>  <cluster>  (391) 
5940

>  <N_interactions>  (391) 
3

>  <Enamine>  (391) 
1

>  <Mcule>  (391) 
0

>  <N_PAINS>  (391) 
0

>  <UFF_Gibbs>  (391) 
253.389868

>  <strain_per_HA>  (391) 
8.173867

>  <saltbridge:HIS:51>  (391) 
0

>  <pistack:HIS:51>  (391) 
0

>  <hydroph_interaction:HIS:51>  (391) 
0

>  <hbond:ALA:132>  (391) 
0

>  <hbond:SER:135>  (391) 
0

>  <hydroph_interaction:TYR:150>  (391) 
1

>  <pistack:TYR:161>  (391) 
1

>  <hydroph_interaction:TYR:161>  (391) 
0

>  <hydroph_interaction:ASP:83>  (391) 
0

>  <hbond:TYR:130>  (391) 
0

>  <hydroph_interaction:ALA:132>  (391) 
1

>  <hbond:HIS:51>  (391) 
0

>  <hbond:ASP:129>  (391) 
0

>  <hbond:TYR:150>  (391) 
0

>  <hbond:GLY:151>  (391) 
0

>  <hbond:TYR:161>  (391) 
0

>  <hydroph_interaction:TYR:130>  (391) 
0

>  <hydroph_interaction:PRO:131>  (391) 
0

>  <hydroph_interaction:ASP:129>  (391) 
0

>  <saltbridge:ASP:75>  (391) 
0

>  <saltbridge:ASP:83>  (391) 
0

>  <hydroph_interaction:ASN:152>  (391) 
0

>  <halogenbond:TYR:150>  (391) 
0

>  <hbond:ASP:83>  (391) 
0

>  <hydroph_interaction:VAL:155>  (391) 
0

>  <pication:TYR:161>  (391) 
0

>  <hbond:PRO:131>  (391) 
0

>  <hbond:LEU:128>  (391) 
0

>  <saltbridge:ASP:129>  (391) 
0

>  <hbond:THR:134>  (391) 
0

>  <pication:HIS:51>  (391) 
0

>  <hbond:SER:81>  (391) 
0

>  <hbond:GLY:159>  (391) 
0

>  <hydroph_interaction:PRO:101>  (391) 
0

>  <hydroph_interaction:THR:134>  (391) 
0

>  <hbond:GLY:82>  (391) 
0

>  <hydroph_interaction:GLU:104>  (391) 
0

>  <hydroph_interaction:VAL:36>  (391) 
0

>  <hydroph_interaction:MET:49>  (391) 
0

>  <halogenbond:GLU:104>  (391) 
0

>  <hydroph_interaction:LYS:107>  (391) 
0

$$$$
CSSB00020630943
     RDKit          3D

 41 42  0  0  0  0  0  0  0  0999 V2000
   -3.1113    4.5667  -21.3882 C   0  0  0  0  0  0  0  0  0  0  0  0
   -4.4754    4.9853  -21.9469 C   0  0  0  0  0  0  0  0  0  0  0  0
   -4.4729    6.4409  -22.4249 C   0  0  0  0  0  0  0  0  0  0  0  0
   -5.5473    4.7479  -20.9716 N   0  0  0  0  0  0  0  0  0  0  0  0
   -5.6636    5.4185  -19.7024 C   0  0  0  0  0  0  0  0  0  0  0  0
   -4.7411    6.1787  -19.3020 O   0  0  0  0  0  0  0  0  0  0  0  0
   -6.8646    5.2225  -18.8541 C   0  0  0  0  0  0  0  0  0  0  0  0
   -8.1236    5.0540  -19.4589 C   0  0  0  0  0  0  0  0  0  0  0  0
   -9.2688    4.8862  -18.6797 C   0  0  0  0  0  0  0  0  0  0  0  0
   -9.1741    4.8853  -17.2896 C   0  0  0  0  0  0  0  0  0  0  0  0
   -7.9344    5.0546  -16.6712 C   0  0  0  0  0  0  0  0  0  0  0  0
   -6.7669    5.2279  -17.4430 C   0  0  0  0  0  0  0  0  0  0  0  0
   -5.5001    5.3807  -16.8504 O   0  0  0  0  0  0  0  0  0  0  0  0
   -5.2393    5.5716  -15.4581 C   0  0  0  0  0  0  0  0  0  0  0  0
   -5.6846    6.9839  -15.0139 C   0  0  0  0  0  0  0  0  0  0  0  0
   -4.8887    7.4985  -13.8003 C   0  0  0  0  0  0  0  0  0  0  0  0
   -4.4013    6.3758  -12.9921 N   0  0  0  0  0  0  0  0  0  0  0  0
   -3.3803    5.6004  -13.7197 C   0  0  0  0  0  0  0  0  0  0  0  0
   -3.7388    5.3838  -15.2071 C   0  0  0  0  0  0  0  0  0  0  0  0
   -3.1646    3.5269  -21.0013 H   0  0  0  0  0  0  0  0  0  0  0  0
   -2.7825    5.2388  -20.5693 H   0  0  0  0  0  0  0  0  0  0  0  0
   -2.3476    4.6007  -22.1942 H   0  0  0  0  0  0  0  0  0  0  0  0
   -4.6735    4.3475  -22.8375 H   0  0  0  0  0  0  0  0  0  0  0  0
   -4.1853    7.1345  -21.6081 H   0  0  0  0  0  0  0  0  0  0  0  0
   -5.4834    6.7186  -22.7930 H   0  0  0  0  0  0  0  0  0  0  0  0
   -3.7504    6.5633  -23.2599 H   0  0  0  0  0  0  0  0  0  0  0  0
   -6.2597    4.0251  -21.2200 H   0  0  0  0  0  0  0  0  0  0  0  0
   -8.2288    5.0765  -20.5361 H   0  0  0  0  0  0  0  0  0  0  0  0
  -10.2331    4.7613  -19.1554 H   0  0  0  0  0  0  0  0  0  0  0  0
  -10.0644    4.7522  -16.6883 H   0  0  0  0  0  0  0  0  0  0  0  0
   -7.8994    5.0357  -15.5922 H   0  0  0  0  0  0  0  0  0  0  0  0
   -5.7729    4.7973  -14.8638 H   0  0  0  0  0  0  0  0  0  0  0  0
   -6.7648    6.9609  -14.7568 H   0  0  0  0  0  0  0  0  0  0  0  0
   -5.5570    7.7024  -15.8532 H   0  0  0  0  0  0  0  0  0  0  0  0
   -5.5458    8.1456  -13.1793 H   0  0  0  0  0  0  0  0  0  0  0  0
   -4.0321    8.1230  -14.1433 H   0  0  0  0  0  0  0  0  0  0  0  0
   -3.9577    6.7649  -12.1273 H   0  0  0  0  0  0  0  0  0  0  0  0
   -2.3914    6.1074  -13.6503 H   0  0  0  0  0  0  0  0  0  0  0  0
   -3.2812    4.6101  -13.2256 H   0  0  0  0  0  0  0  0  0  0  0  0
   -3.4301    4.3630  -15.5219 H   0  0  0  0  0  0  0  0  0  0  0  0
   -3.1742    6.1122  -15.8310 H   0  0  0  0  0  0  0  0  0  0  0  0
  1  2  1  0
  2  3  1  0
  2  4  1  0
  4  5  1  0
  5  6  2  0
  5  7  1  0
  7  8  2  0
  8  9  1  0
  9 10  2  0
 10 11  1  0
 11 12  2  0
 12 13  1  0
 13 14  1  0
 14 15  1  0
 15 16  1  0
 16 17  1  0
 17 18  1  0
 18 19  1  0
 12  7  1  0
 19 14  1  0
  1 20  1  0
  1 21  1  0
  1 22  1  0
  2 23  1  0
  3 24  1  0
  3 25  1  0
  3 26  1  0
  4 27  1  0
  8 28  1  0
  9 29  1  0
 10 30  1  0
 11 31  1  0
 14 32  1  0
 15 33  1  0
 15 34  1  0
 16 35  1  0
 16 36  1  0
 17 37  1  0
 18 38  1  0
 18 39  1  0
 19 40  1  0
 19 41  1  0
A    1
 C1 
A    2
 C2 
A    3
 C3 
A    4
 N1 
A    5
 C4 
A    6
 O1 
A    7
 C5 
A    8
 C6 
A    9
 C7 
A   10
 C8 
A   11
 C9 
A   12
 C10
A   13
 O2 
A   14
 C11
A   15
 C12
A   16
 C13
A   17
 N2 
A   18
 C14
A   19
 C15
A   20
 H1 
A   21
 H2 
A   22
 H3 
A   23
 H4 
A   24
 H5 
A   25
 H6 
A   26
 H7 
A   27
 H8 
A   28
 H9 
A   29
 H10
A   30
 H11
A   31
 H12
A   32
 H13
A   33
 H14
A   34
 H15
A   35
 H16
A   36
 H17
A   37
 H18
A   38
 H19
A   39
 H20
A   40
 H21
A   41
 H22
M  END
>  <ref_pdb>  (392) 
x0051_0B

>  <ref_mols>  (392) 
x0904_0B,x0429_0B

>  <original SMILES>  (392) 
[H]c1c([H])c([H])c(C(=O)N([H])C([H])(C([H])([H])[H])C([H])([H])[H])c(OC2([H])C([H])([H])C([H])([H])N([H])C([H])([H])C2([H])[H])c1[H]

>  <index>  (392) 
559

>  <∆∆G>  (392) 
-7.174954

>  <∆G_bound>  (392) 
-5.718143

>  <∆G_unbound>  (392) 
1.456811

>  <comRMSD>  (392) 
0.967408

>  <N_constrained_atoms>  (392) 
22.0

>  <N_unconstrained_atoms>  (392) 
1.0

>  <runtime>  (392) 
41.128656

>  <LE>  (392) 
0.311955

>  <percent_hybrid>  (392) 
43.0

>  <dist>  (392) 
9.0

>  <ecfp4>  (392) 
0.183099

>  <daylight>  (392) 
0.20398

>  <topodist>  (392) 
4.0

>  <mces>  (392) 
20.0

>  <tdn>  (392) 
2.0

>  <tup>  (392) 
0.0

>  <rdn>  (392) 
1.0

>  <rup>  (392) 
0.0

>  <ldn>  (392) 
1.0

>  <lup>  (392) 
0.0

>  <mut>  (392) 
5.0

>  <maj>  (392) 
5.0

>  <min>  (392) 
0.0

>  <hyb>  (392) 
0.0

>  <sub>  (392) 
1.0

>  <query_index>  (392) 
49.0

>  <max_hit_Tanimoto>  (392) 
0.213355

>  <largest_ring>  (392) 
6

>  <N_interactions_kept>  (392) 
2.0

>  <N_interactions_lost>  (392) 
1.5

>  <interaction_uniqueness_metric>  (392) 
0.056279

>  <ad_hoc_penalty>  (392) 
-19.495605

>  <N_rotatable_bonds>  (392) 
6

>  <N_HA>  (392) 
19

>  <cluster>  (392) 
5707

>  <N_interactions>  (392) 
6

>  <Enamine>  (392) 
1

>  <Mcule>  (392) 
0

>  <N_PAINS>  (392) 
0

>  <UFF_Gibbs>  (392) 
98.168502

>  <strain_per_HA>  (392) 
4.268196

>  <saltbridge:HIS:51>  (392) 
0

>  <pistack:HIS:51>  (392) 
0

>  <hydroph_interaction:HIS:51>  (392) 
0

>  <hbond:ALA:132>  (392) 
0

>  <hbond:SER:135>  (392) 
0

>  <hydroph_interaction:TYR:150>  (392) 
1

>  <pistack:TYR:161>  (392) 
0

>  <hydroph_interaction:TYR:161>  (392) 
4

>  <hydroph_interaction:ASP:83>  (392) 
0

>  <hbond:TYR:130>  (392) 
0

>  <hydroph_interaction:ALA:132>  (392) 
1

>  <hbond:HIS:51>  (392) 
0

>  <hbond:ASP:129>  (392) 
0

>  <hbond:TYR:150>  (392) 
0

>  <hbond:GLY:151>  (392) 
0

>  <hbond:TYR:161>  (392) 
0

>  <hydroph_interaction:TYR:130>  (392) 
0

>  <hydroph_interaction:PRO:131>  (392) 
0

>  <hydroph_interaction:ASP:129>  (392) 
0

>  <saltbridge:ASP:75>  (392) 
0

>  <saltbridge:ASP:83>  (392) 
0

>  <hydroph_interaction:ASN:152>  (392) 
0

>  <halogenbond:TYR:150>  (392) 
0

>  <hbond:ASP:83>  (392) 
0

>  <hydroph_interaction:VAL:155>  (392) 
0

>  <pication:TYR:161>  (392) 
0

>  <hbond:PRO:131>  (392) 
0

>  <hbond:LEU:128>  (392) 
0

>  <saltbridge:ASP:129>  (392) 
0

>  <hbond:THR:134>  (392) 
0

>  <pication:HIS:51>  (392) 
0

>  <hbond:SER:81>  (392) 
0

>  <hbond:GLY:159>  (392) 
0

>  <hydroph_interaction:PRO:101>  (392) 
0

>  <hydroph_interaction:THR:134>  (392) 
0

>  <hbond:GLY:82>  (392) 
0

>  <hydroph_interaction:GLU:104>  (392) 
0

>  <hydroph_interaction:VAL:36>  (392) 
0

>  <hydroph_interaction:MET:49>  (392) 
0

>  <halogenbond:GLU:104>  (392) 
0

>  <hydroph_interaction:LYS:107>  (392) 
0

$$$$
DRLNVONVNKQKLJ-UHFFFAOYSA-N
     RDKit          3D

 33 34  0  0  0  0  0  0  0  0999 V2000
   -5.8830    6.0589  -18.2120 N   0  0  0  0  0  0  0  0  0  0  0  0
   -4.8751    6.4195  -17.2070 C   0  0  0  0  0  0  0  0  0  0  0  0
   -3.8244    5.2955  -16.9720 C   0  0  0  0  0  0  0  0  0  0  0  0
   -2.7721    5.8137  -15.9701 C   0  0  0  0  0  0  0  0  0  0  0  0
   -4.4807    4.0312  -16.3842 C   0  0  0  0  0  0  0  0  0  0  0  0
   -3.1122    4.9289  -18.2899 C   0  0  0  0  0  0  0  0  0  0  0  0
   -5.8593    6.5405  -19.5968 C   0  0  0  0  0  0  0  0  0  0  0  0
   -7.1765    6.0549  -20.2453 C   0  0  0  0  0  0  0  0  0  0  0  0
   -7.9311    5.4863  -19.0969 C   0  0  0  0  0  0  0  0  0  0  0  0
   -7.1708    5.5131  -17.9586 C   0  0  0  0  0  0  0  0  0  0  0  0
   -7.6950    5.0938  -16.7295 C   0  0  0  0  0  0  0  0  0  0  0  0
   -9.0102    4.6030  -16.6949 C   0  0  0  0  0  0  0  0  0  0  0  0
   -9.7804    4.5543  -17.8720 C   0  0  0  0  0  0  0  0  0  0  0  0
   -9.2414    5.0054  -19.0871 C   0  0  0  0  0  0  0  0  0  0  0  0
   -5.3754    6.6910  -16.2525 H   0  0  0  0  0  0  0  0  0  0  0  0
   -4.3474    7.3381  -17.5473 H   0  0  0  0  0  0  0  0  0  0  0  0
   -2.2541    6.7109  -16.3734 H   0  0  0  0  0  0  0  0  0  0  0  0
   -2.0055    5.0357  -15.7631 H   0  0  0  0  0  0  0  0  0  0  0  0
   -3.2519    6.0922  -15.0068 H   0  0  0  0  0  0  0  0  0  0  0  0
   -5.2340    3.6115  -17.0834 H   0  0  0  0  0  0  0  0  0  0  0  0
   -4.9726    4.2587  -15.4150 H   0  0  0  0  0  0  0  0  0  0  0  0
   -3.7164    3.2451  -16.2013 H   0  0  0  0  0  0  0  0  0  0  0  0
   -2.6956    5.8368  -18.7770 H   0  0  0  0  0  0  0  0  0  0  0  0
   -2.2764    4.2211  -18.1003 H   0  0  0  0  0  0  0  0  0  0  0  0
   -3.8136    4.4342  -18.9944 H   0  0  0  0  0  0  0  0  0  0  0  0
   -4.9801    6.1374  -20.1403 H   0  0  0  0  0  0  0  0  0  0  0  0
   -5.8207    7.6516  -19.6045 H   0  0  0  0  0  0  0  0  0  0  0  0
   -7.7349    6.8999  -20.7024 H   0  0  0  0  0  0  0  0  0  0  0  0
   -6.9794    5.2631  -20.9994 H   0  0  0  0  0  0  0  0  0  0  0  0
   -7.1178    5.1489  -15.8187 H   0  0  0  0  0  0  0  0  0  0  0  0
   -9.4357    4.2674  -15.7582 H   0  0  0  0  0  0  0  0  0  0  0  0
  -10.7947    4.1786  -17.8383 H   0  0  0  0  0  0  0  0  0  0  0  0
   -9.8326    4.9889  -19.9935 H   0  0  0  0  0  0  0  0  0  0  0  0
  1  2  1  0
  2  3  1  0
  3  4  1  0
  3  5  1  0
  3  6  1  0
  1  7  1  0
  7  8  1  0
  8  9  1  0
  9 10  2  0
 10 11  1  0
 11 12  2  0
 12 13  1  0
 13 14  2  0
 10  1  1  0
 14  9  1  0
  2 15  1  0
  2 16  1  0
  4 17  1  0
  4 18  1  0
  4 19  1  0
  5 20  1  0
  5 21  1  0
  5 22  1  0
  6 23  1  0
  6 24  1  0
  6 25  1  0
  7 26  1  0
  7 27  1  0
  8 28  1  0
  8 29  1  0
 11 30  1  0
 12 31  1  0
 13 32  1  0
 14 33  1  0
A    1
 N1 
A    2
 C1 
A    3
 C2 
A    4
 C3 
A    5
 C4 
A    6
 C5 
A    7
 C6 
A    8
 C7 
A    9
 C8 
A   10
 C9 
A   11
 C10
A   12
 C11
A   13
 C12
A   14
 C13
A   15
 H1 
A   16
 H2 
A   17
 H3 
A   18
 H4 
A   19
 H5 
A   20
 H6 
A   21
 H7 
A   22
 H8 
A   23
 H9 
A   24
 H10
A   25
 H11
A   26
 H12
A   27
 H13
A   28
 H14
A   29
 H15
A   30
 H16
A   31
 H17
A   32
 H18
A   33
 H19
M  END
>  <ref_pdb>  (393) 
x0051_0B

>  <ref_mols>  (393) 
x0490_0B,x0472_0B

>  <original SMILES>  (393) 
[H]c1c([H])c([H])c2c(c1[H])N(C([H])([H])C(C([H])([H])[H])(C([H])([H])[H])C([H])([H])[H])C([H])([H])C2([H])[H]

>  <index>  (393) 
29

>  <∆∆G>  (393) 
-6.390526

>  <∆G_bound>  (393) 
-7.051203

>  <∆G_unbound>  (393) 
-0.660677

>  <comRMSD>  (393) 
0.774942

>  <N_constrained_atoms>  (393) 
16.0

>  <N_unconstrained_atoms>  (393) 
1.0

>  <runtime>  (393) 
21.1246

>  <LE>  (393) 
0.375913

>  <percent_hybrid>  (393) 
38.0

>  <dist>  (393) 
4.0

>  <ecfp4>  (393) 
0.196078

>  <daylight>  (393) 
0.095238

>  <topodist>  (393) 
2.0

>  <mces>  (393) 
14.0

>  <tdn>  (393) 
1.0

>  <tup>  (393) 
1.0

>  <rdn>  (393) 
0.0

>  <rup>  (393) 
0.0

>  <ldn>  (393) 
0.0

>  <lup>  (393) 
0.0

>  <mut>  (393) 
1.0

>  <maj>  (393) 
1.0

>  <min>  (393) 
0.0

>  <hyb>  (393) 
1.0

>  <sub>  (393) 
2.0

>  <query_index>  (393) 
228.0

>  <max_hit_Tanimoto>  (393) 
0.19657

>  <largest_ring>  (393) 
6

>  <N_interactions_kept>  (393) 
3.0

>  <N_interactions_lost>  (393) 
1.0

>  <interaction_uniqueness_metric>  (393) 
0.086931

>  <ad_hoc_penalty>  (393) 
-19.492495

>  <N_rotatable_bonds>  (393) 
1

>  <N_HA>  (393) 
14

>  <cluster>  (393) 
391

>  <N_interactions>  (393) 
6

>  <Enamine>  (393) 
0

>  <Mcule>  (393) 
1

>  <N_PAINS>  (393) 
0

>  <UFF_Gibbs>  (393) 
362.34254

>  <strain_per_HA>  (393) 
21.314267

>  <saltbridge:HIS:51>  (393) 
0

>  <pistack:HIS:51>  (393) 
0

>  <hydroph_interaction:HIS:51>  (393) 
0

>  <hbond:ALA:132>  (393) 
0

>  <hbond:SER:135>  (393) 
0

>  <hydroph_interaction:TYR:150>  (393) 
1

>  <pistack:TYR:161>  (393) 
0

>  <hydroph_interaction:TYR:161>  (393) 
3

>  <hydroph_interaction:ASP:83>  (393) 
0

>  <hbond:TYR:130>  (393) 
0

>  <hydroph_interaction:ALA:132>  (393) 
1

>  <hbond:HIS:51>  (393) 
0

>  <hbond:ASP:129>  (393) 
0

>  <hbond:TYR:150>  (393) 
0

>  <hbond:GLY:151>  (393) 
0

>  <hbond:TYR:161>  (393) 
0

>  <hydroph_interaction:TYR:130>  (393) 
0

>  <hydroph_interaction:PRO:131>  (393) 
0

>  <hydroph_interaction:ASP:129>  (393) 
0

>  <saltbridge:ASP:75>  (393) 
0

>  <saltbridge:ASP:83>  (393) 
0

>  <hydroph_interaction:ASN:152>  (393) 
0

>  <halogenbond:TYR:150>  (393) 
0

>  <hbond:ASP:83>  (393) 
0

>  <hydroph_interaction:VAL:155>  (393) 
1

>  <pication:TYR:161>  (393) 
0

>  <hbond:PRO:131>  (393) 
0

>  <hbond:LEU:128>  (393) 
0

>  <saltbridge:ASP:129>  (393) 
0

>  <hbond:THR:134>  (393) 
0

>  <pication:HIS:51>  (393) 
0

>  <hbond:SER:81>  (393) 
0

>  <hbond:GLY:159>  (393) 
0

>  <hydroph_interaction:PRO:101>  (393) 
0

>  <hydroph_interaction:THR:134>  (393) 
0

>  <hbond:GLY:82>  (393) 
0

>  <hydroph_interaction:GLU:104>  (393) 
0

>  <hydroph_interaction:VAL:36>  (393) 
0

>  <hydroph_interaction:MET:49>  (393) 
0

>  <halogenbond:GLU:104>  (393) 
0

>  <hydroph_interaction:LYS:107>  (393) 
0

$$$$
UNJGFKTUJACNIV-UHFFFAOYSA-N
     RDKit          3D

 43 47  0  0  0  0  0  0  0  0999 V2000
   -7.4800    8.7304  -24.2710 C   0  0  0  0  0  0  0  0  0  0  0  0
   -7.4834    8.0390  -25.5316 N   0  0  0  0  0  0  0  0  0  0  0  0
   -8.2430    8.4802  -26.6632 C   0  0  0  0  0  0  0  0  0  0  0  0
   -8.9570    9.5948  -26.6800 O   0  0  0  0  0  0  0  0  0  0  0  0
   -9.4857    9.6516  -27.8717 C   0  0  0  0  0  0  0  0  0  0  0  0
   -9.0856    8.5597  -28.5817 C   0  0  0  0  0  0  0  0  0  0  0  0
   -9.4911    8.3498  -29.8976 C   0  0  0  0  0  0  0  0  0  0  0  0
  -10.3393    9.3116  -30.4802 C   0  0  0  0  0  0  0  0  0  0  0  0
  -10.7533   10.4442  -29.7402 C   0  0  0  0  0  0  0  0  0  0  0  0
  -10.3231   10.6234  -28.4116 C   0  0  0  0  0  0  0  0  0  0  0  0
   -8.2835    7.7855  -27.8311 N   0  0  0  0  0  0  0  0  0  0  0  0
   -8.3440    9.6210  -24.0422 O   0  0  0  0  0  0  0  0  0  0  0  0
   -6.4901    8.3947  -23.2184 C   0  0  0  0  0  0  0  0  0  0  0  0
   -5.2537    7.8090  -23.5434 C   0  0  0  0  0  0  0  0  0  0  0  0
   -4.3279    7.5056  -22.5412 C   0  0  0  0  0  0  0  0  0  0  0  0
   -4.6117    7.7820  -21.2000 C   0  0  0  0  0  0  0  0  0  0  0  0
   -3.6466    7.4503  -20.2353 O   0  0  0  0  0  0  0  0  0  0  0  0
   -3.8211    7.5591  -18.8220 C   0  0  0  0  0  0  0  0  0  0  0  0
   -4.8048    6.5333  -18.3244 C   0  0  0  0  0  0  0  0  0  0  0  0
   -4.6233    5.1722  -18.6489 C   0  0  0  0  0  0  0  0  0  0  0  0
   -5.5238    4.1995  -18.1950 C   0  0  0  0  0  0  0  0  0  0  0  0
   -6.6060    4.5877  -17.4063 C   0  0  0  0  0  0  0  0  0  0  0  0
   -6.7896    5.9556  -17.0642 C   0  0  0  0  0  0  0  0  0  0  0  0
   -7.8640    6.2545  -16.2922 N   0  0  0  0  0  0  0  0  0  0  0  0
   -8.5101    4.7436  -16.0990 S   0  0  0  0  0  0  0  0  0  0  0  0
   -7.5222    3.7085  -16.9295 N   0  0  0  0  0  0  0  0  0  0  0  0
   -5.8906    6.9222  -17.5166 C   0  0  0  0  0  0  0  0  0  0  0  0
   -5.8405    8.3829  -20.8708 C   0  0  0  0  0  0  0  0  0  0  0  0
   -6.7676    8.6877  -21.8716 C   0  0  0  0  0  0  0  0  0  0  0  0
   -6.9402    7.1533  -25.6335 H   0  0  0  0  0  0  0  0  0  0  0  0
   -9.1666    7.4795  -30.4533 H   0  0  0  0  0  0  0  0  0  0  0  0
  -10.6753    9.1838  -31.5009 H   0  0  0  0  0  0  0  0  0  0  0  0
  -11.4043   11.1776  -30.1979 H   0  0  0  0  0  0  0  0  0  0  0  0
  -10.6299   11.4846  -27.8328 H   0  0  0  0  0  0  0  0  0  0  0  0
   -4.9853    7.6051  -24.5713 H   0  0  0  0  0  0  0  0  0  0  0  0
   -3.3805    7.0548  -22.8092 H   0  0  0  0  0  0  0  0  0  0  0  0
   -2.8431    7.3710  -18.3318 H   0  0  0  0  0  0  0  0  0  0  0  0
   -4.1254    8.5946  -18.5557 H   0  0  0  0  0  0  0  0  0  0  0  0
   -3.7826    4.8666  -19.2596 H   0  0  0  0  0  0  0  0  0  0  0  0
   -5.3774    3.1588  -18.4552 H   0  0  0  0  0  0  0  0  0  0  0  0
   -6.0375    7.9615  -17.2493 H   0  0  0  0  0  0  0  0  0  0  0  0
   -6.0900    8.6242  -19.8481 H   0  0  0  0  0  0  0  0  0  0  0  0
   -7.7074    9.1468  -21.5896 H   0  0  0  0  0  0  0  0  0  0  0  0
  1  2  1  0
  2  3  1  0
  3  4  1  0
  4  5  1  0
  5  6  2  0
  6  7  1  0
  7  8  2  0
  8  9  1  0
  9 10  2  0
  6 11  1  0
  1 12  2  0
  1 13  1  0
 13 14  2  0
 14 15  1  0
 15 16  2  0
 16 17  1  0
 17 18  1  0
 18 19  1  0
 19 20  1  0
 20 21  2  0
 21 22  1  0
 22 23  1  0
 23 24  2  0
 24 25  1  0
 25 26  1  0
 23 27  1  0
 16 28  1  0
 28 29  2  0
  3 11  2  0
 10  5  1  0
 29 13  1  0
 19 27  2  0
 22 26  2  0
  2 30  1  0
  7 31  1  0
  8 32  1  0
  9 33  1  0
 10 34  1  0
 14 35  1  0
 15 36  1  0
 18 37  1  0
 18 38  1  0
 20 39  1  0
 21 40  1  0
 27 41  1  0
 28 42  1  0
 29 43  1  0
A    1
 C1 
A    2
 N1 
A    3
 C2 
A    4
 O1 
A    5
 C3 
A    6
 C4 
A    7
 C5 
A    8
 C6 
A    9
 C7 
A   10
 C8 
A   11
 N2 
A   12
 O2 
A   13
 C9 
A   14
 C10
A   15
 C11
A   16
 C12
A   17
 O3 
A   18
 C13
A   19
 C14
A   20
 C15
A   21
 C16
A   22
 C17
A   23
 C18
A   24
 N3 
A   25
 S1 
A   26
 N4 
A   27
 C19
A   28
 C20
A   29
 C21
A   30
 H1 
A   31
 H2 
A   32
 H3 
A   33
 H4 
A   34
 H5 
A   35
 H6 
A   36
 H7 
A   37
 H8 
A   38
 H9 
A   39
 H10
A   40
 H11
A   41
 H12
A   42
 H13
A   43
 H14
M  END
>  <ref_pdb>  (394) 
x0051_0B

>  <ref_mols>  (394) 
x0051_0B,x0846_1B

>  <original SMILES>  (394) 
[H]c1c([H])c(C(=O)N([H])c2nc3c([H])c([H])c([H])c([H])c3o2)c([H])c([H])c1OC([H])([H])c1c([H])c([H])c2nsnc2c1[H]

>  <index>  (394) 
555

>  <∆∆G>  (394) 
-7.61328

>  <∆G_bound>  (394) 
-7.077572

>  <∆G_unbound>  (394) 
0.535708

>  <comRMSD>  (394) 
0.957526

>  <N_constrained_atoms>  (394) 
29.0

>  <N_unconstrained_atoms>  (394) 
3.0

>  <runtime>  (394) 
59.875932

>  <LE>  (394) 
0.237915

>  <percent_hybrid>  (394) 
38.0

>  <dist>  (394) 
9.0

>  <ecfp4>  (394) 
0.217391

>  <daylight>  (394) 
0.295302

>  <topodist>  (394) 
5.0

>  <mces>  (394) 
32.0

>  <tdn>  (394) 
2.0

>  <tup>  (394) 
1.0

>  <rdn>  (394) 
0.0

>  <rup>  (394) 
0.0

>  <ldn>  (394) 
2.0

>  <lup>  (394) 
0.0

>  <mut>  (394) 
3.0

>  <maj>  (394) 
3.0

>  <min>  (394) 
0.0

>  <hyb>  (394) 
1.0

>  <sub>  (394) 
1.0

>  <query_index>  (394) 
185.0

>  <max_hit_Tanimoto>  (394) 
0.29576

>  <largest_ring>  (394) 
6

>  <N_interactions_kept>  (394) 
2.5

>  <N_interactions_lost>  (394) 
1.0

>  <interaction_uniqueness_metric>  (394) 
0.089093

>  <ad_hoc_penalty>  (394) 
-19.472667

>  <N_rotatable_bonds>  (394) 
5

>  <N_HA>  (394) 
29

>  <cluster>  (394) 
5711

>  <N_interactions>  (394) 
4

>  <Enamine>  (394) 
0

>  <Mcule>  (394) 
1

>  <N_PAINS>  (394) 
0

>  <UFF_Gibbs>  (394) 
151.833471

>  <strain_per_HA>  (394) 
4.744796

>  <saltbridge:HIS:51>  (394) 
0

>  <pistack:HIS:51>  (394) 
0

>  <hydroph_interaction:HIS:51>  (394) 
0

>  <hbond:ALA:132>  (394) 
0

>  <hbond:SER:135>  (394) 
0

>  <hydroph_interaction:TYR:150>  (394) 
0

>  <pistack:TYR:161>  (394) 
0

>  <hydroph_interaction:TYR:161>  (394) 
2

>  <hydroph_interaction:ASP:83>  (394) 
0

>  <hbond:TYR:130>  (394) 
0

>  <hydroph_interaction:ALA:132>  (394) 
1

>  <hbond:HIS:51>  (394) 
0

>  <hbond:ASP:129>  (394) 
0

>  <hbond:TYR:150>  (394) 
0

>  <hbond:GLY:151>  (394) 
0

>  <hbond:TYR:161>  (394) 
0

>  <hydroph_interaction:TYR:130>  (394) 
0

>  <hydroph_interaction:PRO:131>  (394) 
1

>  <hydroph_interaction:ASP:129>  (394) 
0

>  <saltbridge:ASP:75>  (394) 
0

>  <saltbridge:ASP:83>  (394) 
0

>  <hydroph_interaction:ASN:152>  (394) 
0

>  <halogenbond:TYR:150>  (394) 
0

>  <hbond:ASP:83>  (394) 
0

>  <hydroph_interaction:VAL:155>  (394) 
0

>  <pication:TYR:161>  (394) 
0

>  <hbond:PRO:131>  (394) 
0

>  <hbond:LEU:128>  (394) 
0

>  <saltbridge:ASP:129>  (394) 
0

>  <hbond:THR:134>  (394) 
0

>  <pication:HIS:51>  (394) 
0

>  <hbond:SER:81>  (394) 
0

>  <hbond:GLY:159>  (394) 
0

>  <hydroph_interaction:PRO:101>  (394) 
0

>  <hydroph_interaction:THR:134>  (394) 
0

>  <hbond:GLY:82>  (394) 
0

>  <hydroph_interaction:GLU:104>  (394) 
0

>  <hydroph_interaction:VAL:36>  (394) 
0

>  <hydroph_interaction:MET:49>  (394) 
0

>  <halogenbond:GLU:104>  (394) 
0

>  <hydroph_interaction:LYS:107>  (394) 
0

$$$$
MCULE-6616598188
     RDKit          3D

 48 50  0  0  0  0  0  0  0  0999 V2000
   -8.0743    8.5506  -13.8972 S   0  0  0  0  0  6  0  0  0  0  0  0
   -7.1696    9.5704  -13.2654 O   0  0  0  0  0  0  0  0  0  0  0  0
   -9.3427    9.2279  -14.3350 O   0  0  0  0  0  0  0  0  0  0  0  0
   -8.4110    7.2859  -12.7191 C   0  0  0  0  0  0  0  0  0  0  0  0
   -9.6634    7.2024  -12.0980 C   0  0  0  0  0  0  0  0  0  0  0  0
   -9.9296    6.1762  -11.1867 C   0  0  0  0  0  0  0  0  0  0  0  0
   -8.9456    5.2198  -10.8795 C   0  0  0  0  0  0  0  0  0  0  0  0
   -7.6866    5.3161  -11.5028 C   0  0  0  0  0  0  0  0  0  0  0  0
   -7.4238    6.3415  -12.4149 C   0  0  0  0  0  0  0  0  0  0  0  0
   -9.2503    4.1084   -9.8920 C   0  0  0  0  0  0  0  0  0  0  0  0
   -9.1450    2.7223  -10.5609 C   0  0  0  0  0  0  0  0  0  0  0  0
   -9.4600    1.6050   -9.5578 C   0  0  0  0  0  0  0  0  0  0  0  0
   -8.5451    1.6936   -8.3293 C   0  0  0  0  0  0  0  0  0  0  0  0
   -8.6503    3.0704   -7.6605 C   0  0  0  0  0  0  0  0  0  0  0  0
   -8.3308    4.1925   -8.6567 C   0  0  0  0  0  0  0  0  0  0  0  0
   -7.2878    7.8650  -15.2836 N   0  0  0  0  0  0  0  0  0  0  0  0
   -7.7572    6.6867  -15.9621 C   0  0  0  0  0  0  0  0  0  0  0  0
   -9.0742    6.2208  -15.8086 C   0  0  0  0  0  0  0  0  0  0  0  0
   -9.4967    5.0700  -16.4753 C   0  0  0  0  0  0  0  0  0  0  0  0
   -8.6180    4.3734  -17.3061 C   0  0  0  0  0  0  0  0  0  0  0  0
   -7.2969    4.8252  -17.4866 C   0  0  0  0  0  0  0  0  0  0  0  0
   -6.3472    4.1005  -18.3735 C   0  0  0  0  0  0  0  0  0  0  0  0
   -6.7459    2.8613  -19.1176 C   0  0  0  0  0  0  0  0  0  0  0  0
   -5.1705    4.5315  -18.5163 O   0  0  0  0  0  0  0  0  0  0  0  0
   -6.8808    5.9875  -16.8075 C   0  0  0  0  0  0  0  0  0  0  0  0
  -10.4379    7.9248  -12.3230 H   0  0  0  0  0  0  0  0  0  0  0  0
  -10.9075    6.1295  -10.7229 H   0  0  0  0  0  0  0  0  0  0  0  0
   -6.9059    4.5982  -11.2864 H   0  0  0  0  0  0  0  0  0  0  0  0
   -6.4519    6.3963  -12.8890 H   0  0  0  0  0  0  0  0  0  0  0  0
  -10.2989    4.2234   -9.5325 H   0  0  0  0  0  0  0  0  0  0  0  0
   -8.1230    2.5609  -10.9686 H   0  0  0  0  0  0  0  0  0  0  0  0
   -9.8649    2.6616  -11.4069 H   0  0  0  0  0  0  0  0  0  0  0  0
   -9.3174    0.6193  -10.0507 H   0  0  0  0  0  0  0  0  0  0  0  0
  -10.5232    1.6770   -9.2386 H   0  0  0  0  0  0  0  0  0  0  0  0
   -8.8356    0.9082   -7.5991 H   0  0  0  0  0  0  0  0  0  0  0  0
   -7.4919    1.5060   -8.6336 H   0  0  0  0  0  0  0  0  0  0  0  0
   -7.9358    3.1199   -6.8105 H   0  0  0  0  0  0  0  0  0  0  0  0
   -9.6759    3.2111   -7.2540 H   0  0  0  0  0  0  0  0  0  0  0  0
   -7.2632    4.1130   -8.9578 H   0  0  0  0  0  0  0  0  0  0  0  0
   -8.4731    5.1738   -8.1533 H   0  0  0  0  0  0  0  0  0  0  0  0
   -6.3604    8.2667  -15.5471 H   0  0  0  0  0  0  0  0  0  0  0  0
   -9.7844    6.7443  -15.1860 H   0  0  0  0  0  0  0  0  0  0  0  0
  -10.5127    4.7181  -16.3503 H   0  0  0  0  0  0  0  0  0  0  0  0
   -8.9819    3.4868  -17.8067 H   0  0  0  0  0  0  0  0  0  0  0  0
   -7.5880    3.0893  -19.8045 H   0  0  0  0  0  0  0  0  0  0  0  0
   -5.8953    2.4771  -19.7207 H   0  0  0  0  0  0  0  0  0  0  0  0
   -7.0517    2.0716  -18.3991 H   0  0  0  0  0  0  0  0  0  0  0  0
   -5.8679    6.3523  -16.9269 H   0  0  0  0  0  0  0  0  0  0  0  0
  1  2  2  0
  1  3  2  0
  1  4  1  0
  4  5  2  0
  5  6  1  0
  6  7  2  0
  7  8  1  0
  8  9  2  0
  7 10  1  0
 10 11  1  0
 11 12  1  0
 12 13  1  0
 13 14  1  0
 14 15  1  0
  1 16  1  0
 16 17  1  0
 17 18  2  0
 18 19  1  0
 19 20  2  0
 20 21  1  0
 21 22  1  0
 22 23  1  0
 22 24  2  0
 21 25  2  0
  9  4  1  0
 15 10  1  0
 25 17  1  0
  5 26  1  0
  6 27  1  0
  8 28  1  0
  9 29  1  0
 10 30  1  0
 11 31  1  0
 11 32  1  0
 12 33  1  0
 12 34  1  0
 13 35  1  0
 13 36  1  0
 14 37  1  0
 14 38  1  0
 15 39  1  0
 15 40  1  0
 16 41  1  0
 18 42  1  0
 19 43  1  0
 20 44  1  0
 23 45  1  0
 23 46  1  0
 23 47  1  0
 25 48  1  0
A    1
 S1 
A    2
 O1 
A    3
 O2 
A    4
 C1 
A    5
 C2 
A    6
 C3 
A    7
 C4 
A    8
 C5 
A    9
 C6 
A   10
 C7 
A   11
 C8 
A   12
 C9 
A   13
 C10
A   14
 C11
A   15
 C12
A   16
 N1 
A   17
 C13
A   18
 C14
A   19
 C15
A   20
 C16
A   21
 C17
A   22
 C18
A   23
 C19
A   24
 O3 
A   25
 C20
A   26
 H1 
A   27
 H2 
A   28
 H3 
A   29
 H4 
A   30
 H5 
A   31
 H6 
A   32
 H7 
A   33
 H8 
A   34
 H9 
A   35
 H10
A   36
 H11
A   37
 H12
A   38
 H13
A   39
 H14
A   40
 H15
A   41
 H16
A   42
 H17
A   43
 H18
A   44
 H19
A   45
 H20
A   46
 H21
A   47
 H22
A   48
 H23
M  END
>  <ref_pdb>  (395) 
x0051_0B

>  <ref_mols>  (395) 
x0435_0B,x0404_0B

>  <original SMILES>  (395) 
[H]c1c([H])c(C(=O)C([H])([H])[H])c([H])c(N([H])S(=O)(=O)c2c([H])c([H])c(C3([H])C([H])([H])C([H])([H])C([H])([H])C([H])([H])C3([H])[H])c([H])c2[H])c1[H]

>  <index>  (395) 
409

>  <∆∆G>  (395) 
-7.661552

>  <∆G_bound>  (395) 
-7.785081

>  <∆G_unbound>  (395) 
-0.123529

>  <comRMSD>  (395) 
0.995473

>  <N_constrained_atoms>  (395) 
25.0

>  <N_unconstrained_atoms>  (395) 
1.0

>  <runtime>  (395) 
91.769649

>  <LE>  (395) 
0.294675

>  <percent_hybrid>  (395) 
40.0

>  <dist>  (395) 
10.0

>  <ecfp4>  (395) 
0.134831

>  <daylight>  (395) 
0.181818

>  <topodist>  (395) 
3.0

>  <mces>  (395) 
27.0

>  <tdn>  (395) 
1.0

>  <tup>  (395) 
0.0

>  <rdn>  (395) 
1.0

>  <rup>  (395) 
0.0

>  <ldn>  (395) 
1.0

>  <lup>  (395) 
0.0

>  <mut>  (395) 
6.0

>  <maj>  (395) 
6.0

>  <min>  (395) 
0.0

>  <hyb>  (395) 
1.0

>  <sub>  (395) 
1.0

>  <query_index>  (395) 
26.0

>  <max_hit_Tanimoto>  (395) 
0.204545

>  <largest_ring>  (395) 
6

>  <N_interactions_kept>  (395) 
3.5

>  <N_interactions_lost>  (395) 
1.0

>  <interaction_uniqueness_metric>  (395) 
0.066661

>  <ad_hoc_penalty>  (395) 
-19.447204

>  <N_rotatable_bonds>  (395) 
6

>  <N_HA>  (395) 
25

>  <cluster>  (395) 
5845

>  <N_interactions>  (395) 
5

>  <Enamine>  (395) 
0

>  <Mcule>  (395) 
1

>  <N_PAINS>  (395) 
0

>  <UFF_Gibbs>  (395) 
170.955534

>  <strain_per_HA>  (395) 
6.575213

>  <saltbridge:HIS:51>  (395) 
0

>  <pistack:HIS:51>  (395) 
1

>  <hydroph_interaction:HIS:51>  (395) 
0

>  <hbond:ALA:132>  (395) 
0

>  <hbond:SER:135>  (395) 
0

>  <hydroph_interaction:TYR:150>  (395) 
0

>  <pistack:TYR:161>  (395) 
0

>  <hydroph_interaction:TYR:161>  (395) 
3

>  <hydroph_interaction:ASP:83>  (395) 
0

>  <hbond:TYR:130>  (395) 
0

>  <hydroph_interaction:ALA:132>  (395) 
1

>  <hbond:HIS:51>  (395) 
0

>  <hbond:ASP:129>  (395) 
0

>  <hbond:TYR:150>  (395) 
0

>  <hbond:GLY:151>  (395) 
0

>  <hbond:TYR:161>  (395) 
0

>  <hydroph_interaction:TYR:130>  (395) 
0

>  <hydroph_interaction:PRO:131>  (395) 
0

>  <hydroph_interaction:ASP:129>  (395) 
0

>  <saltbridge:ASP:75>  (395) 
0

>  <saltbridge:ASP:83>  (395) 
0

>  <hydroph_interaction:ASN:152>  (395) 
0

>  <halogenbond:TYR:150>  (395) 
0

>  <hbond:ASP:83>  (395) 
0

>  <hydroph_interaction:VAL:155>  (395) 
0

>  <pication:TYR:161>  (395) 
0

>  <hbond:PRO:131>  (395) 
0

>  <hbond:LEU:128>  (395) 
0

>  <saltbridge:ASP:129>  (395) 
0

>  <hbond:THR:134>  (395) 
0

>  <pication:HIS:51>  (395) 
0

>  <hbond:SER:81>  (395) 
0

>  <hbond:GLY:159>  (395) 
0

>  <hydroph_interaction:PRO:101>  (395) 
0

>  <hydroph_interaction:THR:134>  (395) 
0

>  <hbond:GLY:82>  (395) 
0

>  <hydroph_interaction:GLU:104>  (395) 
0

>  <hydroph_interaction:VAL:36>  (395) 
0

>  <hydroph_interaction:MET:49>  (395) 
0

>  <halogenbond:GLU:104>  (395) 
0

>  <hydroph_interaction:LYS:107>  (395) 
0

$$$$
CSSS00011216734
     RDKit          3D

 22 23  0  0  0  0  0  0  0  0999 V2000
   -5.6902    5.1242  -16.2954 C   0  0  0  0  0  0  0  0  0  0  0  0
   -5.5005    5.3049  -17.7791 C   0  0  0  0  0  0  0  0  0  0  0  0
   -4.1957    5.4916  -18.2707 C   0  0  0  0  0  0  0  0  0  0  0  0
   -3.9633    5.6328  -19.6388 C   0  0  0  0  0  0  0  0  0  0  0  0
   -5.0284    5.5944  -20.5352 C   0  0  0  0  0  0  0  0  0  0  0  0
   -6.3319    5.4236  -20.0673 C   0  0  0  0  0  0  0  0  0  0  0  0
   -6.5927    5.2869  -18.6897 C   0  0  0  0  0  0  0  0  0  0  0  0
   -8.0019    5.1378  -18.2410 C   0  0  0  0  0  0  0  0  0  0  0  0
   -8.4785    5.5786  -17.0589 N   0  0  0  0  0  0  0  0  0  0  0  0
   -9.7709    5.3014  -17.0160 N   0  0  0  0  0  0  0  0  0  0  0  0
  -10.1413    4.6927  -18.1551 C   0  0  0  0  0  0  0  0  0  0  0  0
   -9.0370    4.5723  -18.9697 C   0  0  0  0  0  0  0  0  0  0  0  0
   -6.3526    4.2558  -16.0958 H   0  0  0  0  0  0  0  0  0  0  0  0
   -6.1315    6.0445  -15.8593 H   0  0  0  0  0  0  0  0  0  0  0  0
   -4.7251    4.9271  -15.7817 H   0  0  0  0  0  0  0  0  0  0  0  0
   -3.3507    5.5203  -17.5937 H   0  0  0  0  0  0  0  0  0  0  0  0
   -2.9540    5.7709  -20.0046 H   0  0  0  0  0  0  0  0  0  0  0  0
   -4.8451    5.7055  -21.5962 H   0  0  0  0  0  0  0  0  0  0  0  0
   -7.1406    5.4218  -20.7869 H   0  0  0  0  0  0  0  0  0  0  0  0
  -10.3945    5.5306  -16.2110 H   0  0  0  0  0  0  0  0  0  0  0  0
  -11.1463    4.3597  -18.3778 H   0  0  0  0  0  0  0  0  0  0  0  0
   -8.9966    4.1236  -19.9533 H   0  0  0  0  0  0  0  0  0  0  0  0
  1  2  1  0
  2  3  2  0
  3  4  1  0
  4  5  2  0
  5  6  1  0
  6  7  2  0
  7  8  1  0
  8  9  2  0
  9 10  1  0
 10 11  1  0
 11 12  2  0
  7  2  1  0
 12  8  1  0
  1 13  1  0
  1 14  1  0
  1 15  1  0
  3 16  1  0
  4 17  1  0
  5 18  1  0
  6 19  1  0
 10 20  1  0
 11 21  1  0
 12 22  1  0
A    1
 C1 
A    2
 C2 
A    3
 C3 
A    4
 C4 
A    5
 C5 
A    6
 C6 
A    7
 C7 
A    8
 C8 
A    9
 N1 
A   10
 N2 
A   11
 C9 
A   12
 C10
A   13
 H1 
A   14
 H2 
A   15
 H3 
A   16
 H4 
A   17
 H5 
A   18
 H6 
A   19
 H7 
A   20
 H8 
A   21
 H9 
A   22
 H10
M  END
>  <ref_pdb>  (396) 
x0051_0B

>  <ref_mols>  (396) 
x0680_0B,x0386_0B

>  <original SMILES>  (396) 
[H]c1c([H])c([H])c(C([H])([H])[H])c(-c2nn([H])c([H])c2[H])c1[H]

>  <index>  (396) 
683

>  <∆∆G>  (396) 
-6.457289

>  <∆G_bound>  (396) 
-6.517018

>  <∆G_unbound>  (396) 
-0.059729

>  <comRMSD>  (396) 
0.560208

>  <N_constrained_atoms>  (396) 
13.0

>  <N_unconstrained_atoms>  (396) 
0.0

>  <runtime>  (396) 
25.533092

>  <LE>  (396) 
0.496715

>  <percent_hybrid>  (396) 
25.0

>  <dist>  (396) 
3.0

>  <ecfp4>  (396) 
0.25

>  <daylight>  (396) 
0.18705

>  <topodist>  (396) 
0.0

>  <mces>  (396) 
13.0

>  <tdn>  (396) 
0.0

>  <tup>  (396) 
0.0

>  <rdn>  (396) 
0.0

>  <rup>  (396) 
0.0

>  <ldn>  (396) 
0.0

>  <lup>  (396) 
0.0

>  <mut>  (396) 
3.0

>  <maj>  (396) 
3.0

>  <min>  (396) 
0.0

>  <hyb>  (396) 
0.0

>  <sub>  (396) 
0.0

>  <query_index>  (396) 
296.0

>  <max_hit_Tanimoto>  (396) 
0.117647

>  <largest_ring>  (396) 
6

>  <N_interactions_kept>  (396) 
2.0

>  <N_interactions_lost>  (396) 
2.0

>  <interaction_uniqueness_metric>  (396) 
0.044868

>  <ad_hoc_penalty>  (396) 
-19.419313

>  <N_rotatable_bonds>  (396) 
2

>  <N_HA>  (396) 
12

>  <cluster>  (396) 
5592

>  <N_interactions>  (396) 
5

>  <Enamine>  (396) 
1

>  <Mcule>  (396) 
0

>  <N_PAINS>  (396) 
0

>  <UFF_Gibbs>  (396) 
33.378199

>  <strain_per_HA>  (396) 
2.567554

>  <saltbridge:HIS:51>  (396) 
0

>  <pistack:HIS:51>  (396) 
0

>  <hydroph_interaction:HIS:51>  (396) 
0

>  <hbond:ALA:132>  (396) 
0

>  <hbond:SER:135>  (396) 
0

>  <hydroph_interaction:TYR:150>  (396) 
1

>  <pistack:TYR:161>  (396) 
1

>  <hydroph_interaction:TYR:161>  (396) 
3

>  <hydroph_interaction:ASP:83>  (396) 
0

>  <hbond:TYR:130>  (396) 
0

>  <hydroph_interaction:ALA:132>  (396) 
0

>  <hbond:HIS:51>  (396) 
0

>  <hbond:ASP:129>  (396) 
0

>  <hbond:TYR:150>  (396) 
0

>  <hbond:GLY:151>  (396) 
0

>  <hbond:TYR:161>  (396) 
0

>  <hydroph_interaction:TYR:130>  (396) 
0

>  <hydroph_interaction:PRO:131>  (396) 
0

>  <hydroph_interaction:ASP:129>  (396) 
0

>  <saltbridge:ASP:75>  (396) 
0

>  <saltbridge:ASP:83>  (396) 
0

>  <hydroph_interaction:ASN:152>  (396) 
0

>  <halogenbond:TYR:150>  (396) 
0

>  <hbond:ASP:83>  (396) 
0

>  <hydroph_interaction:VAL:155>  (396) 
0

>  <pication:TYR:161>  (396) 
0

>  <hbond:PRO:131>  (396) 
0

>  <hbond:LEU:128>  (396) 
0

>  <saltbridge:ASP:129>  (396) 
0

>  <hbond:THR:134>  (396) 
0

>  <pication:HIS:51>  (396) 
0

>  <hbond:SER:81>  (396) 
0

>  <hbond:GLY:159>  (396) 
0

>  <hydroph_interaction:PRO:101>  (396) 
0

>  <hydroph_interaction:THR:134>  (396) 
0

>  <hbond:GLY:82>  (396) 
0

>  <hydroph_interaction:GLU:104>  (396) 
0

>  <hydroph_interaction:VAL:36>  (396) 
0

>  <hydroph_interaction:MET:49>  (396) 
0

>  <halogenbond:GLU:104>  (396) 
0

>  <hydroph_interaction:LYS:107>  (396) 
0

$$$$
MCULE-5882510843
     RDKit          3D

 21 22  0  0  0  0  0  0  0  0999 V2000
   -6.5008    5.1338  -18.6286 C   0  0  0  0  0  0  0  0  0  0  0  0
   -5.3882    5.4765  -17.8180 C   0  0  0  0  0  0  0  0  0  0  0  0
   -5.5335    5.8946  -16.3785 C   0  0  0  0  0  0  0  0  0  0  0  0
   -4.1002    5.4312  -18.3746 C   0  0  0  0  0  0  0  0  0  0  0  0
   -3.9342    5.0959  -19.7173 C   0  0  0  0  0  0  0  0  0  0  0  0
   -5.0146    4.8092  -20.4858 N   0  0  0  0  0  0  0  0  0  0  0  0
   -6.2752    4.8251  -19.9807 C   0  0  0  0  0  0  0  0  0  0  0  0
   -7.8930    5.1003  -18.1240 C   0  0  0  0  0  0  0  0  0  0  0  0
   -8.3292    4.5778  -16.9173 C   0  0  0  0  0  0  0  0  0  0  0  0
   -9.6992    4.7191  -16.9560 C   0  0  0  0  0  0  0  0  0  0  0  0
  -10.0415    5.2822  -18.1272 N   0  0  0  0  0  0  0  0  0  0  0  0
   -8.9555    5.5081  -18.8474 N   0  0  0  0  0  0  0  0  0  0  0  0
   -5.5727    4.9955  -15.7298 H   0  0  0  0  0  0  0  0  0  0  0  0
   -4.6718    6.5181  -16.0573 H   0  0  0  0  0  0  0  0  0  0  0  0
   -6.4479    6.5070  -16.2347 H   0  0  0  0  0  0  0  0  0  0  0  0
   -3.2286    5.6685  -17.7768 H   0  0  0  0  0  0  0  0  0  0  0  0
   -2.9436    5.0699  -20.1515 H   0  0  0  0  0  0  0  0  0  0  0  0
   -7.1026    4.5746  -20.6326 H   0  0  0  0  0  0  0  0  0  0  0  0
   -7.7446    4.1186  -16.1327 H   0  0  0  0  0  0  0  0  0  0  0  0
  -10.4003    4.4145  -16.1904 H   0  0  0  0  0  0  0  0  0  0  0  0
  -11.0119    5.5015  -18.4429 H   0  0  0  0  0  0  0  0  0  0  0  0
  1  2  2  0
  2  3  1  0
  2  4  1  0
  4  5  2  0
  5  6  1  0
  6  7  2  0
  1  8  1  0
  8  9  1  0
  9 10  2  0
 10 11  1  0
 11 12  1  0
  7  1  1  0
  8 12  2  0
  3 13  1  0
  3 14  1  0
  3 15  1  0
  4 16  1  0
  5 17  1  0
  7 18  1  0
  9 19  1  0
 10 20  1  0
 11 21  1  0
A    1
 C1 
A    2
 C2 
A    3
 C3 
A    4
 C4 
A    5
 C5 
A    6
 N1 
A    7
 C6 
A    8
 C7 
A    9
 C8 
A   10
 C9 
A   11
 N2 
A   12
 N3 
A   13
 H1 
A   14
 H2 
A   15
 H3 
A   16
 H4 
A   17
 H5 
A   18
 H6 
A   19
 H7 
A   20
 H8 
A   21
 H9 
M  END
>  <ref_pdb>  (397) 
x0051_0B

>  <ref_mols>  (397) 
x0680_0B,x0386_0B

>  <original SMILES>  (397) 
[H]c1nc([H])c(-c2nn([H])c([H])c2[H])c(C([H])([H])[H])c1[H]

>  <index>  (397) 
295

>  <∆∆G>  (397) 
-5.139034

>  <∆G_bound>  (397) 
-5.171127

>  <∆G_unbound>  (397) 
-0.032093

>  <comRMSD>  (397) 
0.595248

>  <N_constrained_atoms>  (397) 
13.0

>  <N_unconstrained_atoms>  (397) 
0.0

>  <runtime>  (397) 
21.622732

>  <LE>  (397) 
0.39531

>  <percent_hybrid>  (397) 
25.0

>  <dist>  (397) 
2.0

>  <ecfp4>  (397) 
0.454545

>  <daylight>  (397) 
0.361702

>  <topodist>  (397) 
0.0

>  <mces>  (397) 
13.0

>  <tdn>  (397) 
0.0

>  <tup>  (397) 
0.0

>  <rdn>  (397) 
0.0

>  <rup>  (397) 
0.0

>  <ldn>  (397) 
0.0

>  <lup>  (397) 
0.0

>  <mut>  (397) 
2.0

>  <maj>  (397) 
2.0

>  <min>  (397) 
0.0

>  <hyb>  (397) 
0.0

>  <sub>  (397) 
0.0

>  <query_index>  (397) 
296.0

>  <max_hit_Tanimoto>  (397) 
0.152866

>  <largest_ring>  (397) 
6

>  <N_interactions_kept>  (397) 
3.5

>  <N_interactions_lost>  (397) 
0.5

>  <interaction_uniqueness_metric>  (397) 
0.018782

>  <ad_hoc_penalty>  (397) 
-19.401523

>  <N_rotatable_bonds>  (397) 
2

>  <N_HA>  (397) 
12

>  <cluster>  (397) 
5947

>  <N_interactions>  (397) 
4

>  <Enamine>  (397) 
0

>  <Mcule>  (397) 
1

>  <N_PAINS>  (397) 
0

>  <UFF_Gibbs>  (397) 
105.873125

>  <strain_per_HA>  (397) 
8.144087

>  <saltbridge:HIS:51>  (397) 
0

>  <pistack:HIS:51>  (397) 
0

>  <hydroph_interaction:HIS:51>  (397) 
0

>  <hbond:ALA:132>  (397) 
0

>  <hbond:SER:135>  (397) 
0

>  <hydroph_interaction:TYR:150>  (397) 
0

>  <pistack:TYR:161>  (397) 
0

>  <hydroph_interaction:TYR:161>  (397) 
4

>  <hydroph_interaction:ASP:83>  (397) 
0

>  <hbond:TYR:130>  (397) 
0

>  <hydroph_interaction:ALA:132>  (397) 
0

>  <hbond:HIS:51>  (397) 
0

>  <hbond:ASP:129>  (397) 
0

>  <hbond:TYR:150>  (397) 
0

>  <hbond:GLY:151>  (397) 
0

>  <hbond:TYR:161>  (397) 
0

>  <hydroph_interaction:TYR:130>  (397) 
0

>  <hydroph_interaction:PRO:131>  (397) 
0

>  <hydroph_interaction:ASP:129>  (397) 
0

>  <saltbridge:ASP:75>  (397) 
0

>  <saltbridge:ASP:83>  (397) 
0

>  <hydroph_interaction:ASN:152>  (397) 
0

>  <halogenbond:TYR:150>  (397) 
0

>  <hbond:ASP:83>  (397) 
0

>  <hydroph_interaction:VAL:155>  (397) 
0

>  <pication:TYR:161>  (397) 
0

>  <hbond:PRO:131>  (397) 
0

>  <hbond:LEU:128>  (397) 
0

>  <saltbridge:ASP:129>  (397) 
0

>  <hbond:THR:134>  (397) 
0

>  <pication:HIS:51>  (397) 
0

>  <hbond:SER:81>  (397) 
0

>  <hbond:GLY:159>  (397) 
0

>  <hydroph_interaction:PRO:101>  (397) 
0

>  <hydroph_interaction:THR:134>  (397) 
0

>  <hbond:GLY:82>  (397) 
0

>  <hydroph_interaction:GLU:104>  (397) 
0

>  <hydroph_interaction:VAL:36>  (397) 
0

>  <hydroph_interaction:MET:49>  (397) 
0

>  <halogenbond:GLU:104>  (397) 
0

>  <hydroph_interaction:LYS:107>  (397) 
0

$$$$
Z2452621935
     RDKit          3D

 53 56  0  0  0  0  0  0  0  0999 V2000
   -8.5687    8.2879  -14.0439 C   0  0  0  0  0  0  0  0  0  0  0  0
   -9.0572    6.9183  -13.8540 N   0  0  0  0  0  0  0  0  0  0  0  0
   -9.7995    6.2965  -14.9184 C   0  0  0  0  0  0  0  0  0  0  0  0
  -10.9671    5.8733  -14.6989 O   0  0  0  0  0  0  0  0  0  0  0  0
   -9.2030    6.1180  -16.2524 C   0  0  0  0  0  0  0  0  0  0  0  0
   -7.9082    6.3567  -16.5391 N   0  0  0  0  0  0  0  0  0  0  0  0
   -7.7253    6.0670  -17.8172 N   0  0  0  0  0  0  0  0  0  0  0  0
   -6.4388    6.2220  -18.5030 C   0  0  0  0  0  0  0  0  0  0  0  0
   -5.9889    4.8963  -19.1357 C   0  0  0  0  0  0  0  0  0  0  0  0
   -4.6090    5.0462  -19.8003 C   0  0  0  0  0  0  0  0  0  0  0  0
   -4.3636    6.4731  -20.3350 C   0  0  0  0  0  0  0  0  0  0  0  0
   -5.6200    7.1310  -20.7200 N   0  0  0  0  0  0  0  0  0  0  0  0
   -6.5057    7.3561  -19.5605 C   0  0  0  0  0  0  0  0  0  0  0  0
   -8.8867    5.6430  -18.3587 C   0  0  0  0  0  0  0  0  0  0  0  0
   -9.8575    5.6570  -17.3804 C   0  0  0  0  0  0  0  0  0  0  0  0
   -8.9995    6.2862  -12.5526 C   0  0  0  0  0  0  0  0  0  0  0  0
   -8.9006    7.0427  -11.3718 C   0  0  0  0  0  0  0  0  0  0  0  0
   -8.8334    6.4098  -10.1298 C   0  0  0  0  0  0  0  0  0  0  0  0
   -8.8680    5.0064  -10.0596 C   0  0  0  0  0  0  0  0  0  0  0  0
   -8.7996    4.3087   -8.7952 N   0  0  0  0  0  0  0  0  0  0  0  0
   -8.0831    3.0299   -8.7218 C   0  0  0  0  0  0  0  0  0  0  0  0
   -8.6237    2.1808   -7.5676 C   0  0  0  0  0  0  0  0  0  0  0  0
   -8.6355    2.9226   -6.3623 O   0  0  0  0  0  0  0  0  0  0  0  0
   -9.5671    3.9796   -6.4714 C   0  0  0  0  0  0  0  0  0  0  0  0
   -9.1232    4.9921   -7.5350 C   0  0  0  0  0  0  0  0  0  0  0  0
   -8.9546    4.2934  -11.2158 N   0  0  0  0  0  0  0  0  0  0  0  0
   -9.0194    4.8858  -12.4367 C   0  0  0  0  0  0  0  0  0  0  0  0
   -7.6036    8.4286  -13.5128 H   0  0  0  0  0  0  0  0  0  0  0  0
   -9.3161    9.0096  -13.6536 H   0  0  0  0  0  0  0  0  0  0  0  0
   -8.3985    8.5120  -15.1160 H   0  0  0  0  0  0  0  0  0  0  0  0
   -5.6691    6.5035  -17.7469 H   0  0  0  0  0  0  0  0  0  0  0  0
   -6.7299    4.5793  -19.9032 H   0  0  0  0  0  0  0  0  0  0  0  0
   -5.9428    4.1017  -18.3594 H   0  0  0  0  0  0  0  0  0  0  0  0
   -4.5324    4.3148  -20.6363 H   0  0  0  0  0  0  0  0  0  0  0  0
   -3.8110    4.7979  -19.0645 H   0  0  0  0  0  0  0  0  0  0  0  0
   -3.6885    6.4266  -21.2163 H   0  0  0  0  0  0  0  0  0  0  0  0
   -3.8478    7.0844  -19.5602 H   0  0  0  0  0  0  0  0  0  0  0  0
   -6.1154    6.5266  -21.4181 H   0  0  0  0  0  0  0  0  0  0  0  0
   -7.5478    7.4804  -19.9311 H   0  0  0  0  0  0  0  0  0  0  0  0
   -6.2274    8.3183  -19.0767 H   0  0  0  0  0  0  0  0  0  0  0  0
   -9.0232    5.3490  -19.3913 H   0  0  0  0  0  0  0  0  0  0  0  0
  -10.8977    5.3740  -17.4799 H   0  0  0  0  0  0  0  0  0  0  0  0
   -8.8809    8.1239  -11.4009 H   0  0  0  0  0  0  0  0  0  0  0  0
   -8.7382    7.0171   -9.2399 H   0  0  0  0  0  0  0  0  0  0  0  0
   -7.0023    3.2298   -8.5601 H   0  0  0  0  0  0  0  0  0  0  0  0
   -8.1962    2.4518   -9.6633 H   0  0  0  0  0  0  0  0  0  0  0  0
   -9.6392    1.7880   -7.8125 H   0  0  0  0  0  0  0  0  0  0  0  0
   -7.9599    1.3003   -7.4343 H   0  0  0  0  0  0  0  0  0  0  0  0
  -10.5903    3.5962   -6.6980 H   0  0  0  0  0  0  0  0  0  0  0  0
   -9.6270    4.4970   -5.4898 H   0  0  0  0  0  0  0  0  0  0  0  0
   -8.2255    5.5416   -7.1749 H   0  0  0  0  0  0  0  0  0  0  0  0
   -9.9536    5.7154   -7.6890 H   0  0  0  0  0  0  0  0  0  0  0  0
   -9.0728    4.2606  -13.3171 H   0  0  0  0  0  0  0  0  0  0  0  0
  1  2  1  0
  2  3  1  0
  3  4  2  0
  3  5  1  0
  5  6  2  0
  6  7  1  0
  7  8  1  0
  8  9  1  0
  9 10  1  0
 10 11  1  0
 11 12  1  0
 12 13  1  0
  7 14  1  0
 14 15  2  0
  2 16  1  0
 16 17  2  0
 17 18  1  0
 18 19  2  0
 19 20  1  0
 20 21  1  0
 21 22  1  0
 22 23  1  0
 23 24  1  0
 24 25  1  0
 19 26  1  0
 26 27  2  0
 15  5  1  0
 13  8  1  0
 27 16  1  0
 25 20  1  0
  1 28  1  0
  1 29  1  0
  1 30  1  0
  8 31  1  0
  9 32  1  0
  9 33  1  0
 10 34  1  0
 10 35  1  0
 11 36  1  0
 11 37  1  0
 12 38  1  0
 13 39  1  0
 13 40  1  0
 14 41  1  0
 15 42  1  0
 17 43  1  0
 18 44  1  0
 21 45  1  0
 21 46  1  0
 22 47  1  0
 22 48  1  0
 24 49  1  0
 24 50  1  0
 25 51  1  0
 25 52  1  0
 27 53  1  0
A    1
 C1 
A    2
 N1 
A    3
 C2 
A    4
 O1 
A    5
 C3 
A    6
 N2 
A    7
 N3 
A    8
 C4 
A    9
 C5 
A   10
 C6 
A   11
 C7 
A   12
 N4 
A   13
 C8 
A   14
 C9 
A   15
 C10
A   16
 C11
A   17
 C12
A   18
 C13
A   19
 C14
A   20
 N5 
A   21
 C15
A   22
 C16
A   23
 O2 
A   24
 C17
A   25
 C18
A   26
 N6 
A   27
 C19
A   28
 H1 
A   29
 H2 
A   30
 H3 
A   31
 H4 
A   32
 H5 
A   33
 H6 
A   34
 H7 
A   35
 H8 
A   36
 H9 
A   37
 H10
A   38
 H11
A   39
 H12
A   40
 H13
A   41
 H14
A   42
 H15
A   43
 H16
A   44
 H17
A   45
 H18
A   46
 H19
A   47
 H20
A   48
 H21
A   49
 H22
A   50
 H23
A   51
 H24
A   52
 H25
A   53
 H26
M  END
>  <ref_pdb>  (398) 
x0051_0B

>  <ref_mols>  (398) 
x0917_1B,x0404_0B

>  <original SMILES>  (398) 
[H]c1nc(N2C([H])([H])C([H])([H])OC([H])([H])C2([H])[H])c([H])c([H])c1N(C(=O)c1nn(C2([H])C([H])([H])N([H])C([H])([H])C([H])([H])C2([H])[H])c([H])c1[H])C([H])([H])[H]

>  <index>  (398) 
521

>  <∆∆G>  (398) 
-5.620213

>  <∆G_bound>  (398) 
-4.891363

>  <∆G_unbound>  (398) 
0.728849

>  <comRMSD>  (398) 
0.674762

>  <N_constrained_atoms>  (398) 
28.0

>  <N_unconstrained_atoms>  (398) 
1.0

>  <runtime>  (398) 
71.631898

>  <LE>  (398) 
0.1938

>  <percent_hybrid>  (398) 
48.0

>  <dist>  (398) 
10.0

>  <ecfp4>  (398) 
0.247423

>  <daylight>  (398) 
0.191781

>  <topodist>  (398) 
3.0

>  <mces>  (398) 
30.0

>  <tdn>  (398) 
3.0

>  <tup>  (398) 
0.0

>  <rdn>  (398) 
0.0

>  <rup>  (398) 
0.0

>  <ldn>  (398) 
0.0

>  <lup>  (398) 
0.0

>  <mut>  (398) 
6.0

>  <maj>  (398) 
6.0

>  <min>  (398) 
0.0

>  <hyb>  (398) 
1.0

>  <sub>  (398) 
0.0

>  <query_index>  (398) 
310.0

>  <max_hit_Tanimoto>  (398) 
0.244275

>  <largest_ring>  (398) 
6

>  <N_interactions_kept>  (398) 
2.0

>  <N_interactions_lost>  (398) 
2.0

>  <interaction_uniqueness_metric>  (398) 
0.154285

>  <ad_hoc_penalty>  (398) 
-19.383122

>  <N_rotatable_bonds>  (398) 
5

>  <N_HA>  (398) 
27

>  <cluster>  (398) 
5743

>  <N_interactions>  (398) 
7

>  <Enamine>  (398) 
1

>  <Mcule>  (398) 
0

>  <N_PAINS>  (398) 
0

>  <UFF_Gibbs>  (398) 
171.317225

>  <strain_per_HA>  (398) 
5.907491

>  <saltbridge:HIS:51>  (398) 
0

>  <pistack:HIS:51>  (398) 
1

>  <hydroph_interaction:HIS:51>  (398) 
1

>  <hbond:ALA:132>  (398) 
0

>  <hbond:SER:135>  (398) 
1

>  <hydroph_interaction:TYR:150>  (398) 
0

>  <pistack:TYR:161>  (398) 
0

>  <hydroph_interaction:TYR:161>  (398) 
3

>  <hydroph_interaction:ASP:83>  (398) 
0

>  <hbond:TYR:130>  (398) 
1

>  <hydroph_interaction:ALA:132>  (398) 
0

>  <hbond:HIS:51>  (398) 
0

>  <hbond:ASP:129>  (398) 
0

>  <hbond:TYR:150>  (398) 
0

>  <hbond:GLY:151>  (398) 
0

>  <hbond:TYR:161>  (398) 
0

>  <hydroph_interaction:TYR:130>  (398) 
0

>  <hydroph_interaction:PRO:131>  (398) 
0

>  <hydroph_interaction:ASP:129>  (398) 
0

>  <saltbridge:ASP:75>  (398) 
0

>  <saltbridge:ASP:83>  (398) 
0

>  <hydroph_interaction:ASN:152>  (398) 
0

>  <halogenbond:TYR:150>  (398) 
0

>  <hbond:ASP:83>  (398) 
0

>  <hydroph_interaction:VAL:155>  (398) 
0

>  <pication:TYR:161>  (398) 
0

>  <hbond:PRO:131>  (398) 
0

>  <hbond:LEU:128>  (398) 
0

>  <saltbridge:ASP:129>  (398) 
0

>  <hbond:THR:134>  (398) 
0

>  <pication:HIS:51>  (398) 
0

>  <hbond:SER:81>  (398) 
0

>  <hbond:GLY:159>  (398) 
0

>  <hydroph_interaction:PRO:101>  (398) 
0

>  <hydroph_interaction:THR:134>  (398) 
0

>  <hbond:GLY:82>  (398) 
0

>  <hydroph_interaction:GLU:104>  (398) 
0

>  <hydroph_interaction:VAL:36>  (398) 
0

>  <hydroph_interaction:MET:49>  (398) 
0

>  <halogenbond:GLU:104>  (398) 
0

>  <hydroph_interaction:LYS:107>  (398) 
0

$$$$
MCULE-5039398101
     RDKit          3D

 31 33  0  0  0  0  0  0  0  0999 V2000
   -6.8890    5.1283  -18.2492 C   0  0  0  0  0  0  0  0  0  0  0  0
   -6.9700    5.4523  -16.8811 C   0  0  0  0  0  0  0  0  0  0  0  0
   -5.9947    6.2420  -16.2750 C   0  0  0  0  0  0  0  0  0  0  0  0
   -4.9041    6.6980  -17.0091 C   0  0  0  0  0  0  0  0  0  0  0  0
   -4.7700    6.3594  -18.3620 C   0  0  0  0  0  0  0  0  0  0  0  0
   -3.6533    6.8118  -19.0826 C   0  0  0  0  0  0  0  0  0  0  0  0
   -3.4986    6.4743  -20.4260 C   0  0  0  0  0  0  0  0  0  0  0  0
   -4.4507    5.6795  -21.0606 C   0  0  0  0  0  0  0  0  0  0  0  0
   -5.5703    5.2214  -20.3611 C   0  0  0  0  0  0  0  0  0  0  0  0
   -5.7597    5.5598  -19.0016 C   0  0  0  0  0  0  0  0  0  0  0  0
   -8.0453    4.9894  -16.1191 O   0  0  0  0  0  0  0  0  0  0  0  0
   -8.8884    3.9402  -16.5867 C   0  0  0  0  0  0  0  0  0  0  0  0
   -9.2289    4.1442  -18.0793 C   0  0  0  0  0  0  0  0  0  0  0  0
  -10.1759    5.3457  -18.2472 C   0  0  0  0  0  0  0  0  0  0  0  0
   -9.9095    2.8757  -18.6241 C   0  0  0  0  0  0  0  0  0  0  0  0
   -7.9921    4.4002  -18.8347 N   0  0  0  0  0  0  0  0  0  0  0  0
   -6.0797    6.4966  -15.2262 H   0  0  0  0  0  0  0  0  0  0  0  0
   -4.1568    7.3078  -16.5149 H   0  0  0  0  0  0  0  0  0  0  0  0
   -2.8978    7.4246  -18.6049 H   0  0  0  0  0  0  0  0  0  0  0  0
   -2.6342    6.8245  -20.9753 H   0  0  0  0  0  0  0  0  0  0  0  0
   -4.3189    5.4120  -22.1013 H   0  0  0  0  0  0  0  0  0  0  0  0
   -6.2560    4.5922  -20.9039 H   0  0  0  0  0  0  0  0  0  0  0  0
   -9.8107    3.9063  -15.9676 H   0  0  0  0  0  0  0  0  0  0  0  0
   -8.3505    2.9762  -16.4512 H   0  0  0  0  0  0  0  0  0  0  0  0
  -11.1264    5.1776  -17.6964 H   0  0  0  0  0  0  0  0  0  0  0  0
   -9.7038    6.2738  -17.8598 H   0  0  0  0  0  0  0  0  0  0  0  0
  -10.4135    5.5030  -19.3213 H   0  0  0  0  0  0  0  0  0  0  0  0
  -10.8287    2.6439  -18.0437 H   0  0  0  0  0  0  0  0  0  0  0  0
   -9.2194    2.0072  -18.5566 H   0  0  0  0  0  0  0  0  0  0  0  0
  -10.1921    3.0107  -19.6904 H   0  0  0  0  0  0  0  0  0  0  0  0
   -8.0381    4.2406  -19.8629 H   0  0  0  0  0  0  0  0  0  0  0  0
  1  2  1  0
  2  3  2  0
  3  4  1  0
  4  5  2  0
  5  6  1  0
  6  7  2  0
  7  8  1  0
  8  9  2  0
  9 10  1  0
  2 11  1  0
 11 12  1  0
 12 13  1  0
 13 14  1  0
 13 15  1  0
 13 16  1  0
 10  1  2  0
 16  1  1  0
 10  5  1  0
  3 17  1  0
  4 18  1  0
  6 19  1  0
  7 20  1  0
  8 21  1  0
  9 22  1  0
 12 23  1  0
 12 24  1  0
 14 25  1  0
 14 26  1  0
 14 27  1  0
 15 28  1  0
 15 29  1  0
 15 30  1  0
 16 31  1  0
A    1
 C1 
A    2
 C2 
A    3
 C3 
A    4
 C4 
A    5
 C5 
A    6
 C6 
A    7
 C7 
A    8
 C8 
A    9
 C9 
A   10
 C10
A   11
 O1 
A   12
 C11
A   13
 C12
A   14
 C13
A   15
 C14
A   16
 N1 
A   17
 H1 
A   18
 H2 
A   19
 H3 
A   20
 H4 
A   21
 H5 
A   22
 H6 
A   23
 H7 
A   24
 H8 
A   25
 H9 
A   26
 H10
A   27
 H11
A   28
 H12
A   29
 H13
A   30
 H14
A   31
 H15
M  END
>  <ref_pdb>  (399) 
x0051_0B

>  <ref_mols>  (399) 
x0051_0B,x0101_0B

>  <original SMILES>  (399) 
[H]c1c([H])c([H])c2c3c(c([H])c([H])c2c1[H])OC([H])([H])C(C([H])([H])[H])(C([H])([H])[H])N3[H]

>  <index>  (399) 
299

>  <∆∆G>  (399) 
-8.253496

>  <∆G_bound>  (399) 
-8.666023

>  <∆G_unbound>  (399) 
-0.412527

>  <comRMSD>  (399) 
0.779108

>  <N_constrained_atoms>  (399) 
17.0

>  <N_unconstrained_atoms>  (399) 
1.0

>  <runtime>  (399) 
30.538658

>  <LE>  (399) 
0.458528

>  <percent_hybrid>  (399) 
45.0

>  <dist>  (399) 
6.0

>  <ecfp4>  (399) 
0.288136

>  <daylight>  (399) 
0.389189

>  <topodist>  (399) 
3.0

>  <mces>  (399) 
17.0

>  <tdn>  (399) 
1.0

>  <tup>  (399) 
0.0

>  <rdn>  (399) 
1.0

>  <rup>  (399) 
1.0

>  <ldn>  (399) 
0.0

>  <lup>  (399) 
0.0

>  <mut>  (399) 
3.0

>  <maj>  (399) 
3.0

>  <min>  (399) 
0.0

>  <hyb>  (399) 
0.0

>  <sub>  (399) 
2.0

>  <query_index>  (399) 
294.0

>  <max_hit_Tanimoto>  (399) 
0.190715

>  <largest_ring>  (399) 
6

>  <N_interactions_kept>  (399) 
3.0

>  <N_interactions_lost>  (399) 
2.0

>  <interaction_uniqueness_metric>  (399) 
0.043143

>  <ad_hoc_penalty>  (399) 
-19.380576

>  <N_rotatable_bonds>  (399) 
2

>  <N_HA>  (399) 
16

>  <cluster>  (399) 
5944

>  <N_interactions>  (399) 
5

>  <Enamine>  (399) 
0

>  <Mcule>  (399) 
1

>  <N_PAINS>  (399) 
0

>  <UFF_Gibbs>  (399) 
150.002887

>  <strain_per_HA>  (399) 
8.333494

>  <saltbridge:HIS:51>  (399) 
0

>  <pistack:HIS:51>  (399) 
0

>  <hydroph_interaction:HIS:51>  (399) 
0

>  <hbond:ALA:132>  (399) 
0

>  <hbond:SER:135>  (399) 
0

>  <hydroph_interaction:TYR:150>  (399) 
0

>  <pistack:TYR:161>  (399) 
0

>  <hydroph_interaction:TYR:161>  (399) 
4

>  <hydroph_interaction:ASP:83>  (399) 
0

>  <hbond:TYR:130>  (399) 
1

>  <hydroph_interaction:ALA:132>  (399) 
0

>  <hbond:HIS:51>  (399) 
0

>  <hbond:ASP:129>  (399) 
0

>  <hbond:TYR:150>  (399) 
0

>  <hbond:GLY:151>  (399) 
0

>  <hbond:TYR:161>  (399) 
0

>  <hydroph_interaction:TYR:130>  (399) 
0

>  <hydroph_interaction:PRO:131>  (399) 
0

>  <hydroph_interaction:ASP:129>  (399) 
0

>  <saltbridge:ASP:75>  (399) 
0

>  <saltbridge:ASP:83>  (399) 
0

>  <hydroph_interaction:ASN:152>  (399) 
0

>  <halogenbond:TYR:150>  (399) 
0

>  <hbond:ASP:83>  (399) 
0

>  <hydroph_interaction:VAL:155>  (399) 
0

>  <pication:TYR:161>  (399) 
0

>  <hbond:PRO:131>  (399) 
0

>  <hbond:LEU:128>  (399) 
0

>  <saltbridge:ASP:129>  (399) 
0

>  <hbond:THR:134>  (399) 
0

>  <pication:HIS:51>  (399) 
0

>  <hbond:SER:81>  (399) 
0

>  <hbond:GLY:159>  (399) 
0

>  <hydroph_interaction:PRO:101>  (399) 
0

>  <hydroph_interaction:THR:134>  (399) 
0

>  <hbond:GLY:82>  (399) 
0

>  <hydroph_interaction:GLU:104>  (399) 
0

>  <hydroph_interaction:VAL:36>  (399) 
0

>  <hydroph_interaction:MET:49>  (399) 
0

>  <halogenbond:GLU:104>  (399) 
0

>  <hydroph_interaction:LYS:107>  (399) 
0

$$$$
Z2770279474
     RDKit          3D

 37 40  0  0  0  0  0  0  0  0999 V2000
   -9.2727    5.9192  -18.1653 C   0  0  0  0  0  0  0  0  0  0  0  0
  -10.1036    5.6174  -17.0604 C   0  0  0  0  0  0  0  0  0  0  0  0
   -9.5417    5.2228  -15.8309 C   0  0  0  0  0  0  0  0  0  0  0  0
   -8.1527    5.1413  -15.7566 C   0  0  0  0  0  0  0  0  0  0  0  0
   -7.2850    4.8073  -14.7367 C   0  0  0  0  0  0  0  0  0  0  0  0
   -7.6492    4.4547  -13.3270 C   0  0  0  0  0  0  0  0  0  0  0  0
   -8.0324    5.6517  -12.5811 N   0  0  0  0  0  0  0  0  0  0  0  0
   -8.5503    5.6366  -11.2408 C   0  0  0  0  0  0  0  0  0  0  0  0
   -8.8236    4.5657  -10.3990 C   0  0  0  0  0  0  0  0  0  0  0  0
   -8.6994    3.0873  -10.6521 C   0  0  0  0  0  0  0  0  0  0  0  0
   -8.8603    2.2906   -9.3472 C   0  0  0  0  0  0  0  0  0  0  0  0
  -10.0305    2.8176   -8.5051 C   0  0  0  0  0  0  0  0  0  0  0  0
   -9.7937    4.2825   -8.1134 C   0  0  0  0  0  0  0  0  0  0  0  0
   -9.3796    5.0649   -9.2765 N   0  0  0  0  0  0  0  0  0  0  0  0
   -9.4356    6.3862   -9.3384 N   0  0  0  0  0  0  0  0  0  0  0  0
   -8.9390    6.7603  -10.5346 C   0  0  0  0  0  0  0  0  0  0  0  0
   -6.0136    4.9193  -15.1928 N   0  0  0  0  0  0  0  0  0  0  0  0
   -6.0621    5.2960  -16.4665 N   0  0  0  0  0  0  0  0  0  0  0  0
   -7.3499    5.4358  -16.8210 C   0  0  0  0  0  0  0  0  0  0  0  0
   -7.8716    5.8309  -18.0507 C   0  0  0  0  0  0  0  0  0  0  0  0
   -9.7165    6.2229  -19.1044 H   0  0  0  0  0  0  0  0  0  0  0  0
  -11.1786    5.6919  -17.1600 H   0  0  0  0  0  0  0  0  0  0  0  0
  -10.1669    4.9936  -14.9777 H   0  0  0  0  0  0  0  0  0  0  0  0
   -6.7744    3.9777  -12.8382 H   0  0  0  0  0  0  0  0  0  0  0  0
   -8.4969    3.7393  -13.3533 H   0  0  0  0  0  0  0  0  0  0  0  0
   -7.9295    6.5869  -13.0386 H   0  0  0  0  0  0  0  0  0  0  0  0
   -7.7055    2.8500  -11.0803 H   0  0  0  0  0  0  0  0  0  0  0  0
   -9.4908    2.7787  -11.3679 H   0  0  0  0  0  0  0  0  0  0  0  0
   -7.9217    2.3576   -8.7536 H   0  0  0  0  0  0  0  0  0  0  0  0
   -9.0323    1.2199   -9.5903 H   0  0  0  0  0  0  0  0  0  0  0  0
  -10.9739    2.7356   -9.0884 H   0  0  0  0  0  0  0  0  0  0  0  0
  -10.1362    2.2018   -7.5862 H   0  0  0  0  0  0  0  0  0  0  0  0
   -8.9979    4.3367   -7.3395 H   0  0  0  0  0  0  0  0  0  0  0  0
  -10.7283    4.7073   -7.6881 H   0  0  0  0  0  0  0  0  0  0  0  0
   -8.8767    7.7854  -10.8748 H   0  0  0  0  0  0  0  0  0  0  0  0
   -5.2251    5.4601  -17.0685 H   0  0  0  0  0  0  0  0  0  0  0  0
   -7.2253    6.0645  -18.8868 H   0  0  0  0  0  0  0  0  0  0  0  0
  1  2  2  0
  2  3  1  0
  3  4  2  0
  4  5  1  0
  5  6  1  0
  6  7  1  0
  7  8  1  0
  8  9  2  0
  9 10  1  0
 10 11  1  0
 11 12  1  0
 12 13  1  0
 13 14  1  0
 14 15  1  0
 15 16  2  0
  5 17  2  0
 17 18  1  0
 18 19  1  0
 19 20  2  0
 20  1  1  0
 19  4  1  0
 16  8  1  0
 14  9  1  0
  1 21  1  0
  2 22  1  0
  3 23  1  0
  6 24  1  0
  6 25  1  0
  7 26  1  0
 10 27  1  0
 10 28  1  0
 11 29  1  0
 11 30  1  0
 12 31  1  0
 12 32  1  0
 13 33  1  0
 13 34  1  0
 16 35  1  0
 18 36  1  0
 20 37  1  0
A    1
 C1 
A    2
 C2 
A    3
 C3 
A    4
 C4 
A    5
 C5 
A    6
 C6 
A    7
 N1 
A    8
 C7 
A    9
 C8 
A   10
 C9 
A   11
 C10
A   12
 C11
A   13
 C12
A   14
 N2 
A   15
 N3 
A   16
 C13
A   17
 N4 
A   18
 N5 
A   19
 C14
A   20
 C15
A   21
 H1 
A   22
 H2 
A   23
 H3 
A   24
 H4 
A   25
 H5 
A   26
 H6 
A   27
 H7 
A   28
 H8 
A   29
 H9 
A   30
 H10
A   31
 H11
A   32
 H12
A   33
 H13
A   34
 H14
A   35
 H15
A   36
 H16
A   37
 H17
M  END
>  <ref_pdb>  (400) 
x0051_0B

>  <ref_mols>  (400) 
x0951_0B,x0969_1B

>  <original SMILES>  (400) 
[H]c1nn2c(c1N([H])C([H])([H])c1nn([H])c3c([H])c([H])c([H])c([H])c13)C([H])([H])C([H])([H])C([H])([H])C2([H])[H]

>  <index>  (400) 
424

>  <∆∆G>  (400) 
-6.200886

>  <∆G_bound>  (400) 
-5.805047

>  <∆G_unbound>  (400) 
0.395839

>  <comRMSD>  (400) 
0.648681

>  <N_constrained_atoms>  (400) 
21.0

>  <N_unconstrained_atoms>  (400) 
0.0

>  <runtime>  (400) 
46.459597

>  <LE>  (400) 
0.29528

>  <percent_hybrid>  (400) 
48.0

>  <dist>  (400) 
4.0

>  <ecfp4>  (400) 
0.181818

>  <daylight>  (400) 
0.431159

>  <topodist>  (400) 
1.0

>  <mces>  (400) 
23.0

>  <tdn>  (400) 
1.0

>  <tup>  (400) 
0.0

>  <rdn>  (400) 
0.0

>  <rup>  (400) 
0.0

>  <ldn>  (400) 
0.0

>  <lup>  (400) 
0.0

>  <mut>  (400) 
2.0

>  <maj>  (400) 
2.0

>  <min>  (400) 
0.0

>  <hyb>  (400) 
1.0

>  <sub>  (400) 
1.0

>  <query_index>  (400) 
201.0

>  <max_hit_Tanimoto>  (400) 
0.27177

>  <largest_ring>  (400) 
6

>  <N_interactions_kept>  (400) 
1.0

>  <N_interactions_lost>  (400) 
2.0

>  <interaction_uniqueness_metric>  (400) 
0.111558

>  <ad_hoc_penalty>  (400) 
-19.379716

>  <N_rotatable_bonds>  (400) 
3

>  <N_HA>  (400) 
20

>  <cluster>  (400) 
5834

>  <N_interactions>  (400) 
6

>  <Enamine>  (400) 
1

>  <Mcule>  (400) 
0

>  <N_PAINS>  (400) 
0

>  <UFF_Gibbs>  (400) 
145.443478

>  <strain_per_HA>  (400) 
6.92588

>  <saltbridge:HIS:51>  (400) 
0

>  <pistack:HIS:51>  (400) 
2

>  <hydroph_interaction:HIS:51>  (400) 
1

>  <hbond:ALA:132>  (400) 
0

>  <hbond:SER:135>  (400) 
0

>  <hydroph_interaction:TYR:150>  (400) 
1

>  <pistack:TYR:161>  (400) 
2

>  <hydroph_interaction:TYR:161>  (400) 
0

>  <hydroph_interaction:ASP:83>  (400) 
0

>  <hbond:TYR:130>  (400) 
0

>  <hydroph_interaction:ALA:132>  (400) 
0

>  <hbond:HIS:51>  (400) 
0

>  <hbond:ASP:129>  (400) 
0

>  <hbond:TYR:150>  (400) 
0

>  <hbond:GLY:151>  (400) 
0

>  <hbond:TYR:161>  (400) 
0

>  <hydroph_interaction:TYR:130>  (400) 
0

>  <hydroph_interaction:PRO:131>  (400) 
0

>  <hydroph_interaction:ASP:129>  (400) 
0

>  <saltbridge:ASP:75>  (400) 
0

>  <saltbridge:ASP:83>  (400) 
0

>  <hydroph_interaction:ASN:152>  (400) 
0

>  <halogenbond:TYR:150>  (400) 
0

>  <hbond:ASP:83>  (400) 
0

>  <hydroph_interaction:VAL:155>  (400) 
0

>  <pication:TYR:161>  (400) 
0

>  <hbond:PRO:131>  (400) 
0

>  <hbond:LEU:128>  (400) 
0

>  <saltbridge:ASP:129>  (400) 
0

>  <hbond:THR:134>  (400) 
0

>  <pication:HIS:51>  (400) 
0

>  <hbond:SER:81>  (400) 
0

>  <hbond:GLY:159>  (400) 
0

>  <hydroph_interaction:PRO:101>  (400) 
0

>  <hydroph_interaction:THR:134>  (400) 
0

>  <hbond:GLY:82>  (400) 
0

>  <hydroph_interaction:GLU:104>  (400) 
0

>  <hydroph_interaction:VAL:36>  (400) 
0

>  <hydroph_interaction:MET:49>  (400) 
0

>  <halogenbond:GLU:104>  (400) 
0

>  <hydroph_interaction:LYS:107>  (400) 
0

$$$$
CSCS00000317877
     RDKit          3D

 34 35  0  0  0  0  0  0  0  0999 V2000
   -3.9611    5.2030  -13.6163 C   0  0  0  0  0  0  0  0  0  0  0  0
   -3.8864    5.1244  -15.1419 C   0  0  0  0  0  0  0  0  0  0  0  0
   -2.6689    4.3126  -15.5869 C   0  0  0  0  0  0  0  0  0  0  0  0
   -3.8109    6.4754  -15.7045 N   0  0  0  0  0  0  0  0  0  0  0  0
   -4.5072    6.8529  -16.8999 C   0  0  0  0  0  0  0  0  0  0  0  0
   -4.0279    7.7593  -17.6327 O   0  0  0  0  0  0  0  0  0  0  0  0
   -5.7411    6.2152  -17.2717 N   0  0  0  0  0  0  0  0  0  0  0  0
   -6.8758    6.3195  -16.3329 C   0  0  0  0  0  0  0  0  0  0  0  0
   -7.8122    5.1142  -16.4537 C   0  0  0  0  0  0  0  0  0  0  0  0
   -8.1685    4.9310  -17.8861 C   0  0  0  0  0  0  0  0  0  0  0  0
   -7.3144    5.2474  -18.9247 C   0  0  0  0  0  0  0  0  0  0  0  0
   -7.8598    4.9743  -20.1875 C   0  0  0  0  0  0  0  0  0  0  0  0
   -9.1395    4.4320  -20.1270 C   0  0  0  0  0  0  0  0  0  0  0  0
   -9.5907    4.2917  -18.5085 S   0  0  0  0  0  0  0  0  0  0  0  0
   -5.9259    5.7882  -18.6803 C   0  0  0  0  0  0  0  0  0  0  0  0
   -4.8965    4.7072  -19.0337 C   0  0  0  0  0  0  0  0  0  0  0  0
   -4.8535    5.7906  -13.3130 H   0  0  0  0  0  0  0  0  0  0  0  0
   -3.0532    5.6936  -13.2042 H   0  0  0  0  0  0  0  0  0  0  0  0
   -4.0494    4.1838  -13.1832 H   0  0  0  0  0  0  0  0  0  0  0  0
   -4.7965    4.5995  -15.5018 H   0  0  0  0  0  0  0  0  0  0  0  0
   -2.7272    3.2794  -15.1827 H   0  0  0  0  0  0  0  0  0  0  0  0
   -2.6410    4.2532  -16.6956 H   0  0  0  0  0  0  0  0  0  0  0  0
   -1.7302    4.7887  -15.2308 H   0  0  0  0  0  0  0  0  0  0  0  0
   -3.0389    7.0996  -15.3760 H   0  0  0  0  0  0  0  0  0  0  0  0
   -7.4418    7.2505  -16.5553 H   0  0  0  0  0  0  0  0  0  0  0  0
   -6.5182    6.3887  -15.2832 H   0  0  0  0  0  0  0  0  0  0  0  0
   -7.3013    4.1995  -16.0849 H   0  0  0  0  0  0  0  0  0  0  0  0
   -8.7291    5.2873  -15.8510 H   0  0  0  0  0  0  0  0  0  0  0  0
   -7.3365    5.1544  -21.1173 H   0  0  0  0  0  0  0  0  0  0  0  0
   -9.7398    4.1416  -20.9784 H   0  0  0  0  0  0  0  0  0  0  0  0
   -5.7719    6.6627  -19.3499 H   0  0  0  0  0  0  0  0  0  0  0  0
   -5.0066    3.8337  -18.3553 H   0  0  0  0  0  0  0  0  0  0  0  0
   -5.0291    4.3697  -20.0837 H   0  0  0  0  0  0  0  0  0  0  0  0
   -3.8660    5.1081  -18.9354 H   0  0  0  0  0  0  0  0  0  0  0  0
  1  2  1  0
  2  3  1  0
  2  4  1  0
  4  5  1  0
  5  6  2  0
  5  7  1  0
  7  8  1  0
  8  9  1  0
  9 10  1  0
 10 11  2  0
 11 12  1  0
 12 13  2  0
 13 14  1  0
 11 15  1  0
 15 16  1  0
 15  7  1  0
 14 10  1  0
  1 17  1  0
  1 18  1  0
  1 19  1  0
  2 20  1  0
  3 21  1  0
  3 22  1  0
  3 23  1  0
  4 24  1  0
  8 25  1  0
  8 26  1  0
  9 27  1  0
  9 28  1  0
 12 29  1  0
 13 30  1  0
 15 31  1  0
 16 32  1  0
 16 33  1  0
 16 34  1  0
A    1
 C1 
A    2
 C2 
A    3
 C3 
A    4
 N1 
A    5
 C4 
A    6
 O1 
A    7
 N2 
A    8
 C5 
A    9
 C6 
A   10
 C7 
A   11
 C8 
A   12
 C9 
A   13
 C10
A   14
 S1 
A   15
 C11
A   16
 C12
A   17
 H1 
A   18
 H2 
A   19
 H3 
A   20
 H4 
A   21
 H5 
A   22
 H6 
A   23
 H7 
A   24
 H8 
A   25
 H9 
A   26
 H10
A   27
 H11
A   28
 H12
A   29
 H13
A   30
 H14
A   31
 H15
A   32
 H16
A   33
 H17
A   34
 H18
M  END
>  <ref_pdb>  (401) 
x0051_0B

>  <ref_mols>  (401) 
x0472_0B,x0386_0B

>  <original SMILES>  (401) 
[H]c1sc2c(c1[H])C([H])(C([H])([H])[H])N(C(=O)N([H])C([H])(C([H])([H])[H])C([H])([H])[H])C([H])([H])C2([H])[H]

>  <index>  (401) 
176

>  <∆∆G>  (401) 
-8.176671

>  <∆G_bound>  (401) 
-8.130684

>  <∆G_unbound>  (401) 
0.045988

>  <comRMSD>  (401) 
0.432073

>  <N_constrained_atoms>  (401) 
14.0

>  <N_unconstrained_atoms>  (401) 
2.0

>  <runtime>  (401) 
23.973982

>  <LE>  (401) 
0.511042

>  <percent_hybrid>  (401) 
13.0

>  <dist>  (401) 
6.0

>  <ecfp4>  (401) 
0.37037

>  <daylight>  (401) 
0.640523

>  <topodist>  (401) 
2.0

>  <mces>  (401) 
15.0

>  <tdn>  (401) 
0.0

>  <tup>  (401) 
1.0

>  <rdn>  (401) 
0.0

>  <rup>  (401) 
0.0

>  <ldn>  (401) 
0.0

>  <lup>  (401) 
1.0

>  <mut>  (401) 
3.0

>  <maj>  (401) 
3.0

>  <min>  (401) 
0.0

>  <hyb>  (401) 
1.0

>  <sub>  (401) 
1.0

>  <query_index>  (401) 
75.0

>  <max_hit_Tanimoto>  (401) 
0.533816

>  <largest_ring>  (401) 
6

>  <N_interactions_kept>  (401) 
3.0

>  <N_interactions_lost>  (401) 
0.0

>  <interaction_uniqueness_metric>  (401) 
0.046449

>  <ad_hoc_penalty>  (401) 
-19.370686

>  <N_rotatable_bonds>  (401) 
4

>  <N_HA>  (401) 
16

>  <cluster>  (401) 
6060

>  <N_interactions>  (401) 
3

>  <Enamine>  (401) 
1

>  <Mcule>  (401) 
0

>  <N_PAINS>  (401) 
0

>  <UFF_Gibbs>  (401) 
182.753932

>  <strain_per_HA>  (401) 
11.422121

>  <saltbridge:HIS:51>  (401) 
0

>  <pistack:HIS:51>  (401) 
0

>  <hydroph_interaction:HIS:51>  (401) 
0

>  <hbond:ALA:132>  (401) 
0

>  <hbond:SER:135>  (401) 
0

>  <hydroph_interaction:TYR:150>  (401) 
0

>  <pistack:TYR:161>  (401) 
0

>  <hydroph_interaction:TYR:161>  (401) 
2

>  <hydroph_interaction:ASP:83>  (401) 
0

>  <hbond:TYR:130>  (401) 
0

>  <hydroph_interaction:ALA:132>  (401) 
0

>  <hbond:HIS:51>  (401) 
0

>  <hbond:ASP:129>  (401) 
0

>  <hbond:TYR:150>  (401) 
0

>  <hbond:GLY:151>  (401) 
0

>  <hbond:TYR:161>  (401) 
0

>  <hydroph_interaction:TYR:130>  (401) 
0

>  <hydroph_interaction:PRO:131>  (401) 
0

>  <hydroph_interaction:ASP:129>  (401) 
0

>  <saltbridge:ASP:75>  (401) 
0

>  <saltbridge:ASP:83>  (401) 
0

>  <hydroph_interaction:ASN:152>  (401) 
0

>  <halogenbond:TYR:150>  (401) 
0

>  <hbond:ASP:83>  (401) 
0

>  <hydroph_interaction:VAL:155>  (401) 
1

>  <pication:TYR:161>  (401) 
0

>  <hbond:PRO:131>  (401) 
0

>  <hbond:LEU:128>  (401) 
0

>  <saltbridge:ASP:129>  (401) 
0

>  <hbond:THR:134>  (401) 
0

>  <pication:HIS:51>  (401) 
0

>  <hbond:SER:81>  (401) 
0

>  <hbond:GLY:159>  (401) 
0

>  <hydroph_interaction:PRO:101>  (401) 
0

>  <hydroph_interaction:THR:134>  (401) 
0

>  <hbond:GLY:82>  (401) 
0

>  <hydroph_interaction:GLU:104>  (401) 
0

>  <hydroph_interaction:VAL:36>  (401) 
0

>  <hydroph_interaction:MET:49>  (401) 
0

>  <halogenbond:GLU:104>  (401) 
0

>  <hydroph_interaction:LYS:107>  (401) 
0

$$$$
MCULE-9315742742
     RDKit          3D

 23 24  0  0  0  0  0  0  0  0999 V2000
   -3.1486    5.2865  -16.5995 C   0  0  0  0  0  0  0  0  0  0  0  0
   -4.6636    5.2222  -16.3961 C   0  0  0  0  0  0  0  0  0  0  0  0
   -5.5117    5.2211  -17.6641 C   0  0  0  0  0  0  0  0  0  0  0  0
   -6.9300    5.1634  -17.5779 C   0  0  0  0  0  0  0  0  0  0  0  0
   -7.6920    5.1639  -18.7751 C   0  0  0  0  0  0  0  0  0  0  0  0
   -9.0897    5.1080  -18.7248 C   0  0  0  0  0  0  0  0  0  0  0  0
   -9.7467    5.0512  -17.4954 C   0  0  0  0  0  0  0  0  0  0  0  0
   -9.0121    5.0500  -16.3094 C   0  0  0  0  0  0  0  0  0  0  0  0
   -7.6158    5.1054  -16.3439 C   0  0  0  0  0  0  0  0  0  0  0  0
   -7.0715    5.2186  -19.9809 N   0  0  0  0  0  0  0  0  0  0  0  0
   -5.7220    5.2741  -20.0885 C   0  0  0  0  0  0  0  0  0  0  0  0
   -4.9236    5.2765  -18.9461 C   0  0  0  0  0  0  0  0  0  0  0  0
   -2.6444    5.2812  -15.6101 H   0  0  0  0  0  0  0  0  0  0  0  0
   -2.8659    6.2230  -17.1258 H   0  0  0  0  0  0  0  0  0  0  0  0
   -2.7947    4.4027  -17.1718 H   0  0  0  0  0  0  0  0  0  0  0  0
   -4.8854    4.2978  -15.8202 H   0  0  0  0  0  0  0  0  0  0  0  0
   -4.9557    6.0962  -15.7747 H   0  0  0  0  0  0  0  0  0  0  0  0
   -9.6692    5.1085  -19.6400 H   0  0  0  0  0  0  0  0  0  0  0  0
  -10.8277    5.0081  -17.4616 H   0  0  0  0  0  0  0  0  0  0  0  0
   -9.5267    5.0058  -15.3580 H   0  0  0  0  0  0  0  0  0  0  0  0
   -7.0891    5.1022  -15.3997 H   0  0  0  0  0  0  0  0  0  0  0  0
   -5.2646    5.3168  -21.0681 H   0  0  0  0  0  0  0  0  0  0  0  0
   -3.8533    5.3218  -19.0846 H   0  0  0  0  0  0  0  0  0  0  0  0
  1  2  1  0
  2  3  1  0
  3  4  2  0
  4  5  1  0
  5  6  1  0
  6  7  2  0
  7  8  1  0
  8  9  2  0
  5 10  2  0
 10 11  1  0
 11 12  2  0
 12  3  1  0
  9  4  1  0
  1 13  1  0
  1 14  1  0
  1 15  1  0
  2 16  1  0
  2 17  1  0
  6 18  1  0
  7 19  1  0
  8 20  1  0
  9 21  1  0
 11 22  1  0
 12 23  1  0
A    1
 C1 
A    2
 C2 
A    3
 C3 
A    4
 C4 
A    5
 C5 
A    6
 C6 
A    7
 C7 
A    8
 C8 
A    9
 C9 
A   10
 N1 
A   11
 C10
A   12
 C11
A   13
 H1 
A   14
 H2 
A   15
 H3 
A   16
 H4 
A   17
 H5 
A   18
 H6 
A   19
 H7 
A   20
 H8 
A   21
 H9 
A   22
 H10
A   23
 H11
M  END
>  <ref_pdb>  (402) 
x0051_0B

>  <ref_mols>  (402) 
x0425_0B,x0435_0B

>  <original SMILES>  (402) 
[H]c1nc2c([H])c([H])c([H])c([H])c2c(C([H])([H])C([H])([H])[H])c1[H]

>  <index>  (402) 
723

>  <∆∆G>  (402) 
-6.212201

>  <∆G_bound>  (402) 
-6.238678

>  <∆G_unbound>  (402) 
-0.026477

>  <comRMSD>  (402) 
0.934441

>  <N_constrained_atoms>  (402) 
13.0

>  <N_unconstrained_atoms>  (402) 
0.0

>  <runtime>  (402) 
21.933876

>  <LE>  (402) 
0.477862

>  <percent_hybrid>  (402) 
40.0

>  <dist>  (402) 
2.0

>  <ecfp4>  (402) 
0.341463

>  <daylight>  (402) 
0.573529

>  <topodist>  (402) 
1.0

>  <mces>  (402) 
13.0

>  <tdn>  (402) 
1.0

>  <tup>  (402) 
0.0

>  <rdn>  (402) 
0.0

>  <rup>  (402) 
0.0

>  <ldn>  (402) 
0.0

>  <lup>  (402) 
0.0

>  <mut>  (402) 
1.0

>  <maj>  (402) 
1.0

>  <min>  (402) 
0.0

>  <hyb>  (402) 
0.0

>  <sub>  (402) 
1.0

>  <query_index>  (402) 
107.0

>  <max_hit_Tanimoto>  (402) 
0.180498

>  <largest_ring>  (402) 
6

>  <N_interactions_kept>  (402) 
1.0

>  <N_interactions_lost>  (402) 
2.5

>  <interaction_uniqueness_metric>  (402) 
0.06793

>  <ad_hoc_penalty>  (402) 
-19.369279

>  <N_rotatable_bonds>  (402) 
2

>  <N_HA>  (402) 
12

>  <cluster>  (402) 
5558

>  <N_interactions>  (402) 
6

>  <Enamine>  (402) 
0

>  <Mcule>  (402) 
1

>  <N_PAINS>  (402) 
0

>  <UFF_Gibbs>  (402) 
31.283481

>  <strain_per_HA>  (402) 
2.406422

>  <saltbridge:HIS:51>  (402) 
0

>  <pistack:HIS:51>  (402) 
0

>  <hydroph_interaction:HIS:51>  (402) 
0

>  <hbond:ALA:132>  (402) 
0

>  <hbond:SER:135>  (402) 
0

>  <hydroph_interaction:TYR:150>  (402) 
0

>  <pistack:TYR:161>  (402) 
2

>  <hydroph_interaction:TYR:161>  (402) 
3

>  <hydroph_interaction:ASP:83>  (402) 
0

>  <hbond:TYR:130>  (402) 
0

>  <hydroph_interaction:ALA:132>  (402) 
0

>  <hbond:HIS:51>  (402) 
0

>  <hbond:ASP:129>  (402) 
0

>  <hbond:TYR:150>  (402) 
0

>  <hbond:GLY:151>  (402) 
0

>  <hbond:TYR:161>  (402) 
0

>  <hydroph_interaction:TYR:130>  (402) 
0

>  <hydroph_interaction:PRO:131>  (402) 
0

>  <hydroph_interaction:ASP:129>  (402) 
0

>  <saltbridge:ASP:75>  (402) 
0

>  <saltbridge:ASP:83>  (402) 
0

>  <hydroph_interaction:ASN:152>  (402) 
0

>  <halogenbond:TYR:150>  (402) 
0

>  <hbond:ASP:83>  (402) 
0

>  <hydroph_interaction:VAL:155>  (402) 
1

>  <pication:TYR:161>  (402) 
0

>  <hbond:PRO:131>  (402) 
0

>  <hbond:LEU:128>  (402) 
0

>  <saltbridge:ASP:129>  (402) 
0

>  <hbond:THR:134>  (402) 
0

>  <pication:HIS:51>  (402) 
0

>  <hbond:SER:81>  (402) 
0

>  <hbond:GLY:159>  (402) 
0

>  <hydroph_interaction:PRO:101>  (402) 
0

>  <hydroph_interaction:THR:134>  (402) 
0

>  <hbond:GLY:82>  (402) 
0

>  <hydroph_interaction:GLU:104>  (402) 
0

>  <hydroph_interaction:VAL:36>  (402) 
0

>  <hydroph_interaction:MET:49>  (402) 
0

>  <halogenbond:GLU:104>  (402) 
0

>  <hydroph_interaction:LYS:107>  (402) 
0

$$$$
Z2850290656
     RDKit          3D

 52 54  0  0  0  0  0  0  0  0999 V2000
   -6.5893    5.3782  -15.8560 C   0  0  0  0  0  0  0  0  0  0  0  0
   -7.5271    5.7476  -16.9835 C   0  0  0  0  0  0  0  0  0  0  0  0
   -8.8228    6.0434  -16.7461 C   0  0  0  0  0  0  0  0  0  0  0  0
   -9.4763    5.9409  -15.4286 C   0  0  0  0  0  0  0  0  0  0  0  0
  -10.2349    6.8744  -15.0528 O   0  0  0  0  0  0  0  0  0  0  0  0
   -9.3169    4.7727  -14.6116 N   0  0  0  0  0  0  0  0  0  0  0  0
   -9.6946    4.7475  -13.2008 C   0  0  0  0  0  0  0  0  0  0  0  0
   -8.7060    5.5708  -12.3725 C   0  0  0  0  0  0  0  0  0  0  0  0
   -9.0606    5.5145  -10.9175 C   0  0  0  0  0  0  0  0  0  0  0  0
   -8.7132    4.5507   -9.9926 C   0  0  0  0  0  0  0  0  0  0  0  0
   -7.8998    3.3085  -10.2096 C   0  0  0  0  0  0  0  0  0  0  0  0
   -7.4936    2.6934   -8.8609 C   0  0  0  0  0  0  0  0  0  0  0  0
   -8.6811    2.6469   -7.8849 C   0  0  0  0  0  0  0  0  0  0  0  0
   -9.2114    4.0616   -7.5991 C   0  0  0  0  0  0  0  0  0  0  0  0
   -9.3544    4.8188   -8.8412 N   0  0  0  0  0  0  0  0  0  0  0  0
  -10.0740    5.9224   -8.9694 N   0  0  0  0  0  0  0  0  0  0  0  0
   -9.9212    6.3605  -10.2373 C   0  0  0  0  0  0  0  0  0  0  0  0
   -6.9720    5.9380  -18.3896 C   0  0  0  0  0  0  0  0  0  0  0  0
   -6.1675    7.2532  -18.4799 C   0  0  0  0  0  0  0  0  0  0  0  0
   -5.4200    7.3376  -19.8147 C   0  0  0  0  0  0  0  0  0  0  0  0
   -4.4299    6.1698  -20.0154 C   0  0  0  0  0  0  0  0  0  0  0  0
   -4.6750    4.9778  -19.0733 C   0  0  0  0  0  0  0  0  0  0  0  0
   -6.1725    4.6967  -18.8842 C   0  0  0  0  0  0  0  0  0  0  0  0
   -6.7860    4.3425  -15.5150 H   0  0  0  0  0  0  0  0  0  0  0  0
   -6.7075    6.0840  -15.0066 H   0  0  0  0  0  0  0  0  0  0  0  0
   -5.5312    5.4242  -16.1785 H   0  0  0  0  0  0  0  0  0  0  0  0
   -9.4271    6.4541  -17.5463 H   0  0  0  0  0  0  0  0  0  0  0  0
   -8.9876    3.8852  -15.0531 H   0  0  0  0  0  0  0  0  0  0  0  0
   -9.6862    3.6947  -12.8427 H   0  0  0  0  0  0  0  0  0  0  0  0
  -10.7269    5.1427  -13.0796 H   0  0  0  0  0  0  0  0  0  0  0  0
   -8.7202    6.6295  -12.7096 H   0  0  0  0  0  0  0  0  0  0  0  0
   -7.6768    5.1798  -12.5215 H   0  0  0  0  0  0  0  0  0  0  0  0
   -6.9880    3.5470  -10.7969 H   0  0  0  0  0  0  0  0  0  0  0  0
   -8.5103    2.5770  -10.7811 H   0  0  0  0  0  0  0  0  0  0  0  0
   -7.1115    1.6634   -9.0282 H   0  0  0  0  0  0  0  0  0  0  0  0
   -6.6717    3.2937   -8.4120 H   0  0  0  0  0  0  0  0  0  0  0  0
   -8.3619    2.1729   -6.9319 H   0  0  0  0  0  0  0  0  0  0  0  0
   -9.4945    2.0278   -8.3230 H   0  0  0  0  0  0  0  0  0  0  0  0
  -10.1944    3.9927   -7.0858 H   0  0  0  0  0  0  0  0  0  0  0  0
   -8.5015    4.5953   -6.9313 H   0  0  0  0  0  0  0  0  0  0  0  0
  -10.4173    7.2313  -10.6445 H   0  0  0  0  0  0  0  0  0  0  0  0
   -7.8254    6.0478  -19.0985 H   0  0  0  0  0  0  0  0  0  0  0  0
   -6.8614    8.1179  -18.3938 H   0  0  0  0  0  0  0  0  0  0  0  0
   -5.4327    7.3297  -17.6491 H   0  0  0  0  0  0  0  0  0  0  0  0
   -4.8717    8.3031  -19.8676 H   0  0  0  0  0  0  0  0  0  0  0  0
   -6.1645    7.3351  -20.6414 H   0  0  0  0  0  0  0  0  0  0  0  0
   -3.3916    6.5344  -19.8570 H   0  0  0  0  0  0  0  0  0  0  0  0
   -4.4963    5.8197  -21.0688 H   0  0  0  0  0  0  0  0  0  0  0  0
   -4.1790    4.0738  -19.4880 H   0  0  0  0  0  0  0  0  0  0  0  0
   -4.2072    5.1855  -18.0877 H   0  0  0  0  0  0  0  0  0  0  0  0
   -6.5836    4.3666  -19.8644 H   0  0  0  0  0  0  0  0  0  0  0  0
   -6.2945    3.8348  -18.1925 H   0  0  0  0  0  0  0  0  0  0  0  0
  1  2  1  0
  2  3  2  3
  3  4  1  0
  4  5  2  0
  4  6  1  0
  6  7  1  0
  7  8  1  0
  8  9  1  0
  9 10  2  0
 10 11  1  0
 11 12  1  0
 12 13  1  0
 13 14  1  0
 14 15  1  0
 15 16  1  0
 16 17  2  0
  2 18  1  0
 18 19  1  0
 19 20  1  0
 20 21  1  0
 21 22  1  0
 22 23  1  0
 17  9  1  0
 15 10  1  0
 23 18  1  0
  1 24  1  0
  1 25  1  0
  1 26  1  0
  3 27  1  0
  6 28  1  0
  7 29  1  0
  7 30  1  0
  8 31  1  0
  8 32  1  0
 11 33  1  0
 11 34  1  0
 12 35  1  0
 12 36  1  0
 13 37  1  0
 13 38  1  0
 14 39  1  0
 14 40  1  0
 17 41  1  0
 18 42  1  0
 19 43  1  0
 19 44  1  0
 20 45  1  0
 20 46  1  0
 21 47  1  0
 21 48  1  0
 22 49  1  0
 22 50  1  0
 23 51  1  0
 23 52  1  0
A    1
 C1 
A    2
 C2 
A    3
 C3 
A    4
 C4 
A    5
 O1 
A    6
 N1 
A    7
 C5 
A    8
 C6 
A    9
 C7 
A   10
 C8 
A   11
 C9 
A   12
 C10
A   13
 C11
A   14
 C12
A   15
 N2 
A   16
 N3 
A   17
 C13
A   18
 C14
A   19
 C15
A   20
 C16
A   21
 C17
A   22
 C18
A   23
 C19
A   24
 H1 
A   25
 H2 
A   26
 H3 
A   27
 H4 
A   28
 H5 
A   29
 H6 
A   30
 H7 
A   31
 H8 
A   32
 H9 
A   33
 H10
A   34
 H11
A   35
 H12
A   36
 H13
A   37
 H14
A   38
 H15
A   39
 H16
A   40
 H17
A   41
 H18
A   42
 H19
A   43
 H20
A   44
 H21
A   45
 H22
A   46
 H23
A   47
 H24
A   48
 H25
A   49
 H26
A   50
 H27
A   51
 H28
A   52
 H29
M  END
>  <ref_pdb>  (403) 
x0051_0B

>  <ref_mols>  (403) 
x0969_1B,x0803_0B

>  <original SMILES>  (403) 
[H]C(C(=O)N([H])C([H])([H])C([H])([H])c1c([H])nn2c1C([H])([H])C([H])([H])C([H])([H])C2([H])[H])=C(C([H])([H])[H])C1([H])C([H])([H])C([H])([H])C([H])([H])C([H])([H])C1([H])[H]

>  <index>  (403) 
599

>  <∆∆G>  (403) 
-5.17475

>  <∆G_bound>  (403) 
-4.583649

>  <∆G_unbound>  (403) 
0.591101

>  <comRMSD>  (403) 
0.656431

>  <N_constrained_atoms>  (403) 
21.0

>  <N_unconstrained_atoms>  (403) 
4.0

>  <runtime>  (403) 
77.988126

>  <LE>  (403) 
0.20699

>  <percent_hybrid>  (403) 
48.0

>  <dist>  (403) 
8.0

>  <ecfp4>  (403) 
0.272727

>  <daylight>  (403) 
0.271523

>  <topodist>  (403) 
2.0

>  <mces>  (403) 
25.0

>  <tdn>  (403) 
0.0

>  <tup>  (403) 
0.0

>  <rdn>  (403) 
1.0

>  <rup>  (403) 
0.0

>  <ldn>  (403) 
1.0

>  <lup>  (403) 
0.0

>  <mut>  (403) 
6.0

>  <maj>  (403) 
6.0

>  <min>  (403) 
0.0

>  <hyb>  (403) 
0.0

>  <sub>  (403) 
0.0

>  <query_index>  (403) 
360.0

>  <max_hit_Tanimoto>  (403) 
0.332971

>  <largest_ring>  (403) 
6

>  <N_interactions_kept>  (403) 
4.0

>  <N_interactions_lost>  (403) 
2.0

>  <interaction_uniqueness_metric>  (403) 
0.240987

>  <ad_hoc_penalty>  (403) 
-19.334364

>  <N_rotatable_bonds>  (403) 
6

>  <N_HA>  (403) 
23

>  <cluster>  (403) 
5670

>  <N_interactions>  (403) 
8

>  <Enamine>  (403) 
1

>  <Mcule>  (403) 
0

>  <N_PAINS>  (403) 
0

>  <UFF_Gibbs>  (403) 
138.565077

>  <strain_per_HA>  (403) 
5.542603

>  <saltbridge:HIS:51>  (403) 
0

>  <pistack:HIS:51>  (403) 
1

>  <hydroph_interaction:HIS:51>  (403) 
0

>  <hbond:ALA:132>  (403) 
0

>  <hbond:SER:135>  (403) 
1

>  <hydroph_interaction:TYR:150>  (403) 
0

>  <pistack:TYR:161>  (403) 
0

>  <hydroph_interaction:TYR:161>  (403) 
3

>  <hydroph_interaction:ASP:83>  (403) 
1

>  <hbond:TYR:130>  (403) 
0

>  <hydroph_interaction:ALA:132>  (403) 
1

>  <hbond:HIS:51>  (403) 
0

>  <hbond:ASP:129>  (403) 
0

>  <hbond:TYR:150>  (403) 
0

>  <hbond:GLY:151>  (403) 
0

>  <hbond:TYR:161>  (403) 
1

>  <hydroph_interaction:TYR:130>  (403) 
0

>  <hydroph_interaction:PRO:131>  (403) 
0

>  <hydroph_interaction:ASP:129>  (403) 
0

>  <saltbridge:ASP:75>  (403) 
0

>  <saltbridge:ASP:83>  (403) 
0

>  <hydroph_interaction:ASN:152>  (403) 
0

>  <halogenbond:TYR:150>  (403) 
0

>  <hbond:ASP:83>  (403) 
0

>  <hydroph_interaction:VAL:155>  (403) 
0

>  <pication:TYR:161>  (403) 
0

>  <hbond:PRO:131>  (403) 
0

>  <hbond:LEU:128>  (403) 
0

>  <saltbridge:ASP:129>  (403) 
0

>  <hbond:THR:134>  (403) 
0

>  <pication:HIS:51>  (403) 
0

>  <hbond:SER:81>  (403) 
0

>  <hbond:GLY:159>  (403) 
0

>  <hydroph_interaction:PRO:101>  (403) 
0

>  <hydroph_interaction:THR:134>  (403) 
0

>  <hbond:GLY:82>  (403) 
0

>  <hydroph_interaction:GLU:104>  (403) 
0

>  <hydroph_interaction:VAL:36>  (403) 
0

>  <hydroph_interaction:MET:49>  (403) 
0

>  <halogenbond:GLU:104>  (403) 
0

>  <hydroph_interaction:LYS:107>  (403) 
0

$$$$
ZJXGGPNPWSBDPG-UHFFFAOYSA-N
     RDKit          3D

 47 49  0  0  0  0  0  0  0  0999 V2000
   -8.2632    5.8586  -14.4396 C   0  0  0  0  0  0  0  0  0  0  0  0
   -8.2495    4.8912  -15.5012 N   0  0  0  0  0  0  0  0  0  0  0  0
   -7.8381    5.2304  -16.8358 C   0  0  0  0  0  0  0  0  0  0  0  0
   -6.5104    5.6464  -17.1016 C   0  0  0  0  0  0  0  0  0  0  0  0
   -5.4774    5.7304  -16.0097 C   0  0  0  0  0  0  0  0  0  0  0  0
   -6.1481    6.0029  -18.4107 C   0  0  0  0  0  0  0  0  0  0  0  0
   -7.0713    5.9079  -19.4524 C   0  0  0  0  0  0  0  0  0  0  0  0
   -8.3680    5.4604  -19.2013 C   0  0  0  0  0  0  0  0  0  0  0  0
   -8.7565    5.1183  -17.9008 C   0  0  0  0  0  0  0  0  0  0  0  0
  -10.1118    4.6826  -17.6678 C   0  0  0  0  0  0  0  0  0  0  0  0
  -11.1990    4.3332  -17.4803 N   0  0  0  0  0  0  0  0  0  0  0  0
   -8.1451    7.0846  -14.7142 O   0  0  0  0  0  0  0  0  0  0  0  0
   -8.4396    5.4396  -13.0286 C   0  0  0  0  0  0  0  0  0  0  0  0
   -8.8711    6.3677  -12.0646 C   0  0  0  0  0  0  0  0  0  0  0  0
   -9.0333    5.9832  -10.7309 C   0  0  0  0  0  0  0  0  0  0  0  0
   -8.7594    4.6667  -10.3317 C   0  0  0  0  0  0  0  0  0  0  0  0
   -8.9320    4.2765   -8.9559 N   0  0  0  0  0  0  0  0  0  0  0  0
   -9.5228    2.9771   -8.6253 C   0  0  0  0  0  0  0  0  0  0  0  0
  -10.3365    3.0811   -7.3278 C   0  0  0  0  0  0  0  0  0  0  0  0
   -9.5824    3.7228   -6.2312 N   0  0  0  0  0  0  0  0  0  0  0  0
   -8.5466    2.8416   -5.6660 C   0  0  0  0  0  0  0  0  0  0  0  0
   -9.0519    5.0451   -6.6227 C   0  0  0  0  0  0  0  0  0  0  0  0
   -8.2044    4.9866   -7.9005 C   0  0  0  0  0  0  0  0  0  0  0  0
   -8.3216    3.7391  -11.2905 C   0  0  0  0  0  0  0  0  0  0  0  0
   -8.1590    4.1221  -12.6249 C   0  0  0  0  0  0  0  0  0  0  0  0
   -8.7313    3.9761  -15.3545 H   0  0  0  0  0  0  0  0  0  0  0  0
   -5.6159    4.9122  -15.2719 H   0  0  0  0  0  0  0  0  0  0  0  0
   -4.4520    5.6313  -16.4255 H   0  0  0  0  0  0  0  0  0  0  0  0
   -5.5566    6.7099  -15.4947 H   0  0  0  0  0  0  0  0  0  0  0  0
   -5.1436    6.3447  -18.6286 H   0  0  0  0  0  0  0  0  0  0  0  0
   -6.7789    6.1776  -20.4591 H   0  0  0  0  0  0  0  0  0  0  0  0
   -9.0718    5.3877  -20.0220 H   0  0  0  0  0  0  0  0  0  0  0  0
   -9.0962    7.3895  -12.3440 H   0  0  0  0  0  0  0  0  0  0  0  0
   -9.3886    6.7094  -10.0109 H   0  0  0  0  0  0  0  0  0  0  0  0
   -8.7192    2.2179   -8.5192 H   0  0  0  0  0  0  0  0  0  0  0  0
  -10.2033    2.6443   -9.4396 H   0  0  0  0  0  0  0  0  0  0  0  0
  -10.6785    2.0680   -7.0219 H   0  0  0  0  0  0  0  0  0  0  0  0
  -11.2532    3.6779   -7.5284 H   0  0  0  0  0  0  0  0  0  0  0  0
   -7.7644    2.5893   -6.4114 H   0  0  0  0  0  0  0  0  0  0  0  0
   -8.0646    3.3318   -4.7934 H   0  0  0  0  0  0  0  0  0  0  0  0
   -9.0078    1.8998   -5.2995 H   0  0  0  0  0  0  0  0  0  0  0  0
   -9.9052    5.7379   -6.7921 H   0  0  0  0  0  0  0  0  0  0  0  0
   -8.4485    5.4806   -5.7963 H   0  0  0  0  0  0  0  0  0  0  0  0
   -7.9597    6.0245   -8.2119 H   0  0  0  0  0  0  0  0  0  0  0  0
   -7.2432    4.4671   -7.7024 H   0  0  0  0  0  0  0  0  0  0  0  0
   -8.0878    2.7223  -11.0022 H   0  0  0  0  0  0  0  0  0  0  0  0
   -7.7918    3.3893  -13.3312 H   0  0  0  0  0  0  0  0  0  0  0  0
  1  2  1  0
  2  3  1  0
  3  4  2  0
  4  5  1  0
  4  6  1  0
  6  7  2  0
  7  8  1  0
  8  9  2  0
  9 10  1  0
 10 11  3  0
  1 12  2  0
  1 13  1  0
 13 14  2  0
 14 15  1  0
 15 16  2  0
 16 17  1  0
 17 18  1  0
 18 19  1  0
 19 20  1  0
 20 21  1  0
 20 22  1  0
 22 23  1  0
 16 24  1  0
 24 25  2  0
  9  3  1  0
 25 13  1  0
 23 17  1  0
  2 26  1  0
  5 27  1  0
  5 28  1  0
  5 29  1  0
  6 30  1  0
  7 31  1  0
  8 32  1  0
 14 33  1  0
 15 34  1  0
 18 35  1  0
 18 36  1  0
 19 37  1  0
 19 38  1  0
 21 39  1  0
 21 40  1  0
 21 41  1  0
 22 42  1  0
 22 43  1  0
 23 44  1  0
 23 45  1  0
 24 46  1  0
 25 47  1  0
A    1
 C1 
A    2
 N1 
A    3
 C2 
A    4
 C3 
A    5
 C4 
A    6
 C5 
A    7
 C6 
A    8
 C7 
A    9
 C8 
A   10
 C9 
A   11
 N2 
A   12
 O1 
A   13
 C10
A   14
 C11
A   15
 C12
A   16
 C13
A   17
 N3 
A   18
 C14
A   19
 C15
A   20
 N4 
A   21
 C16
A   22
 C17
A   23
 C18
A   24
 C19
A   25
 C20
A   26
 H1 
A   27
 H2 
A   28
 H3 
A   29
 H4 
A   30
 H5 
A   31
 H6 
A   32
 H7 
A   33
 H8 
A   34
 H9 
A   35
 H10
A   36
 H11
A   37
 H12
A   38
 H13
A   39
 H14
A   40
 H15
A   41
 H16
A   42
 H17
A   43
 H18
A   44
 H19
A   45
 H20
A   46
 H21
A   47
 H22
M  END
>  <ref_pdb>  (404) 
x0051_0B

>  <ref_mols>  (404) 
x0605_0B,x0404_0B

>  <original SMILES>  (404) 
[H]c1c([H])c(C#N)c(N([H])C(=O)c2c([H])c([H])c(N3C([H])([H])C([H])([H])N(C([H])([H])[H])C([H])([H])C3([H])[H])c([H])c2[H])c(C([H])([H])[H])c1[H]

>  <index>  (404) 
479

>  <∆∆G>  (404) 
-7.564209

>  <∆G_bound>  (404) 
-7.110891

>  <∆G_unbound>  (404) 
0.453318

>  <comRMSD>  (404) 
0.640337

>  <N_constrained_atoms>  (404) 
23.0

>  <N_unconstrained_atoms>  (404) 
2.0

>  <runtime>  (404) 
90.514692

>  <LE>  (404) 
0.302568

>  <percent_hybrid>  (404) 
40.0

>  <dist>  (404) 
7.0

>  <ecfp4>  (404) 
0.246914

>  <daylight>  (404) 
0.266667

>  <topodist>  (404) 
3.0

>  <mces>  (404) 
26.0

>  <tdn>  (404) 
1.0

>  <tup>  (404) 
1.0

>  <rdn>  (404) 
0.0

>  <rup>  (404) 
0.0

>  <ldn>  (404) 
1.0

>  <lup>  (404) 
0.0

>  <mut>  (404) 
2.0

>  <maj>  (404) 
2.0

>  <min>  (404) 
0.0

>  <hyb>  (404) 
2.0

>  <sub>  (404) 
1.0

>  <query_index>  (404) 
27.0

>  <max_hit_Tanimoto>  (404) 
0.298529

>  <largest_ring>  (404) 
6

>  <N_interactions_kept>  (404) 
1.5

>  <N_interactions_lost>  (404) 
2.5

>  <interaction_uniqueness_metric>  (404) 
0.269943

>  <ad_hoc_penalty>  (404) 
-19.275198

>  <N_rotatable_bonds>  (404) 
5

>  <N_HA>  (404) 
25

>  <cluster>  (404) 
5782

>  <N_interactions>  (404) 
7

>  <Enamine>  (404) 
0

>  <Mcule>  (404) 
1

>  <N_PAINS>  (404) 
0

>  <UFF_Gibbs>  (404) 
192.870333

>  <strain_per_HA>  (404) 
7.714813

>  <saltbridge:HIS:51>  (404) 
0

>  <pistack:HIS:51>  (404) 
1

>  <hydroph_interaction:HIS:51>  (404) 
1

>  <hbond:ALA:132>  (404) 
0

>  <hbond:SER:135>  (404) 
0

>  <hydroph_interaction:TYR:150>  (404) 
0

>  <pistack:TYR:161>  (404) 
1

>  <hydroph_interaction:TYR:161>  (404) 
1

>  <hydroph_interaction:ASP:83>  (404) 
0

>  <hbond:TYR:130>  (404) 
0

>  <hydroph_interaction:ALA:132>  (404) 
0

>  <hbond:HIS:51>  (404) 
0

>  <hbond:ASP:129>  (404) 
0

>  <hbond:TYR:150>  (404) 
0

>  <hbond:GLY:151>  (404) 
1

>  <hbond:TYR:161>  (404) 
1

>  <hydroph_interaction:TYR:130>  (404) 
0

>  <hydroph_interaction:PRO:131>  (404) 
0

>  <hydroph_interaction:ASP:129>  (404) 
0

>  <saltbridge:ASP:75>  (404) 
1

>  <saltbridge:ASP:83>  (404) 
0

>  <hydroph_interaction:ASN:152>  (404) 
0

>  <halogenbond:TYR:150>  (404) 
0

>  <hbond:ASP:83>  (404) 
0

>  <hydroph_interaction:VAL:155>  (404) 
0

>  <pication:TYR:161>  (404) 
0

>  <hbond:PRO:131>  (404) 
0

>  <hbond:LEU:128>  (404) 
0

>  <saltbridge:ASP:129>  (404) 
0

>  <hbond:THR:134>  (404) 
0

>  <pication:HIS:51>  (404) 
0

>  <hbond:SER:81>  (404) 
0

>  <hbond:GLY:159>  (404) 
0

>  <hydroph_interaction:PRO:101>  (404) 
0

>  <hydroph_interaction:THR:134>  (404) 
0

>  <hbond:GLY:82>  (404) 
0

>  <hydroph_interaction:GLU:104>  (404) 
0

>  <hydroph_interaction:VAL:36>  (404) 
0

>  <hydroph_interaction:MET:49>  (404) 
0

>  <halogenbond:GLU:104>  (404) 
0

>  <hydroph_interaction:LYS:107>  (404) 
0

$$$$
NVBVEJVPYGWTGF-UHFFFAOYSA-N
     RDKit          3D

 49 53  0  0  0  0  0  0  0  0999 V2000
   -7.8121    8.5120  -24.2582 C   0  0  0  0  0  0  0  0  0  0  0  0
   -7.5622    8.1222  -25.6196 N   0  0  0  0  0  0  0  0  0  0  0  0
   -8.3609    8.5851  -26.7154 C   0  0  0  0  0  0  0  0  0  0  0  0
   -8.8795    7.7331  -27.6374 N   0  0  0  0  0  0  0  0  0  0  0  0
   -9.5283    8.5611  -28.4772 C   0  0  0  0  0  0  0  0  0  0  0  0
   -9.3869    9.8594  -28.0780 C   0  0  0  0  0  0  0  0  0  0  0  0
   -9.9557   10.9170  -28.7912 C   0  0  0  0  0  0  0  0  0  0  0  0
  -10.6929   10.6021  -29.9478 C   0  0  0  0  0  0  0  0  0  0  0  0
  -10.8382    9.2582  -30.3602 C   0  0  0  0  0  0  0  0  0  0  0  0
  -10.2478    8.2173  -29.6196 C   0  0  0  0  0  0  0  0  0  0  0  0
   -8.6310    9.8955  -26.9683 N   0  0  0  0  0  0  0  0  0  0  0  0
   -8.1638   11.0828  -26.2537 C   0  0  0  0  0  0  0  0  0  0  0  0
   -8.8274    9.2090  -23.9856 O   0  0  0  0  0  0  0  0  0  0  0  0
   -6.8971    8.1145  -23.1607 C   0  0  0  0  0  0  0  0  0  0  0  0
   -6.1574    6.9189  -23.2165 C   0  0  0  0  0  0  0  0  0  0  0  0
   -5.3023    6.5646  -22.1691 C   0  0  0  0  0  0  0  0  0  0  0  0
   -5.1675    7.3976  -21.0490 C   0  0  0  0  0  0  0  0  0  0  0  0
   -4.2740    6.9979  -19.9067 C   0  0  0  0  0  0  0  0  0  0  0  0
   -5.0525    6.3305  -18.8670 N   0  0  0  0  0  0  0  0  0  0  0  0
   -5.5937    5.0083  -18.9276 C   0  0  0  0  0  0  0  0  0  0  0  0
   -5.2656    4.1455  -19.7848 O   0  0  0  0  0  0  0  0  0  0  0  0
   -6.5869    4.8258  -17.8756 C   0  0  0  0  0  0  0  0  0  0  0  0
   -6.6866    6.0153  -17.1840 C   0  0  0  0  0  0  0  0  0  0  0  0
   -7.5677    6.1660  -16.1148 C   0  0  0  0  0  0  0  0  0  0  0  0
   -8.3569    5.0606  -15.7500 C   0  0  0  0  0  0  0  0  0  0  0  0
   -8.2543    3.8429  -16.4576 C   0  0  0  0  0  0  0  0  0  0  0  0
   -7.3603    3.7180  -17.5362 C   0  0  0  0  0  0  0  0  0  0  0  0
   -5.7590    6.9604  -17.7945 C   0  0  0  0  0  0  0  0  0  0  0  0
   -5.6050    8.1624  -17.4517 O   0  0  0  0  0  0  0  0  0  0  0  0
   -5.9215    8.5770  -20.9770 C   0  0  0  0  0  0  0  0  0  0  0  0
   -6.7778    8.9329  -22.0233 C   0  0  0  0  0  0  0  0  0  0  0  0
   -6.8597    7.3818  -25.8315 H   0  0  0  0  0  0  0  0  0  0  0  0
   -9.8401   11.9438  -28.4708 H   0  0  0  0  0  0  0  0  0  0  0  0
  -11.1482   11.3948  -30.5261 H   0  0  0  0  0  0  0  0  0  0  0  0
  -11.4043    9.0285  -31.2532 H   0  0  0  0  0  0  0  0  0  0  0  0
  -10.3490    7.1851  -29.9283 H   0  0  0  0  0  0  0  0  0  0  0  0
   -7.2599   10.8494  -25.6539 H   0  0  0  0  0  0  0  0  0  0  0  0
   -7.8892   11.8791  -26.9771 H   0  0  0  0  0  0  0  0  0  0  0  0
   -8.9676   11.4579  -25.5868 H   0  0  0  0  0  0  0  0  0  0  0  0
   -6.2561    6.2361  -24.0482 H   0  0  0  0  0  0  0  0  0  0  0  0
   -4.7501    5.6349  -22.2294 H   0  0  0  0  0  0  0  0  0  0  0  0
   -3.4712    6.3158  -20.2607 H   0  0  0  0  0  0  0  0  0  0  0  0
   -3.7723    7.8947  -19.4833 H   0  0  0  0  0  0  0  0  0  0  0  0
   -7.6404    7.1036  -15.5784 H   0  0  0  0  0  0  0  0  0  0  0  0
   -9.0494    5.1450  -14.9227 H   0  0  0  0  0  0  0  0  0  0  0  0
   -8.8683    2.9996  -16.1684 H   0  0  0  0  0  0  0  0  0  0  0  0
   -7.2779    2.7901  -18.0866 H   0  0  0  0  0  0  0  0  0  0  0  0
   -5.8453    9.2232  -20.1114 H   0  0  0  0  0  0  0  0  0  0  0  0
   -7.3411    9.8549  -21.9470 H   0  0  0  0  0  0  0  0  0  0  0  0
  1  2  1  0
  2  3  1  0
  3  4  2  0
  4  5  1  0
  5  6  2  0
  6  7  1  0
  7  8  2  0
  8  9  1  0
  9 10  2  0
  6 11  1  0
 11 12  1  0
  1 13  2  0
  1 14  1  0
 14 15  2  0
 15 16  1  0
 16 17  2  0
 17 18  1  0
 18 19  1  0
 19 20  1  0
 20 21  2  0
 20 22  1  0
 22 23  2  0
 23 24  1  0
 24 25  2  0
 25 26  1  0
 26 27  2  0
 23 28  1  0
 28 29  2  0
 17 30  1  0
 30 31  2  0
 11  3  1  0
 10  5  1  0
 31 14  1  0
 28 19  1  0
 27 22  1  0
  2 32  1  0
  7 33  1  0
  8 34  1  0
  9 35  1  0
 10 36  1  0
 12 37  1  0
 12 38  1  0
 12 39  1  0
 15 40  1  0
 16 41  1  0
 18 42  1  0
 18 43  1  0
 24 44  1  0
 25 45  1  0
 26 46  1  0
 27 47  1  0
 30 48  1  0
 31 49  1  0
A    1
 C1 
A    2
 N1 
A    3
 C2 
A    4
 N2 
A    5
 C3 
A    6
 C4 
A    7
 C5 
A    8
 C6 
A    9
 C7 
A   10
 C8 
A   11
 N3 
A   12
 C9 
A   13
 O1 
A   14
 C10
A   15
 C11
A   16
 C12
A   17
 C13
A   18
 C14
A   19
 N4 
A   20
 C15
A   21
 O2 
A   22
 C16
A   23
 C17
A   24
 C18
A   25
 C19
A   26
 C20
A   27
 C21
A   28
 C22
A   29
 O3 
A   30
 C23
A   31
 C24
A   32
 H1 
A   33
 H2 
A   34
 H3 
A   35
 H4 
A   36
 H5 
A   37
 H6 
A   38
 H7 
A   39
 H8 
A   40
 H9 
A   41
 H10
A   42
 H11
A   43
 H12
A   44
 H13
A   45
 H14
A   46
 H15
A   47
 H16
A   48
 H17
A   49
 H18
M  END
>  <ref_pdb>  (405) 
x0051_0B

>  <ref_mols>  (405) 
x0727_0B,x0846_1B

>  <original SMILES>  (405) 
[H]c1c([H])c([H])c2c(c1[H])C(=O)N(C([H])([H])c1c([H])c([H])c(C(=O)N([H])c3nc4c([H])c([H])c([H])c([H])c4n3C([H])([H])[H])c([H])c1[H])C2=O

>  <index>  (405) 
625

>  <∆∆G>  (405) 
-10.310553

>  <∆G_bound>  (405) 
-9.72916

>  <∆G_unbound>  (405) 
0.581393

>  <comRMSD>  (405) 
0.625451

>  <N_constrained_atoms>  (405) 
29.0

>  <N_unconstrained_atoms>  (405) 
3.0

>  <runtime>  (405) 
58.400056

>  <LE>  (405) 
0.322205

>  <percent_hybrid>  (405) 
38.0

>  <dist>  (405) 
10.0

>  <ecfp4>  (405) 
0.163043

>  <daylight>  (405) 
0.349558

>  <topodist>  (405) 
7.0

>  <mces>  (405) 
32.0

>  <tdn>  (405) 
2.0

>  <tup>  (405) 
3.0

>  <rdn>  (405) 
0.0

>  <rup>  (405) 
0.0

>  <ldn>  (405) 
2.0

>  <lup>  (405) 
0.0

>  <mut>  (405) 
2.0

>  <maj>  (405) 
2.0

>  <min>  (405) 
0.0

>  <hyb>  (405) 
1.0

>  <sub>  (405) 
3.0

>  <query_index>  (405) 
15.0

>  <max_hit_Tanimoto>  (405) 
0.398844

>  <largest_ring>  (405) 
6

>  <N_interactions_kept>  (405) 
0.5

>  <N_interactions_lost>  (405) 
2.5

>  <interaction_uniqueness_metric>  (405) 
0.1581

>  <ad_hoc_penalty>  (405) 
-19.271819

>  <N_rotatable_bonds>  (405) 
5

>  <N_HA>  (405) 
31

>  <cluster>  (405) 
5648

>  <N_interactions>  (405) 
5

>  <Enamine>  (405) 
0

>  <Mcule>  (405) 
1

>  <N_PAINS>  (405) 
0

>  <UFF_Gibbs>  (405) 
144.66207

>  <strain_per_HA>  (405) 
4.52069

>  <saltbridge:HIS:51>  (405) 
0

>  <pistack:HIS:51>  (405) 
0

>  <hydroph_interaction:HIS:51>  (405) 
0

>  <hbond:ALA:132>  (405) 
0

>  <hbond:SER:135>  (405) 
0

>  <hydroph_interaction:TYR:150>  (405) 
1

>  <pistack:TYR:161>  (405) 
1

>  <hydroph_interaction:TYR:161>  (405) 
0

>  <hydroph_interaction:ASP:83>  (405) 
0

>  <hbond:TYR:130>  (405) 
1

>  <hydroph_interaction:ALA:132>  (405) 
0

>  <hbond:HIS:51>  (405) 
0

>  <hbond:ASP:129>  (405) 
0

>  <hbond:TYR:150>  (405) 
0

>  <hbond:GLY:151>  (405) 
0

>  <hbond:TYR:161>  (405) 
0

>  <hydroph_interaction:TYR:130>  (405) 
1

>  <hydroph_interaction:PRO:131>  (405) 
1

>  <hydroph_interaction:ASP:129>  (405) 
0

>  <saltbridge:ASP:75>  (405) 
0

>  <saltbridge:ASP:83>  (405) 
0

>  <hydroph_interaction:ASN:152>  (405) 
0

>  <halogenbond:TYR:150>  (405) 
0

>  <hbond:ASP:83>  (405) 
0

>  <hydroph_interaction:VAL:155>  (405) 
0

>  <pication:TYR:161>  (405) 
0

>  <hbond:PRO:131>  (405) 
0

>  <hbond:LEU:128>  (405) 
0

>  <saltbridge:ASP:129>  (405) 
0

>  <hbond:THR:134>  (405) 
0

>  <pication:HIS:51>  (405) 
0

>  <hbond:SER:81>  (405) 
0

>  <hbond:GLY:159>  (405) 
0

>  <hydroph_interaction:PRO:101>  (405) 
0

>  <hydroph_interaction:THR:134>  (405) 
0

>  <hbond:GLY:82>  (405) 
0

>  <hydroph_interaction:GLU:104>  (405) 
0

>  <hydroph_interaction:VAL:36>  (405) 
0

>  <hydroph_interaction:MET:49>  (405) 
0

>  <halogenbond:GLU:104>  (405) 
0

>  <hydroph_interaction:LYS:107>  (405) 
0

$$$$
Z2442769931
     RDKit          3D

 31 32  0  0  0  0  0  0  0  0999 V2000
   -2.1036    5.0971  -21.5766 C   0  0  0  0  0  0  0  0  0  0  0  0
   -3.5257    5.2299  -21.2856 N   0  0  0  0  0  0  0  0  0  0  0  0
   -4.0966    6.4698  -20.8479 C   0  0  0  0  0  0  0  0  0  0  0  0
   -3.3662    7.4851  -20.6816 O   0  0  0  0  0  0  0  0  0  0  0  0
   -5.5565    6.5506  -20.5400 C   0  0  0  0  0  0  0  0  0  0  0  0
   -5.8035    5.9232  -19.2852 O   0  0  0  0  0  0  0  0  0  0  0  0
   -7.0714    5.7864  -18.6997 C   0  0  0  0  0  0  0  0  0  0  0  0
   -8.2418    6.2646  -19.3208 C   0  0  0  0  0  0  0  0  0  0  0  0
   -9.4837    6.1073  -18.7005 C   0  0  0  0  0  0  0  0  0  0  0  0
   -9.5755    5.4696  -17.4616 C   0  0  0  0  0  0  0  0  0  0  0  0
   -8.4219    4.9769  -16.8352 C   0  0  0  0  0  0  0  0  0  0  0  0
   -7.1661    5.1535  -17.4512 C   0  0  0  0  0  0  0  0  0  0  0  0
   -6.0058    4.6766  -16.8276 O   0  0  0  0  0  0  0  0  0  0  0  0
   -6.0053    4.2034  -15.4805 C   0  0  0  0  0  0  0  0  0  0  0  0
   -7.2983    3.4398  -15.1852 C   0  0  0  0  0  0  0  0  0  0  0  0
   -8.5152    4.3287  -15.4758 C   0  0  0  0  0  0  0  0  0  0  0  0
   -1.8820    4.0627  -21.9131 H   0  0  0  0  0  0  0  0  0  0  0  0
   -1.8163    5.8047  -22.3828 H   0  0  0  0  0  0  0  0  0  0  0  0
   -1.5111    5.3100  -20.6613 H   0  0  0  0  0  0  0  0  0  0  0  0
   -4.1446    4.3966  -21.4097 H   0  0  0  0  0  0  0  0  0  0  0  0
   -5.8764    7.6142  -20.4978 H   0  0  0  0  0  0  0  0  0  0  0  0
   -6.1251    6.0319  -21.3413 H   0  0  0  0  0  0  0  0  0  0  0  0
   -8.2019    6.7616  -20.2795 H   0  0  0  0  0  0  0  0  0  0  0  0
  -10.3783    6.4812  -19.1815 H   0  0  0  0  0  0  0  0  0  0  0  0
  -10.5439    5.3608  -16.9894 H   0  0  0  0  0  0  0  0  0  0  0  0
   -5.1295    3.5387  -15.3257 H   0  0  0  0  0  0  0  0  0  0  0  0
   -5.9165    5.0697  -14.7890 H   0  0  0  0  0  0  0  0  0  0  0  0
   -7.3417    2.5282  -15.8222 H   0  0  0  0  0  0  0  0  0  0  0  0
   -7.3117    3.1238  -14.1191 H   0  0  0  0  0  0  0  0  0  0  0  0
   -9.4356    3.7080  -15.4112 H   0  0  0  0  0  0  0  0  0  0  0  0
   -8.5813    5.1273  -14.7055 H   0  0  0  0  0  0  0  0  0  0  0  0
  1  2  1  0
  2  3  1  0
  3  4  2  0
  3  5  1  0
  5  6  1  0
  6  7  1  0
  7  8  2  0
  8  9  1  0
  9 10  2  0
 10 11  1  0
 11 12  2  0
 12 13  1  0
 13 14  1  0
 14 15  1  0
 15 16  1  0
 12  7  1  0
 16 11  1  0
  1 17  1  0
  1 18  1  0
  1 19  1  0
  2 20  1  0
  5 21  1  0
  5 22  1  0
  8 23  1  0
  9 24  1  0
 10 25  1  0
 14 26  1  0
 14 27  1  0
 15 28  1  0
 15 29  1  0
 16 30  1  0
 16 31  1  0
A    1
 C1 
A    2
 N1 
A    3
 C2 
A    4
 O1 
A    5
 C3 
A    6
 O2 
A    7
 C4 
A    8
 C5 
A    9
 C6 
A   10
 C7 
A   11
 C8 
A   12
 C9 
A   13
 O3 
A   14
 C10
A   15
 C11
A   16
 C12
A   17
 H1 
A   18
 H2 
A   19
 H3 
A   20
 H4 
A   21
 H5 
A   22
 H6 
A   23
 H7 
A   24
 H8 
A   25
 H9 
A   26
 H10
A   27
 H11
A   28
 H12
A   29
 H13
A   30
 H14
A   31
 H15
M  END
>  <ref_pdb>  (406) 
x0051_0B

>  <ref_mols>  (406) 
x0904_0B,x0455_0B

>  <original SMILES>  (406) 
[H]c1c([H])c(OC([H])([H])C(=O)N([H])C([H])([H])[H])c2c(c1[H])C([H])([H])C([H])([H])C([H])([H])O2

>  <index>  (406) 
541

>  <∆∆G>  (406) 
-6.796564

>  <∆G_bound>  (406) 
-6.271099

>  <∆G_unbound>  (406) 
0.525465

>  <comRMSD>  (406) 
0.635634

>  <N_constrained_atoms>  (406) 
18.0

>  <N_unconstrained_atoms>  (406) 
0.0

>  <runtime>  (406) 
33.026282

>  <LE>  (406) 
0.377587

>  <percent_hybrid>  (406) 
34.0

>  <dist>  (406) 
6.0

>  <ecfp4>  (406) 
0.136364

>  <daylight>  (406) 
0.168367

>  <topodist>  (406) 
1.0

>  <mces>  (406) 
17.0

>  <tdn>  (406) 
1.0

>  <tup>  (406) 
0.0

>  <rdn>  (406) 
0.0

>  <rup>  (406) 
0.0

>  <ldn>  (406) 
0.0

>  <lup>  (406) 
0.0

>  <mut>  (406) 
1.0

>  <maj>  (406) 
1.0

>  <min>  (406) 
0.0

>  <hyb>  (406) 
4.0

>  <sub>  (406) 
1.0

>  <query_index>  (406) 
160.0

>  <max_hit_Tanimoto>  (406) 
0.306595

>  <largest_ring>  (406) 
6

>  <N_interactions_kept>  (406) 
1.0

>  <N_interactions_lost>  (406) 
2.0

>  <interaction_uniqueness_metric>  (406) 
0.106036

>  <ad_hoc_penalty>  (406) 
-19.186049

>  <N_rotatable_bonds>  (406) 
4

>  <N_HA>  (406) 
16

>  <cluster>  (406) 
5723

>  <N_interactions>  (406) 
6

>  <Enamine>  (406) 
1

>  <Mcule>  (406) 
0

>  <N_PAINS>  (406) 
0

>  <UFF_Gibbs>  (406) 
94.157194

>  <strain_per_HA>  (406) 
5.230955

>  <saltbridge:HIS:51>  (406) 
0

>  <pistack:HIS:51>  (406) 
0

>  <hydroph_interaction:HIS:51>  (406) 
0

>  <hbond:ALA:132>  (406) 
0

>  <hbond:SER:135>  (406) 
0

>  <hydroph_interaction:TYR:150>  (406) 
1

>  <pistack:TYR:161>  (406) 
0

>  <hydroph_interaction:TYR:161>  (406) 
2

>  <hydroph_interaction:ASP:83>  (406) 
0

>  <hbond:TYR:130>  (406) 
0

>  <hydroph_interaction:ALA:132>  (406) 
1

>  <hbond:HIS:51>  (406) 
0

>  <hbond:ASP:129>  (406) 
2

>  <hbond:TYR:150>  (406) 
0

>  <hbond:GLY:151>  (406) 
0

>  <hbond:TYR:161>  (406) 
0

>  <hydroph_interaction:TYR:130>  (406) 
0

>  <hydroph_interaction:PRO:131>  (406) 
0

>  <hydroph_interaction:ASP:129>  (406) 
0

>  <saltbridge:ASP:75>  (406) 
0

>  <saltbridge:ASP:83>  (406) 
0

>  <hydroph_interaction:ASN:152>  (406) 
0

>  <halogenbond:TYR:150>  (406) 
0

>  <hbond:ASP:83>  (406) 
0

>  <hydroph_interaction:VAL:155>  (406) 
0

>  <pication:TYR:161>  (406) 
0

>  <hbond:PRO:131>  (406) 
0

>  <hbond:LEU:128>  (406) 
0

>  <saltbridge:ASP:129>  (406) 
0

>  <hbond:THR:134>  (406) 
0

>  <pication:HIS:51>  (406) 
0

>  <hbond:SER:81>  (406) 
0

>  <hbond:GLY:159>  (406) 
0

>  <hydroph_interaction:PRO:101>  (406) 
0

>  <hydroph_interaction:THR:134>  (406) 
0

>  <hbond:GLY:82>  (406) 
0

>  <hydroph_interaction:GLU:104>  (406) 
0

>  <hydroph_interaction:VAL:36>  (406) 
0

>  <hydroph_interaction:MET:49>  (406) 
0

>  <halogenbond:GLU:104>  (406) 
0

>  <hydroph_interaction:LYS:107>  (406) 
0

$$$$
CSSB00000735030
     RDKit          3D

 30 32  0  0  0  0  0  0  0  0999 V2000
   -2.7885    4.6118  -17.5200 Cl  0  0  0  0  0  0  0  0  0  0  0  0
   -2.8483    6.2916  -16.9291 C   0  0  0  0  0  0  0  0  0  0  0  0
   -4.0626    6.9901  -17.4721 C   0  0  0  0  0  0  0  0  0  0  0  0
   -3.8940    8.0198  -18.1804 O   0  0  0  0  0  0  0  0  0  0  0  0
   -5.4011    6.4919  -17.2468 N   0  0  0  0  0  0  0  0  0  0  0  0
   -5.7076    5.6450  -16.0753 C   0  0  0  0  0  0  0  0  0  0  0  0
   -7.0628    6.0194  -15.4652 C   0  0  0  0  0  0  0  0  0  0  0  0
   -8.0897    6.1437  -16.5377 C   0  0  0  0  0  0  0  0  0  0  0  0
   -7.7981    6.4669  -17.8508 C   0  0  0  0  0  0  0  0  0  0  0  0
   -8.9418    6.6409  -18.6439 C   0  0  0  0  0  0  0  0  0  0  0  0
  -10.1293    6.4680  -17.9415 C   0  0  0  0  0  0  0  0  0  0  0  0
   -9.7565    6.1079  -16.3379 S   0  0  0  0  0  0  0  0  0  0  0  0
   -6.3828    6.6093  -18.3481 C   0  0  0  0  0  0  0  0  0  0  0  0
   -6.0872    5.5762  -19.4009 C   0  0  0  0  0  0  0  0  0  0  0  0
   -5.4248    5.8134  -20.5987 C   0  0  0  0  0  0  0  0  0  0  0  0
   -5.2102    4.6529  -21.3516 C   0  0  0  0  0  0  0  0  0  0  0  0
   -5.6880    3.4980  -20.7462 C   0  0  0  0  0  0  0  0  0  0  0  0
   -6.3744    3.9213  -19.2712 S   0  0  0  0  0  0  0  0  0  0  0  0
   -2.8445    6.3081  -15.8209 H   0  0  0  0  0  0  0  0  0  0  0  0
   -1.9272    6.8089  -17.2730 H   0  0  0  0  0  0  0  0  0  0  0  0
   -5.7196    4.5782  -16.3856 H   0  0  0  0  0  0  0  0  0  0  0  0
   -4.9437    5.7621  -15.2806 H   0  0  0  0  0  0  0  0  0  0  0  0
   -7.3726    5.2433  -14.7333 H   0  0  0  0  0  0  0  0  0  0  0  0
   -6.9768    6.9943  -14.9394 H   0  0  0  0  0  0  0  0  0  0  0  0
   -8.9071    6.8909  -19.6962 H   0  0  0  0  0  0  0  0  0  0  0  0
  -11.1243    6.5624  -18.3546 H   0  0  0  0  0  0  0  0  0  0  0  0
   -6.3098    7.6228  -18.8005 H   0  0  0  0  0  0  0  0  0  0  0  0
   -5.0963    6.7943  -20.9166 H   0  0  0  0  0  0  0  0  0  0  0  0
   -4.7098    4.6540  -22.3107 H   0  0  0  0  0  0  0  0  0  0  0  0
   -5.6188    2.4976  -21.1512 H   0  0  0  0  0  0  0  0  0  0  0  0
  1  2  1  0
  2  3  1  0
  3  4  2  0
  3  5  1  0
  5  6  1  0
  6  7  1  0
  7  8  1  0
  8  9  2  0
  9 10  1  0
 10 11  2  0
 11 12  1  0
  9 13  1  0
 13 14  1  0
 14 15  2  0
 15 16  1  0
 16 17  2  0
 17 18  1  0
 13  5  1  0
 12  8  1  0
 18 14  1  0
  2 19  1  0
  2 20  1  0
  6 21  1  0
  6 22  1  0
  7 23  1  0
  7 24  1  0
 10 25  1  0
 11 26  1  0
 13 27  1  0
 15 28  1  0
 16 29  1  0
 17 30  1  0
A    1
CL1 
A    2
 C1 
A    3
 C2 
A    4
 O1 
A    5
 N1 
A    6
 C3 
A    7
 C4 
A    8
 C5 
A    9
 C6 
A   10
 C7 
A   11
 C8 
A   12
 S1 
A   13
 C9 
A   14
 C10
A   15
 C11
A   16
 C12
A   17
 C13
A   18
 S2 
A   19
 H1 
A   20
 H2 
A   21
 H3 
A   22
 H4 
A   23
 H5 
A   24
 H6 
A   25
 H7 
A   26
 H8 
A   27
 H9 
A   28
 H10
A   29
 H11
A   30
 H12
M  END
>  <ref_pdb>  (407) 
x0051_0B

>  <ref_mols>  (407) 
x0472_0B,x0803_0B

>  <original SMILES>  (407) 
[H]c1sc(C2([H])c3c(sc([H])c3[H])C([H])([H])C([H])([H])N2C(=O)C([H])([H])Cl)c([H])c1[H]

>  <index>  (407) 
533

>  <∆∆G>  (407) 
-6.870181

>  <∆G_bound>  (407) 
-6.756463

>  <∆G_unbound>  (407) 
0.113718

>  <comRMSD>  (407) 
0.994703

>  <N_constrained_atoms>  (407) 
18.0

>  <N_unconstrained_atoms>  (407) 
1.0

>  <runtime>  (407) 
24.2815

>  <LE>  (407) 
0.361588

>  <percent_hybrid>  (407) 
46.0

>  <dist>  (407) 
11.0

>  <ecfp4>  (407) 
0.225352

>  <daylight>  (407) 
0.37299

>  <topodist>  (407) 
3.0

>  <mces>  (407) 
19.0

>  <tdn>  (407) 
0.0

>  <tup>  (407) 
0.0

>  <rdn>  (407) 
2.0

>  <rup>  (407) 
1.0

>  <ldn>  (407) 
0.0

>  <lup>  (407) 
0.0

>  <mut>  (407) 
4.0

>  <maj>  (407) 
3.0

>  <min>  (407) 
1.0

>  <hyb>  (407) 
4.0

>  <sub>  (407) 
1.0

>  <query_index>  (407) 
219.0

>  <max_hit_Tanimoto>  (407) 
0.440233

>  <largest_ring>  (407) 
6

>  <N_interactions_kept>  (407) 
5.5

>  <N_interactions_lost>  (407) 
1.0

>  <interaction_uniqueness_metric>  (407) 
0.035255

>  <ad_hoc_penalty>  (407) 
-19.154923

>  <N_rotatable_bonds>  (407) 
2

>  <N_HA>  (407) 
18

>  <cluster>  (407) 
5731

>  <N_interactions>  (407) 
3

>  <Enamine>  (407) 
1

>  <Mcule>  (407) 
0

>  <N_PAINS>  (407) 
0

>  <UFF_Gibbs>  (407) 
89.318086

>  <strain_per_HA>  (407) 
4.700952

>  <saltbridge:HIS:51>  (407) 
0

>  <pistack:HIS:51>  (407) 
0

>  <hydroph_interaction:HIS:51>  (407) 
0

>  <hbond:ALA:132>  (407) 
0

>  <hbond:SER:135>  (407) 
0

>  <hydroph_interaction:TYR:150>  (407) 
0

>  <pistack:TYR:161>  (407) 
0

>  <hydroph_interaction:TYR:161>  (407) 
2

>  <hydroph_interaction:ASP:83>  (407) 
0

>  <hbond:TYR:130>  (407) 
0

>  <hydroph_interaction:ALA:132>  (407) 
1

>  <hbond:HIS:51>  (407) 
0

>  <hbond:ASP:129>  (407) 
0

>  <hbond:TYR:150>  (407) 
0

>  <hbond:GLY:151>  (407) 
0

>  <hbond:TYR:161>  (407) 
0

>  <hydroph_interaction:TYR:130>  (407) 
0

>  <hydroph_interaction:PRO:131>  (407) 
0

>  <hydroph_interaction:ASP:129>  (407) 
0

>  <saltbridge:ASP:75>  (407) 
0

>  <saltbridge:ASP:83>  (407) 
0

>  <hydroph_interaction:ASN:152>  (407) 
0

>  <halogenbond:TYR:150>  (407) 
0

>  <hbond:ASP:83>  (407) 
0

>  <hydroph_interaction:VAL:155>  (407) 
0

>  <pication:TYR:161>  (407) 
0

>  <hbond:PRO:131>  (407) 
0

>  <hbond:LEU:128>  (407) 
0

>  <saltbridge:ASP:129>  (407) 
0

>  <hbond:THR:134>  (407) 
0

>  <pication:HIS:51>  (407) 
0

>  <hbond:SER:81>  (407) 
0

>  <hbond:GLY:159>  (407) 
0

>  <hydroph_interaction:PRO:101>  (407) 
0

>  <hydroph_interaction:THR:134>  (407) 
0

>  <hbond:GLY:82>  (407) 
0

>  <hydroph_interaction:GLU:104>  (407) 
0

>  <hydroph_interaction:VAL:36>  (407) 
0

>  <hydroph_interaction:MET:49>  (407) 
0

>  <halogenbond:GLU:104>  (407) 
0

>  <hydroph_interaction:LYS:107>  (407) 
0

$$$$
Z3496110908
     RDKit          3D

 46 49  0  0  0  0  0  0  0  0999 V2000
   -9.5761    6.0200  -18.6286 C   0  0  0  0  0  0  0  0  0  0  0  0
  -10.3440    5.8778  -17.4707 C   0  0  0  0  0  0  0  0  0  0  0  0
   -9.7321    5.5389  -16.2611 C   0  0  0  0  0  0  0  0  0  0  0  0
   -8.3442    5.3305  -16.2025 C   0  0  0  0  0  0  0  0  0  0  0  0
   -7.5686    5.4891  -17.3708 C   0  0  0  0  0  0  0  0  0  0  0  0
   -8.1931    5.8263  -18.5805 C   0  0  0  0  0  0  0  0  0  0  0  0
   -6.1502    5.2702  -17.3303 N   0  0  0  0  0  0  0  0  0  0  0  0
   -5.4513    5.0092  -16.0740 C   0  0  0  0  0  0  0  0  0  0  0  0
   -6.3617    4.2538  -15.1005 C   0  0  0  0  0  0  0  0  0  0  0  0
   -7.6836    5.0136  -14.8739 C   0  0  0  0  0  0  0  0  0  0  0  0
   -7.4260    6.2577  -14.1162 N   0  0  0  0  0  0  0  0  0  0  0  0
   -7.5095    6.0611  -12.6591 C   0  0  0  0  0  0  0  0  0  0  0  0
   -8.9574    6.1501  -12.1503 C   0  0  0  0  0  0  0  0  0  0  0  0
   -9.0193    5.8321  -10.6878 C   0  0  0  0  0  0  0  0  0  0  0  0
   -9.1072    4.5901  -10.0945 C   0  0  0  0  0  0  0  0  0  0  0  0
   -9.2998    3.2585  -10.7584 C   0  0  0  0  0  0  0  0  0  0  0  0
   -8.9897    2.1205   -9.7732 C   0  0  0  0  0  0  0  0  0  0  0  0
   -9.6345    2.3754   -8.4003 C   0  0  0  0  0  0  0  0  0  0  0  0
   -9.0993    3.6750   -7.7760 C   0  0  0  0  0  0  0  0  0  0  0  0
   -9.0926    4.7557   -8.7602 N   0  0  0  0  0  0  0  0  0  0  0  0
   -8.9438    6.0379   -8.4659 N   0  0  0  0  0  0  0  0  0  0  0  0
   -8.8989    6.7191   -9.6310 C   0  0  0  0  0  0  0  0  0  0  0  0
  -10.0529    6.2820  -19.5642 H   0  0  0  0  0  0  0  0  0  0  0  0
  -11.4143    6.0339  -17.5097 H   0  0  0  0  0  0  0  0  0  0  0  0
  -10.3378    5.4430  -15.3684 H   0  0  0  0  0  0  0  0  0  0  0  0
   -7.6082    5.9386  -19.4847 H   0  0  0  0  0  0  0  0  0  0  0  0
   -5.5830    5.3819  -18.2010 H   0  0  0  0  0  0  0  0  0  0  0  0
   -4.5425    4.4023  -16.2750 H   0  0  0  0  0  0  0  0  0  0  0  0
   -5.1327    5.9743  -15.6250 H   0  0  0  0  0  0  0  0  0  0  0  0
   -5.8287    4.1035  -14.1377 H   0  0  0  0  0  0  0  0  0  0  0  0
   -6.5844    3.2478  -15.5199 H   0  0  0  0  0  0  0  0  0  0  0  0
   -8.3624    4.3344  -14.3093 H   0  0  0  0  0  0  0  0  0  0  0  0
   -8.0887    7.0200  -14.3957 H   0  0  0  0  0  0  0  0  0  0  0  0
   -7.0560    5.0887  -12.3645 H   0  0  0  0  0  0  0  0  0  0  0  0
   -6.9106    6.8569  -12.1660 H   0  0  0  0  0  0  0  0  0  0  0  0
   -9.6106    5.4428  -12.7026 H   0  0  0  0  0  0  0  0  0  0  0  0
   -9.3505    7.1759  -12.3190 H   0  0  0  0  0  0  0  0  0  0  0  0
  -10.3548    3.1790  -11.0975 H   0  0  0  0  0  0  0  0  0  0  0  0
   -8.6353    3.1739  -11.6446 H   0  0  0  0  0  0  0  0  0  0  0  0
   -9.3694    1.1624  -10.1885 H   0  0  0  0  0  0  0  0  0  0  0  0
   -7.8880    2.0266   -9.6504 H   0  0  0  0  0  0  0  0  0  0  0  0
  -10.7379    2.4484   -8.5190 H   0  0  0  0  0  0  0  0  0  0  0  0
   -9.4162    1.5229   -7.7220 H   0  0  0  0  0  0  0  0  0  0  0  0
   -9.7340    3.9601   -6.9098 H   0  0  0  0  0  0  0  0  0  0  0  0
   -8.0615    3.5109   -7.4139 H   0  0  0  0  0  0  0  0  0  0  0  0
   -8.7756    7.7913   -9.7056 H   0  0  0  0  0  0  0  0  0  0  0  0
  1  2  2  0
  2  3  1  0
  3  4  2  0
  4  5  1  0
  5  6  2  0
  5  7  1  0
  7  8  1  0
  8  9  1  0
  9 10  1  0
 10 11  1  0
 11 12  1  0
 12 13  1  0
 13 14  1  0
 14 15  2  0
 15 16  1  0
 16 17  1  0
 17 18  1  0
 18 19  1  0
 19 20  1  0
 20 21  1  0
 21 22  2  0
  6  1  1  0
 10  4  1  0
 22 14  1  0
 20 15  1  0
  1 23  1  0
  2 24  1  0
  3 25  1  0
  6 26  1  0
  7 27  1  0
  8 28  1  0
  8 29  1  0
  9 30  1  0
  9 31  1  0
 10 32  1  0
 11 33  1  0
 12 34  1  0
 12 35  1  0
 13 36  1  0
 13 37  1  0
 16 38  1  0
 16 39  1  0
 17 40  1  0
 17 41  1  0
 18 42  1  0
 18 43  1  0
 19 44  1  0
 19 45  1  0
 22 46  1  0
A    1
 C1 
A    2
 C2 
A    3
 C3 
A    4
 C4 
A    5
 C5 
A    6
 C6 
A    7
 N1 
A    8
 C7 
A    9
 C8 
A   10
 C9 
A   11
 N2 
A   12
 C10
A   13
 C11
A   14
 C12
A   15
 C13
A   16
 C14
A   17
 C15
A   18
 C16
A   19
 C17
A   20
 N3 
A   21
 N4 
A   22
 C18
A   23
 H1 
A   24
 H2 
A   25
 H3 
A   26
 H4 
A   27
 H5 
A   28
 H6 
A   29
 H7 
A   30
 H8 
A   31
 H9 
A   32
 H10
A   33
 H11
A   34
 H12
A   35
 H13
A   36
 H14
A   37
 H15
A   38
 H16
A   39
 H17
A   40
 H18
A   41
 H19
A   42
 H20
A   43
 H21
A   44
 H22
A   45
 H23
A   46
 H24
M  END
>  <ref_pdb>  (408) 
x0051_0B

>  <ref_mols>  (408) 
x0969_1B,x0455_0B

>  <original SMILES>  (408) 
[H]c1nn2c(c1C([H])([H])C([H])([H])N([H])C1([H])c3c([H])c([H])c([H])c([H])c3N([H])C([H])([H])C1([H])[H])C([H])([H])C([H])([H])C([H])([H])C2([H])[H]

>  <index>  (408) 
326

>  <∆∆G>  (408) 
-6.508061

>  <∆G_bound>  (408) 
-6.031067

>  <∆G_unbound>  (408) 
0.476994

>  <comRMSD>  (408) 
0.363864

>  <N_constrained_atoms>  (408) 
20.0

>  <N_unconstrained_atoms>  (408) 
2.0

>  <runtime>  (408) 
54.315501

>  <LE>  (408) 
0.295821

>  <percent_hybrid>  (408) 
50.0

>  <dist>  (408) 
4.0

>  <ecfp4>  (408) 
0.364865

>  <daylight>  (408) 
0.331412

>  <topodist>  (408) 
0.0

>  <mces>  (408) 
25.0

>  <tdn>  (408) 
0.0

>  <tup>  (408) 
0.0

>  <rdn>  (408) 
0.0

>  <rup>  (408) 
0.0

>  <ldn>  (408) 
0.0

>  <lup>  (408) 
0.0

>  <mut>  (408) 
4.0

>  <maj>  (408) 
4.0

>  <min>  (408) 
0.0

>  <hyb>  (408) 
0.0

>  <sub>  (408) 
0.0

>  <query_index>  (408) 
204.0

>  <max_hit_Tanimoto>  (408) 
0.313544

>  <largest_ring>  (408) 
6

>  <N_interactions_kept>  (408) 
1.0

>  <N_interactions_lost>  (408) 
1.5

>  <interaction_uniqueness_metric>  (408) 
0.097555

>  <ad_hoc_penalty>  (408) 
-19.133808

>  <N_rotatable_bonds>  (408) 
4

>  <N_HA>  (408) 
22

>  <cluster>  (408) 
5922

>  <N_interactions>  (408) 
6

>  <Enamine>  (408) 
1

>  <Mcule>  (408) 
0

>  <N_PAINS>  (408) 
0

>  <UFF_Gibbs>  (408) 
190.41059

>  <strain_per_HA>  (408) 
8.655027

>  <saltbridge:HIS:51>  (408) 
0

>  <pistack:HIS:51>  (408) 
1

>  <hydroph_interaction:HIS:51>  (408) 
1

>  <hbond:ALA:132>  (408) 
0

>  <hbond:SER:135>  (408) 
0

>  <hydroph_interaction:TYR:150>  (408) 
1

>  <pistack:TYR:161>  (408) 
0

>  <hydroph_interaction:TYR:161>  (408) 
3

>  <hydroph_interaction:ASP:83>  (408) 
0

>  <hbond:TYR:130>  (408) 
0

>  <hydroph_interaction:ALA:132>  (408) 
0

>  <hbond:HIS:51>  (408) 
0

>  <hbond:ASP:129>  (408) 
0

>  <hbond:TYR:150>  (408) 
0

>  <hbond:GLY:151>  (408) 
0

>  <hbond:TYR:161>  (408) 
0

>  <hydroph_interaction:TYR:130>  (408) 
0

>  <hydroph_interaction:PRO:131>  (408) 
0

>  <hydroph_interaction:ASP:129>  (408) 
0

>  <saltbridge:ASP:75>  (408) 
0

>  <saltbridge:ASP:83>  (408) 
0

>  <hydroph_interaction:ASN:152>  (408) 
0

>  <halogenbond:TYR:150>  (408) 
0

>  <hbond:ASP:83>  (408) 
0

>  <hydroph_interaction:VAL:155>  (408) 
0

>  <pication:TYR:161>  (408) 
0

>  <hbond:PRO:131>  (408) 
0

>  <hbond:LEU:128>  (408) 
0

>  <saltbridge:ASP:129>  (408) 
0

>  <hbond:THR:134>  (408) 
0

>  <pication:HIS:51>  (408) 
0

>  <hbond:SER:81>  (408) 
0

>  <hbond:GLY:159>  (408) 
0

>  <hydroph_interaction:PRO:101>  (408) 
0

>  <hydroph_interaction:THR:134>  (408) 
0

>  <hbond:GLY:82>  (408) 
0

>  <hydroph_interaction:GLU:104>  (408) 
0

>  <hydroph_interaction:VAL:36>  (408) 
0

>  <hydroph_interaction:MET:49>  (408) 
0

>  <halogenbond:GLU:104>  (408) 
0

>  <hydroph_interaction:LYS:107>  (408) 
0

$$$$
MCULE-8160039035
     RDKit          3D

 19 20  0  0  0  0  0  0  0  0999 V2000
  -10.3006    4.5325  -15.8505 O   0  0  0  0  0  0  0  0  0  0  0  0
   -9.5367    4.7638  -16.9885 C   0  0  0  0  0  0  0  0  0  0  0  0
   -8.1892    4.7982  -16.9827 N   0  0  0  0  0  0  0  0  0  0  0  0
   -7.8850    5.0458  -18.2737 C   0  0  0  0  0  0  0  0  0  0  0  0
   -6.4974    5.1767  -18.7824 C   0  0  0  0  0  0  0  0  0  0  0  0
   -5.4106    5.0412  -17.8978 C   0  0  0  0  0  0  0  0  0  0  0  0
   -4.0974    5.1620  -18.3625 C   0  0  0  0  0  0  0  0  0  0  0  0
   -3.8528    5.4190  -19.7128 C   0  0  0  0  0  0  0  0  0  0  0  0
   -4.9211    5.5558  -20.6012 C   0  0  0  0  0  0  0  0  0  0  0  0
   -6.2368    5.4360  -20.1424 C   0  0  0  0  0  0  0  0  0  0  0  0
   -9.0578    5.1501  -19.0020 C   0  0  0  0  0  0  0  0  0  0  0  0
  -10.0568    4.9703  -18.1746 O   0  0  0  0  0  0  0  0  0  0  0  0
   -9.8564    4.3778  -14.9536 H   0  0  0  0  0  0  0  0  0  0  0  0
   -5.5743    4.8417  -16.8461 H   0  0  0  0  0  0  0  0  0  0  0  0
   -3.2687    5.0561  -17.6744 H   0  0  0  0  0  0  0  0  0  0  0  0
   -2.8356    5.5122  -20.0706 H   0  0  0  0  0  0  0  0  0  0  0  0
   -4.7300    5.7550  -21.6479 H   0  0  0  0  0  0  0  0  0  0  0  0
   -7.0413    5.5472  -20.8557 H   0  0  0  0  0  0  0  0  0  0  0  0
   -9.1693    5.3434  -20.0597 H   0  0  0  0  0  0  0  0  0  0  0  0
  1  2  1  0
  2  3  2  0
  3  4  1  0
  4  5  1  0
  5  6  2  0
  6  7  1  0
  7  8  2  0
  8  9  1  0
  9 10  2  0
  4 11  2  0
 11 12  1  0
 12  2  1  0
  5 10  1  0
  1 13  1  0
  6 14  1  0
  7 15  1  0
  8 16  1  0
  9 17  1  0
 10 18  1  0
 11 19  1  0
A    1
 O1 
A    2
 C1 
A    3
 N1 
A    4
 C2 
A    5
 C3 
A    6
 C4 
A    7
 C5 
A    8
 C6 
A    9
 C7 
A   10
 C8 
A   11
 C9 
A   12
 O2 
A   13
 H1 
A   14
 H2 
A   15
 H3 
A   16
 H4 
A   17
 H5 
A   18
 H6 
A   19
 H7 
M  END
>  <ref_pdb>  (409) 
x0051_0B

>  <ref_mols>  (409) 
x0680_0B,x0386_0B

>  <original SMILES>  (409) 
[H]Oc1nc(-c2c([H])c([H])c([H])c([H])c2[H])c([H])o1

>  <index>  (409) 
523

>  <∆∆G>  (409) 
-5.570605

>  <∆G_bound>  (409) 
-5.495502

>  <∆G_unbound>  (409) 
0.075103

>  <comRMSD>  (409) 
0.620233

>  <N_constrained_atoms>  (409) 
13.0

>  <N_unconstrained_atoms>  (409) 
0.0

>  <runtime>  (409) 
27.248054

>  <LE>  (409) 
0.428508

>  <percent_hybrid>  (409) 
25.0

>  <dist>  (409) 
3.0

>  <ecfp4>  (409) 
0.183673

>  <daylight>  (409) 
0.451613

>  <topodist>  (409) 
2.0

>  <mces>  (409) 
12.0

>  <tdn>  (409) 
1.0

>  <tup>  (409) 
1.0

>  <rdn>  (409) 
0.0

>  <rup>  (409) 
0.0

>  <ldn>  (409) 
0.0

>  <lup>  (409) 
0.0

>  <mut>  (409) 
1.0

>  <maj>  (409) 
1.0

>  <min>  (409) 
0.0

>  <hyb>  (409) 
0.0

>  <sub>  (409) 
2.0

>  <query_index>  (409) 
296.0

>  <max_hit_Tanimoto>  (409) 
0.12336

>  <largest_ring>  (409) 
6

>  <N_interactions_kept>  (409) 
3.5

>  <N_interactions_lost>  (409) 
0.5

>  <interaction_uniqueness_metric>  (409) 
0.016266

>  <ad_hoc_penalty>  (409) 
-19.092885

>  <N_rotatable_bonds>  (409) 
2

>  <N_HA>  (409) 
12

>  <cluster>  (409) 
5741

>  <N_interactions>  (409) 
3

>  <Enamine>  (409) 
0

>  <Mcule>  (409) 
1

>  <N_PAINS>  (409) 
0

>  <UFF_Gibbs>  (409) 
60.678864

>  <strain_per_HA>  (409) 
4.667605

>  <saltbridge:HIS:51>  (409) 
0

>  <pistack:HIS:51>  (409) 
0

>  <hydroph_interaction:HIS:51>  (409) 
0

>  <hbond:ALA:132>  (409) 
0

>  <hbond:SER:135>  (409) 
0

>  <hydroph_interaction:TYR:150>  (409) 
0

>  <pistack:TYR:161>  (409) 
0

>  <hydroph_interaction:TYR:161>  (409) 
3

>  <hydroph_interaction:ASP:83>  (409) 
0

>  <hbond:TYR:130>  (409) 
0

>  <hydroph_interaction:ALA:132>  (409) 
0

>  <hbond:HIS:51>  (409) 
0

>  <hbond:ASP:129>  (409) 
0

>  <hbond:TYR:150>  (409) 
0

>  <hbond:GLY:151>  (409) 
0

>  <hbond:TYR:161>  (409) 
0

>  <hydroph_interaction:TYR:130>  (409) 
0

>  <hydroph_interaction:PRO:131>  (409) 
0

>  <hydroph_interaction:ASP:129>  (409) 
0

>  <saltbridge:ASP:75>  (409) 
0

>  <saltbridge:ASP:83>  (409) 
0

>  <hydroph_interaction:ASN:152>  (409) 
0

>  <halogenbond:TYR:150>  (409) 
0

>  <hbond:ASP:83>  (409) 
0

>  <hydroph_interaction:VAL:155>  (409) 
0

>  <pication:TYR:161>  (409) 
0

>  <hbond:PRO:131>  (409) 
0

>  <hbond:LEU:128>  (409) 
0

>  <saltbridge:ASP:129>  (409) 
0

>  <hbond:THR:134>  (409) 
0

>  <pication:HIS:51>  (409) 
0

>  <hbond:SER:81>  (409) 
0

>  <hbond:GLY:159>  (409) 
0

>  <hydroph_interaction:PRO:101>  (409) 
0

>  <hydroph_interaction:THR:134>  (409) 
0

>  <hbond:GLY:82>  (409) 
0

>  <hydroph_interaction:GLU:104>  (409) 
0

>  <hydroph_interaction:VAL:36>  (409) 
0

>  <hydroph_interaction:MET:49>  (409) 
0

>  <halogenbond:GLU:104>  (409) 
0

>  <hydroph_interaction:LYS:107>  (409) 
0

$$$$
NMMWGZIXIGGLKN-UHFFFAOYSA-N
     RDKit          3D

 41 43  0  0  0  0  0  0  0  0999 V2000
   -8.1988    7.9764  -13.4553 C   0  0  0  0  0  0  0  0  0  0  0  0
   -7.8251    7.5146  -14.7608 N   0  0  0  0  0  0  0  0  0  0  0  0
   -6.8609    6.4310  -14.9544 C   0  0  0  0  0  0  0  0  0  0  0  0
   -7.2567    5.5904  -16.1371 C   0  0  0  0  0  0  0  0  0  0  0  0
   -7.8601    4.3350  -15.9517 C   0  0  0  0  0  0  0  0  0  0  0  0
   -8.2434    3.5685  -17.0563 C   0  0  0  0  0  0  0  0  0  0  0  0
   -8.0323    4.0494  -18.3516 C   0  0  0  0  0  0  0  0  0  0  0  0
   -7.4361    5.2996  -18.5457 C   0  0  0  0  0  0  0  0  0  0  0  0
   -7.1771    5.9051  -20.1716 Cl  0  0  0  0  0  0  0  0  0  0  0  0
   -7.0511    6.0695  -17.4419 C   0  0  0  0  0  0  0  0  0  0  0  0
   -8.2487    9.2168  -13.2369 O   0  0  0  0  0  0  0  0  0  0  0  0
   -8.5548    7.0331  -12.3722 C   0  0  0  0  0  0  0  0  0  0  0  0
   -8.3006    7.3635  -11.0330 C   0  0  0  0  0  0  0  0  0  0  0  0
   -8.6420    6.4778  -10.0069 C   0  0  0  0  0  0  0  0  0  0  0  0
   -9.2570    5.2440  -10.2963 C   0  0  0  0  0  0  0  0  0  0  0  0
   -9.6087    4.3249   -9.2350 N   0  0  0  0  0  0  0  0  0  0  0  0
  -10.0910    2.9698   -9.4598 C   0  0  0  0  0  0  0  0  0  0  0  0
  -10.1605    2.3189   -8.0854 C   0  0  0  0  0  0  0  0  0  0  0  0
  -10.1408    3.4667   -7.0829 C   0  0  0  0  0  0  0  0  0  0  0  0
   -9.5187    4.6458   -7.8177 C   0  0  0  0  0  0  0  0  0  0  0  0
   -9.5265    4.9276  -11.6418 C   0  0  0  0  0  0  0  0  0  0  0  0
   -9.1844    5.8149  -12.6657 C   0  0  0  0  0  0  0  0  0  0  0  0
   -7.9690    8.1732  -15.5597 H   0  0  0  0  0  0  0  0  0  0  0  0
   -6.7782    5.8012  -14.0429 H   0  0  0  0  0  0  0  0  0  0  0  0
   -5.8554    6.8703  -15.1310 H   0  0  0  0  0  0  0  0  0  0  0  0
   -8.0278    3.9461  -14.9554 H   0  0  0  0  0  0  0  0  0  0  0  0
   -8.7049    2.6009  -16.9079 H   0  0  0  0  0  0  0  0  0  0  0  0
   -8.3323    3.4512  -19.2023 H   0  0  0  0  0  0  0  0  0  0  0  0
   -6.5954    7.0395  -17.5992 H   0  0  0  0  0  0  0  0  0  0  0  0
   -7.8232    8.3026  -10.7804 H   0  0  0  0  0  0  0  0  0  0  0  0
   -8.4157    6.7621   -8.9882 H   0  0  0  0  0  0  0  0  0  0  0  0
   -9.3895    2.4102  -10.1162 H   0  0  0  0  0  0  0  0  0  0  0  0
  -11.1018    3.0048   -9.9213 H   0  0  0  0  0  0  0  0  0  0  0  0
   -9.2648    1.6775   -7.9308 H   0  0  0  0  0  0  0  0  0  0  0  0
  -11.0772    1.6995   -7.9749 H   0  0  0  0  0  0  0  0  0  0  0  0
   -9.5585    3.2013   -6.1739 H   0  0  0  0  0  0  0  0  0  0  0  0
  -11.1835    3.7184   -6.7889 H   0  0  0  0  0  0  0  0  0  0  0  0
  -10.0799    5.5788   -7.5927 H   0  0  0  0  0  0  0  0  0  0  0  0
   -8.4517    4.7612   -7.5277 H   0  0  0  0  0  0  0  0  0  0  0  0
  -10.0127    3.9994  -11.9094 H   0  0  0  0  0  0  0  0  0  0  0  0
   -9.4291    5.5566  -13.6879 H   0  0  0  0  0  0  0  0  0  0  0  0
  1  2  1  0
  2  3  1  0
  3  4  1  0
  4  5  2  0
  5  6  1  0
  6  7  2  0
  7  8  1  0
  8  9  1  0
  8 10  2  0
  1 11  2  0
  1 12  1  0
 12 13  2  0
 13 14  1  0
 14 15  2  0
 15 16  1  0
 16 17  1  0
 17 18  1  0
 18 19  1  0
 19 20  1  0
 15 21  1  0
 21 22  2  0
 10  4  1  0
 22 12  1  0
 20 16  1  0
  2 23  1  0
  3 24  1  0
  3 25  1  0
  5 26  1  0
  6 27  1  0
  7 28  1  0
 10 29  1  0
 13 30  1  0
 14 31  1  0
 17 32  1  0
 17 33  1  0
 18 34  1  0
 18 35  1  0
 19 36  1  0
 19 37  1  0
 20 38  1  0
 20 39  1  0
 21 40  1  0
 22 41  1  0
A    1
 C1 
A    2
 N1 
A    3
 C2 
A    4
 C3 
A    5
 C4 
A    6
 C5 
A    7
 C6 
A    8
 C7 
A    9
CL1 
A   10
 C8 
A   11
 O1 
A   12
 C9 
A   13
 C10
A   14
 C11
A   15
 C12
A   16
 N2 
A   17
 C13
A   18
 C14
A   19
 C15
A   20
 C16
A   21
 C17
A   22
 C18
A   23
 H1 
A   24
 H2 
A   25
 H3 
A   26
 H4 
A   27
 H5 
A   28
 H6 
A   29
 H7 
A   30
 H8 
A   31
 H9 
A   32
 H10
A   33
 H11
A   34
 H12
A   35
 H13
A   36
 H14
A   37
 H15
A   38
 H16
A   39
 H17
A   40
 H18
A   41
 H19
M  END
>  <ref_pdb>  (410) 
x0051_0B

>  <ref_mols>  (410) 
x0589_0B,x0404_0B

>  <original SMILES>  (410) 
[H]c1c([H])c(Cl)c([H])c(C([H])([H])N([H])C(=O)c2c([H])c([H])c(N3C([H])([H])C([H])([H])C([H])([H])C3([H])[H])c([H])c2[H])c1[H]

>  <index>  (410) 
542

>  <∆∆G>  (410) 
-6.802647

>  <∆G_bound>  (410) 
-6.442979

>  <∆G_unbound>  (410) 
0.359668

>  <comRMSD>  (410) 
0.725796

>  <N_constrained_atoms>  (410) 
23.0

>  <N_unconstrained_atoms>  (410) 
1.0

>  <runtime>  (410) 
70.457338

>  <LE>  (410) 
0.283444

>  <percent_hybrid>  (410) 
35.0

>  <dist>  (410) 
7.0

>  <ecfp4>  (410) 
0.184211

>  <daylight>  (410) 
0.213115

>  <topodist>  (410) 
3.0

>  <mces>  (410) 
24.0

>  <tdn>  (410) 
2.0

>  <tup>  (410) 
0.0

>  <rdn>  (410) 
0.0

>  <rup>  (410) 
0.0

>  <ldn>  (410) 
1.0

>  <lup>  (410) 
0.0

>  <mut>  (410) 
3.0

>  <maj>  (410) 
2.0

>  <min>  (410) 
1.0

>  <hyb>  (410) 
1.0

>  <sub>  (410) 
1.0

>  <query_index>  (410) 
29.0

>  <max_hit_Tanimoto>  (410) 
0.255613

>  <largest_ring>  (410) 
6

>  <N_interactions_kept>  (410) 
2.5

>  <N_interactions_lost>  (410) 
1.0

>  <interaction_uniqueness_metric>  (410) 
0.063676

>  <ad_hoc_penalty>  (410) 
-19.06458

>  <N_rotatable_bonds>  (410) 
4

>  <N_HA>  (410) 
22

>  <cluster>  (410) 
5722

>  <N_interactions>  (410) 
4

>  <Enamine>  (410) 
0

>  <Mcule>  (410) 
1

>  <N_PAINS>  (410) 
0

>  <UFF_Gibbs>  (410) 
119.339817

>  <strain_per_HA>  (410) 
4.972492

>  <saltbridge:HIS:51>  (410) 
0

>  <pistack:HIS:51>  (410) 
1

>  <hydroph_interaction:HIS:51>  (410) 
0

>  <hbond:ALA:132>  (410) 
0

>  <hbond:SER:135>  (410) 
0

>  <hydroph_interaction:TYR:150>  (410) 
0

>  <pistack:TYR:161>  (410) 
0

>  <hydroph_interaction:TYR:161>  (410) 
2

>  <hydroph_interaction:ASP:83>  (410) 
0

>  <hbond:TYR:130>  (410) 
0

>  <hydroph_interaction:ALA:132>  (410) 
1

>  <hbond:HIS:51>  (410) 
0

>  <hbond:ASP:129>  (410) 
0

>  <hbond:TYR:150>  (410) 
0

>  <hbond:GLY:151>  (410) 
0

>  <hbond:TYR:161>  (410) 
0

>  <hydroph_interaction:TYR:130>  (410) 
0

>  <hydroph_interaction:PRO:131>  (410) 
0

>  <hydroph_interaction:ASP:129>  (410) 
0

>  <saltbridge:ASP:75>  (410) 
0

>  <saltbridge:ASP:83>  (410) 
0

>  <hydroph_interaction:ASN:152>  (410) 
0

>  <halogenbond:TYR:150>  (410) 
0

>  <hbond:ASP:83>  (410) 
0

>  <hydroph_interaction:VAL:155>  (410) 
0

>  <pication:TYR:161>  (410) 
0

>  <hbond:PRO:131>  (410) 
0

>  <hbond:LEU:128>  (410) 
0

>  <saltbridge:ASP:129>  (410) 
0

>  <hbond:THR:134>  (410) 
0

>  <pication:HIS:51>  (410) 
0

>  <hbond:SER:81>  (410) 
0

>  <hbond:GLY:159>  (410) 
0

>  <hydroph_interaction:PRO:101>  (410) 
0

>  <hydroph_interaction:THR:134>  (410) 
0

>  <hbond:GLY:82>  (410) 
0

>  <hydroph_interaction:GLU:104>  (410) 
0

>  <hydroph_interaction:VAL:36>  (410) 
0

>  <hydroph_interaction:MET:49>  (410) 
0

>  <halogenbond:GLU:104>  (410) 
0

>  <hydroph_interaction:LYS:107>  (410) 
0

$$$$
Z2090267504
     RDKit          3D

 52 55  0  0  0  0  0  0  0  0999 V2000
  -10.8481    4.0353  -19.6905 C   0  0  0  0  0  0  0  0  0  0  0  0
   -9.4741    3.9500  -19.2128 N   0  0  0  0  0  0  0  0  0  0  0  0
   -9.1334    4.2037  -17.8422 C   0  0  0  0  0  0  0  0  0  0  0  0
  -10.0465    4.3433  -16.9850 O   0  0  0  0  0  0  0  0  0  0  0  0
   -7.7644    4.2450  -17.4167 N   0  0  0  0  0  0  0  0  0  0  0  0
   -6.6611    4.5963  -18.2714 C   0  0  0  0  0  0  0  0  0  0  0  0
   -6.8140    5.5405  -19.3046 C   0  0  0  0  0  0  0  0  0  0  0  0
   -5.7256    5.9032  -20.1109 C   0  0  0  0  0  0  0  0  0  0  0  0
   -5.9266    6.8416  -21.1803 N   0  0  0  0  0  0  0  0  0  0  0  0
   -5.0071    7.9052  -21.4932 C   0  0  0  0  0  0  0  0  0  0  0  0
   -3.9197    8.0041  -20.8613 O   0  0  0  0  0  0  0  0  0  0  0  0
   -5.3222    8.9079  -22.5405 C   0  0  0  0  0  0  0  0  0  0  0  0
   -6.6525    9.2579  -22.8405 C   0  0  0  0  0  0  0  0  0  0  0  0
   -6.9288   10.2163  -23.8196 C   0  0  0  0  0  0  0  0  0  0  0  0
   -5.8833   10.8368  -24.5133 C   0  0  0  0  0  0  0  0  0  0  0  0
   -6.2447   12.0634  -25.7751 S   0  0  0  0  0  0  0  0  0  0  0  0
   -6.2024   10.8809  -27.1670 C   0  0  0  0  0  0  0  0  0  0  0  0
   -7.3406    9.9136  -27.0784 C   0  0  0  0  0  0  0  0  0  0  0  0
   -7.1680    8.5946  -26.7964 N   0  0  0  0  0  0  0  0  0  0  0  0
   -8.4310    8.1319  -26.7636 C   0  0  0  0  0  0  0  0  0  0  0  0
   -8.8564    6.8292  -26.5130 C   0  0  0  0  0  0  0  0  0  0  0  0
  -10.2429    6.5787  -26.5244 C   0  0  0  0  0  0  0  0  0  0  0  0
  -11.1570    7.6284  -26.7775 C   0  0  0  0  0  0  0  0  0  0  0  0
  -10.6916    8.9355  -27.0243 C   0  0  0  0  0  0  0  0  0  0  0  0
   -9.3140    9.1409  -27.0100 C   0  0  0  0  0  0  0  0  0  0  0  0
   -8.6394   10.2798  -27.2120 N   0  0  0  0  0  0  0  0  0  0  0  0
   -4.5582   10.5114  -24.2092 C   0  0  0  0  0  0  0  0  0  0  0  0
   -4.2774    9.5568  -23.2269 C   0  0  0  0  0  0  0  0  0  0  0  0
   -4.4772    5.2978  -19.8937 C   0  0  0  0  0  0  0  0  0  0  0  0
   -4.3122    4.3798  -18.8532 C   0  0  0  0  0  0  0  0  0  0  0  0
   -5.3939    4.0380  -18.0360 C   0  0  0  0  0  0  0  0  0  0  0  0
   -5.2134    3.1426  -17.0330 F   0  0  0  0  0  0  0  0  0  0  0  0
  -11.2347    5.0647  -19.5388 H   0  0  0  0  0  0  0  0  0  0  0  0
  -11.4846    3.3124  -19.1369 H   0  0  0  0  0  0  0  0  0  0  0  0
  -10.8887    3.7926  -20.7748 H   0  0  0  0  0  0  0  0  0  0  0  0
   -8.7298    3.6735  -19.8917 H   0  0  0  0  0  0  0  0  0  0  0  0
   -7.5621    3.9934  -16.4232 H   0  0  0  0  0  0  0  0  0  0  0  0
   -7.7722    6.0178  -19.4680 H   0  0  0  0  0  0  0  0  0  0  0  0
   -6.8371    6.7883  -21.6879 H   0  0  0  0  0  0  0  0  0  0  0  0
   -7.4833    8.8187  -22.3042 H   0  0  0  0  0  0  0  0  0  0  0  0
   -7.9571   10.4758  -24.0393 H   0  0  0  0  0  0  0  0  0  0  0  0
   -5.2327   10.3384  -27.1742 H   0  0  0  0  0  0  0  0  0  0  0  0
   -6.2852   11.4494  -28.1169 H   0  0  0  0  0  0  0  0  0  0  0  0
   -8.1472    6.0351  -26.3161 H   0  0  0  0  0  0  0  0  0  0  0  0
  -10.6112    5.5774  -26.3400 H   0  0  0  0  0  0  0  0  0  0  0  0
  -12.2200    7.4262  -26.7835 H   0  0  0  0  0  0  0  0  0  0  0  0
  -11.3798    9.7490  -27.2182 H   0  0  0  0  0  0  0  0  0  0  0  0
   -9.0241   11.2305  -27.4068 H   0  0  0  0  0  0  0  0  0  0  0  0
   -3.7447   10.9863  -24.7431 H   0  0  0  0  0  0  0  0  0  0  0  0
   -3.2455    9.3089  -23.0182 H   0  0  0  0  0  0  0  0  0  0  0  0
   -3.6356    5.5170  -20.5363 H   0  0  0  0  0  0  0  0  0  0  0  0
   -3.3448    3.9238  -18.6852 H   0  0  0  0  0  0  0  0  0  0  0  0
  1  2  1  0
  2  3  1  0
  3  4  2  0
  3  5  1  0
  5  6  1  0
  6  7  2  0
  7  8  1  0
  8  9  1  0
  9 10  1  0
 10 11  2  0
 10 12  1  0
 12 13  2  0
 13 14  1  0
 14 15  2  0
 15 16  1  0
 16 17  1  0
 17 18  1  0
 18 19  2  0
 19 20  1  0
 20 21  2  0
 21 22  1  0
 22 23  2  0
 23 24  1  0
 24 25  2  0
 25 26  1  0
 15 27  1  0
 27 28  2  0
  8 29  2  0
 29 30  1  0
 30 31  2  0
 31 32  1  0
 31  6  1  0
 28 12  1  0
 26 18  1  0
 25 20  1  0
  1 33  1  0
  1 34  1  0
  1 35  1  0
  2 36  1  0
  5 37  1  0
  7 38  1  0
  9 39  1  0
 13 40  1  0
 14 41  1  0
 17 42  1  0
 17 43  1  0
 21 44  1  0
 22 45  1  0
 23 46  1  0
 24 47  1  0
 26 48  1  0
 27 49  1  0
 28 50  1  0
 29 51  1  0
 30 52  1  0
A    1
 C1 
A    2
 N1 
A    3
 C2 
A    4
 O1 
A    5
 N2 
A    6
 C3 
A    7
 C4 
A    8
 C5 
A    9
 N3 
A   10
 C6 
A   11
 O2 
A   12
 C7 
A   13
 C8 
A   14
 C9 
A   15
 C10
A   16
 S1 
A   17
 C11
A   18
 C12
A   19
 N4 
A   20
 C13
A   21
 C14
A   22
 C15
A   23
 C16
A   24
 C17
A   25
 C18
A   26
 N5 
A   27
 C19
A   28
 C20
A   29
 C21
A   30
 C22
A   31
 C23
A   32
 F1 
A   33
 H1 
A   34
 H2 
A   35
 H3 
A   36
 H4 
A   37
 H5 
A   38
 H6 
A   39
 H7 
A   40
 H8 
A   41
 H9 
A   42
 H10
A   43
 H11
A   44
 H12
A   45
 H13
A   46
 H14
A   47
 H15
A   48
 H16
A   49
 H17
A   50
 H18
A   51
 H19
A   52
 H20
M  END
>  <ref_pdb>  (411) 
x0051_0B

>  <ref_mols>  (411) 
x0846_1B,x0680_0B

>  <original SMILES>  (411) 
[H]c1c([H])c(N([H])C(=O)c2c([H])c([H])c(SC([H])([H])c3nc4c([H])c([H])c([H])c([H])c4n3[H])c([H])c2[H])c([H])c(N([H])C(=O)N([H])C([H])([H])[H])c1F

>  <index>  (411) 
512

>  <∆∆G>  (411) 
-9.41033

>  <∆G_bound>  (411) 
-8.266135

>  <∆G_unbound>  (411) 
1.144195

>  <comRMSD>  (411) 
0.711323

>  <N_constrained_atoms>  (411) 
29.0

>  <N_unconstrained_atoms>  (411) 
3.0

>  <runtime>  (411) 
52.861366

>  <LE>  (411) 
0.294073

>  <percent_hybrid>  (411) 
38.0

>  <dist>  (411) 
8.0

>  <ecfp4>  (411) 
0.212766

>  <daylight>  (411) 
0.4

>  <topodist>  (411) 
4.0

>  <mces>  (411) 
32.0

>  <tdn>  (411) 
1.0

>  <tup>  (411) 
1.0

>  <rdn>  (411) 
0.0

>  <rup>  (411) 
0.0

>  <ldn>  (411) 
0.0

>  <lup>  (411) 
2.0

>  <mut>  (411) 
4.0

>  <maj>  (411) 
4.0

>  <min>  (411) 
0.0

>  <hyb>  (411) 
0.0

>  <sub>  (411) 
1.0

>  <query_index>  (411) 
100.0

>  <max_hit_Tanimoto>  (411) 
0.28844

>  <largest_ring>  (411) 
6

>  <N_interactions_kept>  (411) 
1.5

>  <N_interactions_lost>  (411) 
2.5

>  <interaction_uniqueness_metric>  (411) 
0.201132

>  <ad_hoc_penalty>  (411) 
-19.059642

>  <N_rotatable_bonds>  (411) 
7

>  <N_HA>  (411) 
32

>  <cluster>  (411) 
522

>  <N_interactions>  (411) 
7

>  <Enamine>  (411) 
1

>  <Mcule>  (411) 
0

>  <N_PAINS>  (411) 
0

>  <UFF_Gibbs>  (411) 
217.037854

>  <strain_per_HA>  (411) 
6.782433

>  <saltbridge:HIS:51>  (411) 
0

>  <pistack:HIS:51>  (411) 
0

>  <hydroph_interaction:HIS:51>  (411) 
0

>  <hbond:ALA:132>  (411) 
0

>  <hbond:SER:135>  (411) 
0

>  <hydroph_interaction:TYR:150>  (411) 
0

>  <pistack:TYR:161>  (411) 
1

>  <hydroph_interaction:TYR:161>  (411) 
1

>  <hydroph_interaction:ASP:83>  (411) 
0

>  <hbond:TYR:130>  (411) 
2

>  <hydroph_interaction:ALA:132>  (411) 
0

>  <hbond:HIS:51>  (411) 
0

>  <hbond:ASP:129>  (411) 
1

>  <hbond:TYR:150>  (411) 
0

>  <hbond:GLY:151>  (411) 
0

>  <hbond:TYR:161>  (411) 
0

>  <hydroph_interaction:TYR:130>  (411) 
1

>  <hydroph_interaction:PRO:131>  (411) 
1

>  <hydroph_interaction:ASP:129>  (411) 
0

>  <saltbridge:ASP:75>  (411) 
0

>  <saltbridge:ASP:83>  (411) 
0

>  <hydroph_interaction:ASN:152>  (411) 
0

>  <halogenbond:TYR:150>  (411) 
0

>  <hbond:ASP:83>  (411) 
0

>  <hydroph_interaction:VAL:155>  (411) 
0

>  <pication:TYR:161>  (411) 
0

>  <hbond:PRO:131>  (411) 
0

>  <hbond:LEU:128>  (411) 
0

>  <saltbridge:ASP:129>  (411) 
0

>  <hbond:THR:134>  (411) 
0

>  <pication:HIS:51>  (411) 
0

>  <hbond:SER:81>  (411) 
0

>  <hbond:GLY:159>  (411) 
0

>  <hydroph_interaction:PRO:101>  (411) 
0

>  <hydroph_interaction:THR:134>  (411) 
0

>  <hbond:GLY:82>  (411) 
0

>  <hydroph_interaction:GLU:104>  (411) 
0

>  <hydroph_interaction:VAL:36>  (411) 
0

>  <hydroph_interaction:MET:49>  (411) 
0

>  <halogenbond:GLU:104>  (411) 
0

>  <hydroph_interaction:LYS:107>  (411) 
0

$$$$
MCULE-6572562253
     RDKit          3D

 18 19  0  0  0  0  0  0  0  0999 V2000
   -8.8213    5.3792  -17.2534 C   0  0  0  0  0  0  0  0  0  0  0  0
   -8.0870    6.1585  -15.6691 Br  0  0  0  0  0  0  0  0  0  0  0  0
  -10.0934    5.0778  -17.3750 O   0  0  0  0  0  0  0  0  0  0  0  0
  -10.3084    4.6118  -18.5838 C   0  0  0  0  0  0  0  0  0  0  0  0
   -9.1291    4.6062  -19.2987 C   0  0  0  0  0  0  0  0  0  0  0  0
   -8.1615    5.0898  -18.4391 C   0  0  0  0  0  0  0  0  0  0  0  0
   -6.7293    5.2717  -18.7621 C   0  0  0  0  0  0  0  0  0  0  0  0
   -5.7282    4.9881  -17.8200 C   0  0  0  0  0  0  0  0  0  0  0  0
   -4.3833    5.1559  -18.1547 C   0  0  0  0  0  0  0  0  0  0  0  0
   -4.0468    5.5982  -19.4345 C   0  0  0  0  0  0  0  0  0  0  0  0
   -5.0235    5.8549  -20.3439 N   0  0  0  0  0  0  0  0  0  0  0  0
   -6.3404    5.6985  -20.0427 C   0  0  0  0  0  0  0  0  0  0  0  0
  -11.2729    4.2867  -18.9501 H   0  0  0  0  0  0  0  0  0  0  0  0
   -8.9935    4.2744  -20.3197 H   0  0  0  0  0  0  0  0  0  0  0  0
   -5.9803    4.6098  -16.8387 H   0  0  0  0  0  0  0  0  0  0  0  0
   -3.6086    4.9365  -17.4315 H   0  0  0  0  0  0  0  0  0  0  0  0
   -3.0086    5.7313  -19.7076 H   0  0  0  0  0  0  0  0  0  0  0  0
   -7.0828    5.9208  -20.7984 H   0  0  0  0  0  0  0  0  0  0  0  0
  1  2  1  0
  1  3  1  0
  3  4  1  0
  4  5  2  0
  5  6  1  0
  6  7  1  0
  7  8  2  0
  8  9  1  0
  9 10  2  0
 10 11  1  0
 11 12  2  0
  1  6  2  0
  7 12  1  0
  4 13  1  0
  5 14  1  0
  8 15  1  0
  9 16  1  0
 10 17  1  0
 12 18  1  0
A    1
 C1 
A    2
BR1 
A    3
 O1 
A    4
 C2 
A    5
 C3 
A    6
 C4 
A    7
 C5 
A    8
 C6 
A    9
 C7 
A   10
 C8 
A   11
 N1 
A   12
 C9 
A   13
 H1 
A   14
 H2 
A   15
 H3 
A   16
 H4 
A   17
 H5 
A   18
 H6 
M  END
>  <ref_pdb>  (412) 
x0051_0B

>  <ref_mols>  (412) 
x0680_0B,x0386_0B

>  <original SMILES>  (412) 
[H]c1nc([H])c(-c2c(Br)oc([H])c2[H])c([H])c1[H]

>  <index>  (412) 
644

>  <∆∆G>  (412) 
-5.87684

>  <∆G_bound>  (412) 
-5.644394

>  <∆G_unbound>  (412) 
0.232446

>  <comRMSD>  (412) 
0.716098

>  <N_constrained_atoms>  (412) 
12.0

>  <N_unconstrained_atoms>  (412) 
1.0

>  <runtime>  (412) 
22.767917

>  <LE>  (412) 
0.452065

>  <percent_hybrid>  (412) 
17.0

>  <dist>  (412) 
3.0

>  <ecfp4>  (412) 
0.211538

>  <daylight>  (412) 
0.388489

>  <topodist>  (412) 
2.0

>  <mces>  (412) 
12.0

>  <tdn>  (412) 
1.0

>  <tup>  (412) 
1.0

>  <rdn>  (412) 
0.0

>  <rup>  (412) 
0.0

>  <ldn>  (412) 
0.0

>  <lup>  (412) 
0.0

>  <mut>  (412) 
1.0

>  <maj>  (412) 
1.0

>  <min>  (412) 
0.0

>  <hyb>  (412) 
0.0

>  <sub>  (412) 
2.0

>  <query_index>  (412) 
296.0

>  <max_hit_Tanimoto>  (412) 
0.128425

>  <largest_ring>  (412) 
6

>  <N_interactions_kept>  (412) 
3.0

>  <N_interactions_lost>  (412) 
1.0

>  <interaction_uniqueness_metric>  (412) 
0.028804

>  <ad_hoc_penalty>  (412) 
-19.053107

>  <N_rotatable_bonds>  (412) 
1

>  <N_HA>  (412) 
12

>  <cluster>  (412) 
5629

>  <N_interactions>  (412) 
3

>  <Enamine>  (412) 
0

>  <Mcule>  (412) 
1

>  <N_PAINS>  (412) 
0

>  <UFF_Gibbs>  (412) 
41.364906

>  <strain_per_HA>  (412) 
3.181916

>  <saltbridge:HIS:51>  (412) 
0

>  <pistack:HIS:51>  (412) 
0

>  <hydroph_interaction:HIS:51>  (412) 
0

>  <hbond:ALA:132>  (412) 
0

>  <hbond:SER:135>  (412) 
0

>  <hydroph_interaction:TYR:150>  (412) 
1

>  <pistack:TYR:161>  (412) 
0

>  <hydroph_interaction:TYR:161>  (412) 
2

>  <hydroph_interaction:ASP:83>  (412) 
0

>  <hbond:TYR:130>  (412) 
0

>  <hydroph_interaction:ALA:132>  (412) 
0

>  <hbond:HIS:51>  (412) 
0

>  <hbond:ASP:129>  (412) 
0

>  <hbond:TYR:150>  (412) 
0

>  <hbond:GLY:151>  (412) 
0

>  <hbond:TYR:161>  (412) 
0

>  <hydroph_interaction:TYR:130>  (412) 
0

>  <hydroph_interaction:PRO:131>  (412) 
0

>  <hydroph_interaction:ASP:129>  (412) 
0

>  <saltbridge:ASP:75>  (412) 
0

>  <saltbridge:ASP:83>  (412) 
0

>  <hydroph_interaction:ASN:152>  (412) 
0

>  <halogenbond:TYR:150>  (412) 
0

>  <hbond:ASP:83>  (412) 
0

>  <hydroph_interaction:VAL:155>  (412) 
0

>  <pication:TYR:161>  (412) 
0

>  <hbond:PRO:131>  (412) 
0

>  <hbond:LEU:128>  (412) 
0

>  <saltbridge:ASP:129>  (412) 
0

>  <hbond:THR:134>  (412) 
0

>  <pication:HIS:51>  (412) 
0

>  <hbond:SER:81>  (412) 
0

>  <hbond:GLY:159>  (412) 
0

>  <hydroph_interaction:PRO:101>  (412) 
0

>  <hydroph_interaction:THR:134>  (412) 
0

>  <hbond:GLY:82>  (412) 
0

>  <hydroph_interaction:GLU:104>  (412) 
0

>  <hydroph_interaction:VAL:36>  (412) 
0

>  <hydroph_interaction:MET:49>  (412) 
0

>  <halogenbond:GLU:104>  (412) 
0

>  <hydroph_interaction:LYS:107>  (412) 
0

$$$$
CAVVDSMLZCEPNR-UHFFFAOYSA-N
     RDKit          3D

 45 47  0  0  0  0  0  0  0  0999 V2000
   -8.5369    7.8742  -13.6367 C   0  0  0  0  0  0  0  0  0  0  0  0
   -8.1451    7.4140  -14.9378 N   0  0  0  0  0  0  0  0  0  0  0  0
   -7.0048    6.5184  -15.1301 C   0  0  0  0  0  0  0  0  0  0  0  0
   -7.1381    5.7925  -16.4425 C   0  0  0  0  0  0  0  0  0  0  0  0
   -6.6524    6.3678  -17.6314 C   0  0  0  0  0  0  0  0  0  0  0  0
   -6.0096    7.5646  -17.6103 F   0  0  0  0  0  0  0  0  0  0  0  0
   -6.8335    5.7143  -18.8539 C   0  0  0  0  0  0  0  0  0  0  0  0
   -7.5049    4.4893  -18.9053 C   0  0  0  0  0  0  0  0  0  0  0  0
   -7.6815    3.8730  -20.1008 F   0  0  0  0  0  0  0  0  0  0  0  0
   -8.0001    3.9122  -17.7273 C   0  0  0  0  0  0  0  0  0  0  0  0
   -8.7131    2.6607  -17.7739 C   0  0  0  0  0  0  0  0  0  0  0  0
   -9.2889    1.6570  -17.8123 N   0  0  0  0  0  0  0  0  0  0  0  0
   -7.8186    4.5643  -16.5001 C   0  0  0  0  0  0  0  0  0  0  0  0
   -8.7742    9.0990  -13.4721 O   0  0  0  0  0  0  0  0  0  0  0  0
   -8.6945    6.9463  -12.4935 C   0  0  0  0  0  0  0  0  0  0  0  0
   -8.5068    7.4065  -11.1797 C   0  0  0  0  0  0  0  0  0  0  0  0
   -8.6577    6.5371  -10.0957 C   0  0  0  0  0  0  0  0  0  0  0  0
   -9.0054    5.1934  -10.3040 C   0  0  0  0  0  0  0  0  0  0  0  0
   -9.1489    4.3006   -9.1817 N   0  0  0  0  0  0  0  0  0  0  0  0
  -10.2364    3.3134   -9.1523 C   0  0  0  0  0  0  0  0  0  0  0  0
  -10.7602    3.1414   -7.7230 C   0  0  0  0  0  0  0  0  0  0  0  0
   -9.6131    2.8569   -6.7476 C   0  0  0  0  0  0  0  0  0  0  0  0
   -8.5529    3.9602   -6.8174 C   0  0  0  0  0  0  0  0  0  0  0  0
   -8.0294    4.1213   -8.2471 C   0  0  0  0  0  0  0  0  0  0  0  0
   -9.2235    4.7387  -11.6156 C   0  0  0  0  0  0  0  0  0  0  0  0
   -9.0772    5.6102  -12.6991 C   0  0  0  0  0  0  0  0  0  0  0  0
   -8.4120    8.0185  -15.7477 H   0  0  0  0  0  0  0  0  0  0  0  0
   -6.0682    7.1159  -15.1141 H   0  0  0  0  0  0  0  0  0  0  0  0
   -6.9252    5.7850  -14.3003 H   0  0  0  0  0  0  0  0  0  0  0  0
   -6.4568    6.1604  -19.7639 H   0  0  0  0  0  0  0  0  0  0  0  0
   -8.2103    4.1190  -15.5926 H   0  0  0  0  0  0  0  0  0  0  0  0
   -8.2341    8.4379  -10.9912 H   0  0  0  0  0  0  0  0  0  0  0  0
   -8.5151    6.9144   -9.0911 H   0  0  0  0  0  0  0  0  0  0  0  0
  -11.0801    3.6429   -9.7967 H   0  0  0  0  0  0  0  0  0  0  0  0
   -9.8618    2.3392   -9.5363 H   0  0  0  0  0  0  0  0  0  0  0  0
  -11.4852    2.3005   -7.6952 H   0  0  0  0  0  0  0  0  0  0  0  0
  -11.2923    4.0667   -7.4110 H   0  0  0  0  0  0  0  0  0  0  0  0
  -10.0155    2.8000   -5.7138 H   0  0  0  0  0  0  0  0  0  0  0  0
   -9.1508    1.8749   -6.9908 H   0  0  0  0  0  0  0  0  0  0  0  0
   -8.9925    4.9223   -6.4745 H   0  0  0  0  0  0  0  0  0  0  0  0
   -7.7087    3.7048   -6.1414 H   0  0  0  0  0  0  0  0  0  0  0  0
   -7.4516    3.2158   -8.5380 H   0  0  0  0  0  0  0  0  0  0  0  0
   -7.3330    4.9877   -8.2791 H   0  0  0  0  0  0  0  0  0  0  0  0
   -9.5016    3.7062  -11.8022 H   0  0  0  0  0  0  0  0  0  0  0  0
   -9.2747    5.2416  -13.6971 H   0  0  0  0  0  0  0  0  0  0  0  0
  1  2  1  0
  2  3  1  0
  3  4  1  0
  4  5  2  0
  5  6  1  0
  5  7  1  0
  7  8  2  0
  8  9  1  0
  8 10  1  0
 10 11  1  0
 11 12  3  0
 10 13  2  0
  1 14  2  0
  1 15  1  0
 15 16  2  0
 16 17  1  0
 17 18  2  0
 18 19  1  0
 19 20  1  0
 20 21  1  0
 21 22  1  0
 22 23  1  0
 23 24  1  0
 18 25  1  0
 25 26  2  0
 13  4  1  0
 26 15  1  0
 24 19  1  0
  2 27  1  0
  3 28  1  0
  3 29  1  0
  7 30  1  0
 13 31  1  0
 16 32  1  0
 17 33  1  0
 20 34  1  0
 20 35  1  0
 21 36  1  0
 21 37  1  0
 22 38  1  0
 22 39  1  0
 23 40  1  0
 23 41  1  0
 24 42  1  0
 24 43  1  0
 25 44  1  0
 26 45  1  0
A    1
 C1 
A    2
 N1 
A    3
 C2 
A    4
 C3 
A    5
 C4 
A    6
 F1 
A    7
 C5 
A    8
 C6 
A    9
 F2 
A   10
 C7 
A   11
 C8 
A   12
 N2 
A   13
 C9 
A   14
 O1 
A   15
 C10
A   16
 C11
A   17
 C12
A   18
 C13
A   19
 N3 
A   20
 C14
A   21
 C15
A   22
 C16
A   23
 C17
A   24
 C18
A   25
 C19
A   26
 C20
A   27
 H1 
A   28
 H2 
A   29
 H3 
A   30
 H4 
A   31
 H5 
A   32
 H6 
A   33
 H7 
A   34
 H8 
A   35
 H9 
A   36
 H10
A   37
 H11
A   38
 H12
A   39
 H13
A   40
 H14
A   41
 H15
A   42
 H16
A   43
 H17
A   44
 H18
A   45
 H19
M  END
>  <ref_pdb>  (413) 
x0051_0B

>  <ref_mols>  (413) 
x0553_0B,x0404_0B

>  <original SMILES>  (413) 
[H]c1c(F)c(C#N)c([H])c(C([H])([H])N([H])C(=O)c2c([H])c([H])c(N3C([H])([H])C([H])([H])C([H])([H])C([H])([H])C3([H])[H])c([H])c2[H])c1F

>  <index>  (413) 
712

>  <∆∆G>  (413) 
-5.338009

>  <∆G_bound>  (413) 
-4.670238

>  <∆G_unbound>  (413) 
0.667771

>  <comRMSD>  (413) 
0.727577

>  <N_constrained_atoms>  (413) 
24.0

>  <N_unconstrained_atoms>  (413) 
2.0

>  <runtime>  (413) 
71.934139

>  <LE>  (413) 
0.205308

>  <percent_hybrid>  (413) 
38.0

>  <dist>  (413) 
7.0

>  <ecfp4>  (413) 
0.231707

>  <daylight>  (413) 
0.230392

>  <topodist>  (413) 
2.0

>  <mces>  (413) 
27.0

>  <tdn>  (413) 
1.0

>  <tup>  (413) 
1.0

>  <rdn>  (413) 
0.0

>  <rup>  (413) 
0.0

>  <ldn>  (413) 
0.0

>  <lup>  (413) 
0.0

>  <mut>  (413) 
4.0

>  <maj>  (413) 
4.0

>  <min>  (413) 
0.0

>  <hyb>  (413) 
1.0

>  <sub>  (413) 
1.0

>  <query_index>  (413) 
112.0

>  <max_hit_Tanimoto>  (413) 
0.222826

>  <largest_ring>  (413) 
6

>  <N_interactions_kept>  (413) 
1.0

>  <N_interactions_lost>  (413) 
2.5

>  <interaction_uniqueness_metric>  (413) 
0.348729

>  <ad_hoc_penalty>  (413) 
-19.05284

>  <N_rotatable_bonds>  (413) 
4

>  <N_HA>  (413) 
26

>  <cluster>  (413) 
521

>  <N_interactions>  (413) 
7

>  <Enamine>  (413) 
0

>  <Mcule>  (413) 
1

>  <N_PAINS>  (413) 
0

>  <UFF_Gibbs>  (413) 
154.923544

>  <strain_per_HA>  (413) 
5.958598

>  <saltbridge:HIS:51>  (413) 
0

>  <pistack:HIS:51>  (413) 
1

>  <hydroph_interaction:HIS:51>  (413) 
1

>  <hbond:ALA:132>  (413) 
0

>  <hbond:SER:135>  (413) 
0

>  <hydroph_interaction:TYR:150>  (413) 
0

>  <pistack:TYR:161>  (413) 
1

>  <hydroph_interaction:TYR:161>  (413) 
1

>  <hydroph_interaction:ASP:83>  (413) 
1

>  <hbond:TYR:130>  (413) 
0

>  <hydroph_interaction:ALA:132>  (413) 
1

>  <hbond:HIS:51>  (413) 
0

>  <hbond:ASP:129>  (413) 
0

>  <hbond:TYR:150>  (413) 
0

>  <hbond:GLY:151>  (413) 
0

>  <hbond:TYR:161>  (413) 
0

>  <hydroph_interaction:TYR:130>  (413) 
0

>  <hydroph_interaction:PRO:131>  (413) 
0

>  <hydroph_interaction:ASP:129>  (413) 
0

>  <saltbridge:ASP:75>  (413) 
0

>  <saltbridge:ASP:83>  (413) 
0

>  <hydroph_interaction:ASN:152>  (413) 
0

>  <halogenbond:TYR:150>  (413) 
1

>  <hbond:ASP:83>  (413) 
0

>  <hydroph_interaction:VAL:155>  (413) 
0

>  <pication:TYR:161>  (413) 
0

>  <hbond:PRO:131>  (413) 
0

>  <hbond:LEU:128>  (413) 
0

>  <saltbridge:ASP:129>  (413) 
0

>  <hbond:THR:134>  (413) 
0

>  <pication:HIS:51>  (413) 
0

>  <hbond:SER:81>  (413) 
0

>  <hbond:GLY:159>  (413) 
0

>  <hydroph_interaction:PRO:101>  (413) 
0

>  <hydroph_interaction:THR:134>  (413) 
0

>  <hbond:GLY:82>  (413) 
0

>  <hydroph_interaction:GLU:104>  (413) 
0

>  <hydroph_interaction:VAL:36>  (413) 
0

>  <hydroph_interaction:MET:49>  (413) 
0

>  <halogenbond:GLU:104>  (413) 
0

>  <hydroph_interaction:LYS:107>  (413) 
0

$$$$
MCULE-9131713610
     RDKit          3D

 54 58  0  0  0  0  0  0  0  0999 V2000
   -5.2757    6.8804  -19.0962 N   0  0  0  0  0  0  0  0  0  0  0  0
   -4.7043    6.2969  -17.8820 C   0  0  0  0  0  0  0  0  0  0  0  0
   -5.8113    6.1205  -16.8468 C   0  0  0  0  0  0  0  0  0  0  0  0
   -7.0208    5.4372  -17.4418 C   0  0  0  0  0  0  0  0  0  0  0  0
   -7.9497    4.8249  -16.5840 C   0  0  0  0  0  0  0  0  0  0  0  0
   -9.1128    4.2445  -17.0969 C   0  0  0  0  0  0  0  0  0  0  0  0
   -9.3663    4.2792  -18.4696 C   0  0  0  0  0  0  0  0  0  0  0  0
   -8.4573    4.8931  -19.3348 C   0  0  0  0  0  0  0  0  0  0  0  0
   -7.2871    5.4881  -18.8333 C   0  0  0  0  0  0  0  0  0  0  0  0
   -6.3088    6.1117  -19.8026 C   0  0  0  0  0  0  0  0  0  0  0  0
   -4.9740    8.2390  -19.4682 C   0  0  0  0  0  0  0  0  0  0  0  0
   -4.7809    9.1003  -18.5663 O   0  0  0  0  0  0  0  0  0  0  0  0
   -4.8857    8.6487  -20.8882 C   0  0  0  0  0  0  0  0  0  0  0  0
   -4.4406    7.7455  -21.8691 C   0  0  0  0  0  0  0  0  0  0  0  0
   -4.3492    8.1419  -23.2065 C   0  0  0  0  0  0  0  0  0  0  0  0
   -4.6970    9.4469  -23.5843 C   0  0  0  0  0  0  0  0  0  0  0  0
   -5.1427   10.3500  -22.6071 C   0  0  0  0  0  0  0  0  0  0  0  0
   -5.2235    9.9583  -21.2676 C   0  0  0  0  0  0  0  0  0  0  0  0
   -4.6459    9.8649  -25.0281 C   0  0  0  0  0  0  0  0  0  0  0  0
   -5.9799    9.7844  -25.6196 N   0  0  0  0  0  0  0  0  0  0  0  0
   -6.5739    8.5345  -26.0045 C   0  0  0  0  0  0  0  0  0  0  0  0
   -5.8803    7.4818  -25.9956 O   0  0  0  0  0  0  0  0  0  0  0  0
   -7.9847    8.4570  -26.4297 C   0  0  0  0  0  0  0  0  0  0  0  0
   -8.9205    9.4922  -26.3664 C   0  0  0  0  0  0  0  0  0  0  0  0
  -10.0857    8.9493  -26.8652 C   0  0  0  0  0  0  0  0  0  0  0  0
   -9.8254    7.6460  -27.2003 C   0  0  0  0  0  0  0  0  0  0  0  0
  -10.8089    6.8166  -27.7398 C   0  0  0  0  0  0  0  0  0  0  0  0
  -12.0928    7.3592  -27.9321 C   0  0  0  0  0  0  0  0  0  0  0  0
  -12.3607    8.7029  -27.5840 C   0  0  0  0  0  0  0  0  0  0  0  0
  -11.3468    9.5151  -27.0410 C   0  0  0  0  0  0  0  0  0  0  0  0
   -8.5467    7.3307  -26.9366 N   0  0  0  0  0  0  0  0  0  0  0  0
   -3.8955    6.9366  -17.4664 H   0  0  0  0  0  0  0  0  0  0  0  0
   -4.2600    5.3070  -18.1249 H   0  0  0  0  0  0  0  0  0  0  0  0
   -5.4148    5.5298  -15.9916 H   0  0  0  0  0  0  0  0  0  0  0  0
   -6.1199    7.1188  -16.4679 H   0  0  0  0  0  0  0  0  0  0  0  0
   -7.7763    4.8038  -15.5148 H   0  0  0  0  0  0  0  0  0  0  0  0
   -9.8224    3.7729  -16.4280 H   0  0  0  0  0  0  0  0  0  0  0  0
  -10.2685    3.8285  -18.8635 H   0  0  0  0  0  0  0  0  0  0  0  0
   -8.6652    4.9080  -20.3974 H   0  0  0  0  0  0  0  0  0  0  0  0
   -5.8220    5.3042  -20.3898 H   0  0  0  0  0  0  0  0  0  0  0  0
   -6.8687    6.7665  -20.5053 H   0  0  0  0  0  0  0  0  0  0  0  0
   -4.1485    6.7384  -21.6002 H   0  0  0  0  0  0  0  0  0  0  0  0
   -4.0066    7.4290  -23.9461 H   0  0  0  0  0  0  0  0  0  0  0  0
   -5.4287   11.3563  -22.8837 H   0  0  0  0  0  0  0  0  0  0  0  0
   -5.5717   10.6722  -20.5307 H   0  0  0  0  0  0  0  0  0  0  0  0
   -3.9321    9.2381  -25.6065 H   0  0  0  0  0  0  0  0  0  0  0  0
   -4.2779   10.9126  -25.0928 H   0  0  0  0  0  0  0  0  0  0  0  0
   -6.5006   10.6776  -25.7658 H   0  0  0  0  0  0  0  0  0  0  0  0
   -8.7824   10.5006  -25.9984 H   0  0  0  0  0  0  0  0  0  0  0  0
  -10.5930    5.7894  -28.0028 H   0  0  0  0  0  0  0  0  0  0  0  0
  -12.8800    6.7439  -28.3485 H   0  0  0  0  0  0  0  0  0  0  0  0
  -13.3512    9.1093  -27.7374 H   0  0  0  0  0  0  0  0  0  0  0  0
  -11.5408   10.5460  -26.7716 H   0  0  0  0  0  0  0  0  0  0  0  0
   -8.0843    6.4070  -27.0957 H   0  0  0  0  0  0  0  0  0  0  0  0
  1  2  1  0
  2  3  1  0
  3  4  1  0
  4  5  2  0
  5  6  1  0
  6  7  2  0
  7  8  1  0
  8  9  2  0
  9 10  1  0
  1 11  1  0
 11 12  2  0
 11 13  1  0
 13 14  2  0
 14 15  1  0
 15 16  2  0
 16 17  1  0
 17 18  2  0
 16 19  1  0
 19 20  1  0
 20 21  1  0
 21 22  2  0
 21 23  1  0
 23 24  2  0
 24 25  1  0
 25 26  2  0
 26 27  1  0
 27 28  2  0
 28 29  1  0
 29 30  2  0
 26 31  1  0
 10  1  1  0
  4  9  1  0
 13 18  1  0
 31 23  1  0
 30 25  1  0
  2 32  1  0
  2 33  1  0
  3 34  1  0
  3 35  1  0
  5 36  1  0
  6 37  1  0
  7 38  1  0
  8 39  1  0
 10 40  1  0
 10 41  1  0
 14 42  1  0
 15 43  1  0
 17 44  1  0
 18 45  1  0
 19 46  1  0
 19 47  1  0
 20 48  1  0
 24 49  1  0
 27 50  1  0
 28 51  1  0
 29 52  1  0
 30 53  1  0
 31 54  1  0
A    1
 N1 
A    2
 C1 
A    3
 C2 
A    4
 C3 
A    5
 C4 
A    6
 C5 
A    7
 C6 
A    8
 C7 
A    9
 C8 
A   10
 C9 
A   11
 C10
A   12
 O1 
A   13
 C11
A   14
 C12
A   15
 C13
A   16
 C14
A   17
 C15
A   18
 C16
A   19
 C17
A   20
 N2 
A   21
 C18
A   22
 O2 
A   23
 C19
A   24
 C20
A   25
 C21
A   26
 C22
A   27
 C23
A   28
 C24
A   29
 C25
A   30
 C26
A   31
 N3 
A   32
 H1 
A   33
 H2 
A   34
 H3 
A   35
 H4 
A   36
 H5 
A   37
 H6 
A   38
 H7 
A   39
 H8 
A   40
 H9 
A   41
 H10
A   42
 H11
A   43
 H12
A   44
 H13
A   45
 H14
A   46
 H15
A   47
 H16
A   48
 H17
A   49
 H18
A   50
 H19
A   51
 H20
A   52
 H21
A   53
 H22
A   54
 H23
M  END
>  <ref_pdb>  (414) 
x0051_0B

>  <ref_mols>  (414) 
x0846_1B,x0969_0B

>  <original SMILES>  (414) 
[H]c1c([H])c([H])c2c(c1[H])C([H])([H])N(C(=O)c1c([H])c([H])c(C([H])([H])N([H])C(=O)c3c([H])c4c([H])c([H])c([H])c([H])c4n3[H])c([H])c1[H])C([H])([H])C2([H])[H]

>  <index>  (414) 
699

>  <∆∆G>  (414) 
-9.454648

>  <∆G_bound>  (414) 
-9.001819

>  <∆G_unbound>  (414) 
0.452829

>  <comRMSD>  (414) 
0.875641

>  <N_constrained_atoms>  (414) 
28.0

>  <N_unconstrained_atoms>  (414) 
5.0

>  <runtime>  (414) 
63.001302

>  <LE>  (414) 
0.286504

>  <percent_hybrid>  (414) 
36.0

>  <dist>  (414) 
10.0

>  <ecfp4>  (414) 
0.175258

>  <daylight>  (414) 
0.222222

>  <topodist>  (414) 
6.0

>  <mces>  (414) 
31.0

>  <tdn>  (414) 
2.0

>  <tup>  (414) 
2.0

>  <rdn>  (414) 
0.0

>  <rup>  (414) 
0.0

>  <ldn>  (414) 
0.0

>  <lup>  (414) 
2.0

>  <mut>  (414) 
4.0

>  <maj>  (414) 
4.0

>  <min>  (414) 
0.0

>  <hyb>  (414) 
0.0

>  <sub>  (414) 
2.0

>  <query_index>  (414) 
45.0

>  <max_hit_Tanimoto>  (414) 
0.227807

>  <largest_ring>  (414) 
6

>  <N_interactions_kept>  (414) 
0.5

>  <N_interactions_lost>  (414) 
2.0

>  <interaction_uniqueness_metric>  (414) 
0.177451

>  <ad_hoc_penalty>  (414) 
-19.03118

>  <N_rotatable_bonds>  (414) 
4

>  <N_HA>  (414) 
31

>  <cluster>  (414) 
5577

>  <N_interactions>  (414) 
4

>  <Enamine>  (414) 
0

>  <Mcule>  (414) 
1

>  <N_PAINS>  (414) 
0

>  <UFF_Gibbs>  (414) 
138.916394

>  <strain_per_HA>  (414) 
4.209588

>  <saltbridge:HIS:51>  (414) 
0

>  <pistack:HIS:51>  (414) 
0

>  <hydroph_interaction:HIS:51>  (414) 
0

>  <hbond:ALA:132>  (414) 
1

>  <hbond:SER:135>  (414) 
0

>  <hydroph_interaction:TYR:150>  (414) 
0

>  <pistack:TYR:161>  (414) 
1

>  <hydroph_interaction:TYR:161>  (414) 
0

>  <hydroph_interaction:ASP:83>  (414) 
0

>  <hbond:TYR:130>  (414) 
0

>  <hydroph_interaction:ALA:132>  (414) 
0

>  <hbond:HIS:51>  (414) 
0

>  <hbond:ASP:129>  (414) 
0

>  <hbond:TYR:150>  (414) 
0

>  <hbond:GLY:151>  (414) 
0

>  <hbond:TYR:161>  (414) 
0

>  <hydroph_interaction:TYR:130>  (414) 
1

>  <hydroph_interaction:PRO:131>  (414) 
1

>  <hydroph_interaction:ASP:129>  (414) 
0

>  <saltbridge:ASP:75>  (414) 
0

>  <saltbridge:ASP:83>  (414) 
0

>  <hydroph_interaction:ASN:152>  (414) 
0

>  <halogenbond:TYR:150>  (414) 
0

>  <hbond:ASP:83>  (414) 
0

>  <hydroph_interaction:VAL:155>  (414) 
0

>  <pication:TYR:161>  (414) 
0

>  <hbond:PRO:131>  (414) 
0

>  <hbond:LEU:128>  (414) 
0

>  <saltbridge:ASP:129>  (414) 
0

>  <hbond:THR:134>  (414) 
0

>  <pication:HIS:51>  (414) 
0

>  <hbond:SER:81>  (414) 
0

>  <hbond:GLY:159>  (414) 
0

>  <hydroph_interaction:PRO:101>  (414) 
0

>  <hydroph_interaction:THR:134>  (414) 
0

>  <hbond:GLY:82>  (414) 
0

>  <hydroph_interaction:GLU:104>  (414) 
0

>  <hydroph_interaction:VAL:36>  (414) 
0

>  <hydroph_interaction:MET:49>  (414) 
0

>  <halogenbond:GLU:104>  (414) 
0

>  <hydroph_interaction:LYS:107>  (414) 
0

$$$$
XLCMBNFBHZIBFQ-UHFFFAOYSA-N
     RDKit          3D

 32 33  0  0  0  0  0  0  0  0999 V2000
   -6.0932    5.5590  -18.4854 C   0  0  0  0  0  0  0  0  0  0  0  0
   -7.0323    6.2241  -17.6262 N   0  0  0  0  0  0  0  0  0  0  0  0
   -8.2099    5.5859  -17.0997 C   0  0  0  0  0  0  0  0  0  0  0  0
   -8.6231    5.8112  -15.7607 C   0  0  0  0  0  0  0  0  0  0  0  0
   -7.8143    6.6898  -14.8286 C   0  0  0  0  0  0  0  0  0  0  0  0
   -6.4759    6.3436  -14.8900 F   0  0  0  0  0  0  0  0  0  0  0  0
   -7.9614    8.0133  -15.2008 F   0  0  0  0  0  0  0  0  0  0  0  0
   -8.2279    6.5547  -13.5141 F   0  0  0  0  0  0  0  0  0  0  0  0
   -9.8213    5.2225  -15.3083 C   0  0  0  0  0  0  0  0  0  0  0  0
  -10.5800    4.4101  -16.1525 C   0  0  0  0  0  0  0  0  0  0  0  0
  -10.1664    4.1839  -17.4634 C   0  0  0  0  0  0  0  0  0  0  0  0
   -8.9943    4.7725  -17.9377 C   0  0  0  0  0  0  0  0  0  0  0  0
   -6.1319    4.3037  -18.6109 O   0  0  0  0  0  0  0  0  0  0  0  0
   -5.0049    6.3582  -19.1633 C   0  0  0  0  0  0  0  0  0  0  0  0
   -5.5593    7.5387  -19.9542 C   0  0  0  0  0  0  0  0  0  0  0  0
   -4.5373    7.8238  -21.0516 C   0  0  0  0  0  0  0  0  0  0  0  0
   -3.6099    6.6114  -21.1216 C   0  0  0  0  0  0  0  0  0  0  0  0
   -4.1973    5.5657  -20.1862 C   0  0  0  0  0  0  0  0  0  0  0  0
   -6.8244    7.2076  -17.3437 H   0  0  0  0  0  0  0  0  0  0  0  0
  -10.1772    5.3873  -14.2995 H   0  0  0  0  0  0  0  0  0  0  0  0
  -11.4956    3.9603  -15.7905 H   0  0  0  0  0  0  0  0  0  0  0  0
  -10.7629    3.5621  -18.1186 H   0  0  0  0  0  0  0  0  0  0  0  0
   -8.7114    4.6142  -18.9705 H   0  0  0  0  0  0  0  0  0  0  0  0
   -4.3106    6.7419  -18.3821 H   0  0  0  0  0  0  0  0  0  0  0  0
   -5.7040    8.4269  -19.3011 H   0  0  0  0  0  0  0  0  0  0  0  0
   -6.5335    7.2701  -20.4223 H   0  0  0  0  0  0  0  0  0  0  0  0
   -3.9524    8.7368  -20.8039 H   0  0  0  0  0  0  0  0  0  0  0  0
   -5.0501    7.9819  -22.0256 H   0  0  0  0  0  0  0  0  0  0  0  0
   -2.5927    6.8953  -20.7718 H   0  0  0  0  0  0  0  0  0  0  0  0
   -3.5372    6.2190  -22.1594 H   0  0  0  0  0  0  0  0  0  0  0  0
   -4.8604    4.8919  -20.7742 H   0  0  0  0  0  0  0  0  0  0  0  0
   -3.4000    4.9649  -19.6968 H   0  0  0  0  0  0  0  0  0  0  0  0
  1  2  1  0
  2  3  1  0
  3  4  2  0
  4  5  1  0
  5  6  1  0
  5  7  1  0
  5  8  1  0
  4  9  1  0
  9 10  2  0
 10 11  1  0
 11 12  2  0
  1 13  2  0
  1 14  1  0
 14 15  1  0
 15 16  1  0
 16 17  1  0
 17 18  1  0
 12  3  1  0
 18 14  1  0
  2 19  1  0
  9 20  1  0
 10 21  1  0
 11 22  1  0
 12 23  1  0
 14 24  1  0
 15 25  1  0
 15 26  1  0
 16 27  1  0
 16 28  1  0
 17 29  1  0
 17 30  1  0
 18 31  1  0
 18 32  1  0
A    1
 C1 
A    2
 N1 
A    3
 C2 
A    4
 C3 
A    5
 C4 
A    6
 F1 
A    7
 F2 
A    8
 F3 
A    9
 C5 
A   10
 C6 
A   11
 C7 
A   12
 C8 
A   13
 O1 
A   14
 C9 
A   15
 C10
A   16
 C11
A   17
 C12
A   18
 C13
A   19
 H1 
A   20
 H2 
A   21
 H3 
A   22
 H4 
A   23
 H5 
A   24
 H6 
A   25
 H7 
A   26
 H8 
A   27
 H9 
A   28
 H10
A   29
 H11
A   30
 H12
A   31
 H13
A   32
 H14
M  END
>  <ref_pdb>  (415) 
x0051_0B

>  <ref_mols>  (415) 
x0229_0B,x0917_0B

>  <original SMILES>  (415) 
[H]c1c([H])c([H])c(C(F)(F)F)c(N([H])C(=O)C2([H])C([H])([H])C([H])([H])C([H])([H])C2([H])[H])c1[H]

>  <index>  (415) 
454

>  <∆∆G>  (415) 
-6.915028

>  <∆G_bound>  (415) 
-5.331606

>  <∆G_unbound>  (415) 
1.583422

>  <comRMSD>  (415) 
0.602674

>  <N_constrained_atoms>  (415) 
21.0

>  <N_unconstrained_atoms>  (415) 
0.0

>  <runtime>  (415) 
38.125463

>  <LE>  (415) 
0.329287

>  <percent_hybrid>  (415) 
46.0

>  <dist>  (415) 
3.0

>  <ecfp4>  (415) 
0.339286

>  <daylight>  (415) 
0.469512

>  <topodist>  (415) 
2.0

>  <mces>  (415) 
19.0

>  <tdn>  (415) 
1.0

>  <tup>  (415) 
0.0

>  <rdn>  (415) 
1.0

>  <rup>  (415) 
0.0

>  <ldn>  (415) 
0.0

>  <lup>  (415) 
0.0

>  <mut>  (415) 
1.0

>  <maj>  (415) 
1.0

>  <min>  (415) 
0.0

>  <hyb>  (415) 
0.0

>  <sub>  (415) 
2.0

>  <query_index>  (415) 
181.0

>  <max_hit_Tanimoto>  (415) 
0.392157

>  <largest_ring>  (415) 
6

>  <N_interactions_kept>  (415) 
2.5

>  <N_interactions_lost>  (415) 
1.5

>  <interaction_uniqueness_metric>  (415) 
0.031789

>  <ad_hoc_penalty>  (415) 
-19.023332

>  <N_rotatable_bonds>  (415) 
2

>  <N_HA>  (415) 
18

>  <cluster>  (415) 
5806

>  <N_interactions>  (415) 
4

>  <Enamine>  (415) 
0

>  <Mcule>  (415) 
1

>  <N_PAINS>  (415) 
0

>  <UFF_Gibbs>  (415) 
124.943359

>  <strain_per_HA>  (415) 
5.949684

>  <saltbridge:HIS:51>  (415) 
0

>  <pistack:HIS:51>  (415) 
0

>  <hydroph_interaction:HIS:51>  (415) 
0

>  <hbond:ALA:132>  (415) 
0

>  <hbond:SER:135>  (415) 
0

>  <hydroph_interaction:TYR:150>  (415) 
1

>  <pistack:TYR:161>  (415) 
0

>  <hydroph_interaction:TYR:161>  (415) 
3

>  <hydroph_interaction:ASP:83>  (415) 
0

>  <hbond:TYR:130>  (415) 
0

>  <hydroph_interaction:ALA:132>  (415) 
0

>  <hbond:HIS:51>  (415) 
0

>  <hbond:ASP:129>  (415) 
0

>  <hbond:TYR:150>  (415) 
0

>  <hbond:GLY:151>  (415) 
0

>  <hbond:TYR:161>  (415) 
0

>  <hydroph_interaction:TYR:130>  (415) 
0

>  <hydroph_interaction:PRO:131>  (415) 
0

>  <hydroph_interaction:ASP:129>  (415) 
0

>  <saltbridge:ASP:75>  (415) 
0

>  <saltbridge:ASP:83>  (415) 
0

>  <hydroph_interaction:ASN:152>  (415) 
0

>  <halogenbond:TYR:150>  (415) 
0

>  <hbond:ASP:83>  (415) 
0

>  <hydroph_interaction:VAL:155>  (415) 
0

>  <pication:TYR:161>  (415) 
0

>  <hbond:PRO:131>  (415) 
0

>  <hbond:LEU:128>  (415) 
0

>  <saltbridge:ASP:129>  (415) 
0

>  <hbond:THR:134>  (415) 
0

>  <pication:HIS:51>  (415) 
0

>  <hbond:SER:81>  (415) 
0

>  <hbond:GLY:159>  (415) 
0

>  <hydroph_interaction:PRO:101>  (415) 
0

>  <hydroph_interaction:THR:134>  (415) 
0

>  <hbond:GLY:82>  (415) 
0

>  <hydroph_interaction:GLU:104>  (415) 
0

>  <hydroph_interaction:VAL:36>  (415) 
0

>  <hydroph_interaction:MET:49>  (415) 
0

>  <halogenbond:GLU:104>  (415) 
0

>  <hydroph_interaction:LYS:107>  (415) 
0

$$$$
Z1567996995
     RDKit          3D

 36 37  0  0  0  0  0  0  0  0999 V2000
   -2.7057    4.2794  -19.7794 C   0  0  0  0  0  0  0  0  0  0  0  0
   -3.4590    5.3681  -19.0244 C   0  0  0  0  0  0  0  0  0  0  0  0
   -4.8566    5.0864  -18.9969 O   0  0  0  0  0  0  0  0  0  0  0  0
   -5.7072    5.2833  -20.0921 C   0  0  0  0  0  0  0  0  0  0  0  0
   -5.2559    5.7490  -21.1736 O   0  0  0  0  0  0  0  0  0  0  0  0
   -7.0925    4.9252  -20.0075 N   0  0  0  0  0  0  0  0  0  0  0  0
   -7.7498    4.5600  -18.7829 C   0  0  0  0  0  0  0  0  0  0  0  0
   -8.7616    3.5907  -18.8097 C   0  0  0  0  0  0  0  0  0  0  0  0
   -9.4275    3.2323  -17.6364 C   0  0  0  0  0  0  0  0  0  0  0  0
   -9.1009    3.8484  -16.4266 C   0  0  0  0  0  0  0  0  0  0  0  0
   -8.1069    4.8409  -16.3795 C   0  0  0  0  0  0  0  0  0  0  0  0
   -7.7768    5.5056  -15.0985 C   0  0  0  0  0  0  0  0  0  0  0  0
   -6.8681    6.3790  -15.0608 O   0  0  0  0  0  0  0  0  0  0  0  0
   -8.4559    5.1301  -13.9306 O   0  0  0  0  0  0  0  0  0  0  0  0
   -8.3735    5.7807  -12.6923 C   0  0  0  0  0  0  0  0  0  0  0  0
   -8.8737    5.2905  -11.5090 C   0  0  0  0  0  0  0  0  0  0  0  0
   -8.6263    6.2032  -10.5517 N   0  0  0  0  0  0  0  0  0  0  0  0
   -8.9293    6.0544   -9.1351 C   0  0  0  0  0  0  0  0  0  0  0  0
   -7.9839    7.2421  -11.0645 N   0  0  0  0  0  0  0  0  0  0  0  0
   -7.8226    7.0148  -12.3836 C   0  0  0  0  0  0  0  0  0  0  0  0
   -7.4407    5.1975  -17.5673 C   0  0  0  0  0  0  0  0  0  0  0  0
   -1.6154    4.4859  -19.7424 H   0  0  0  0  0  0  0  0  0  0  0  0
   -2.9007    3.2908  -19.3126 H   0  0  0  0  0  0  0  0  0  0  0  0
   -3.0269    4.2505  -20.8414 H   0  0  0  0  0  0  0  0  0  0  0  0
   -3.0851    5.4008  -17.9794 H   0  0  0  0  0  0  0  0  0  0  0  0
   -3.2723    6.3609  -19.4885 H   0  0  0  0  0  0  0  0  0  0  0  0
   -7.6258    4.8357  -20.9023 H   0  0  0  0  0  0  0  0  0  0  0  0
   -9.0258    3.1047  -19.7405 H   0  0  0  0  0  0  0  0  0  0  0  0
  -10.2002    2.4748  -17.6648 H   0  0  0  0  0  0  0  0  0  0  0  0
   -9.6327    3.5524  -15.5311 H   0  0  0  0  0  0  0  0  0  0  0  0
   -9.3717    4.3416  -11.3556 H   0  0  0  0  0  0  0  0  0  0  0  0
   -8.9849    7.0523   -8.6511 H   0  0  0  0  0  0  0  0  0  0  0  0
   -8.1327    5.4559   -8.6461 H   0  0  0  0  0  0  0  0  0  0  0  0
   -9.9058    5.5411   -9.0058 H   0  0  0  0  0  0  0  0  0  0  0  0
   -7.3503    7.7143  -13.0578 H   0  0  0  0  0  0  0  0  0  0  0  0
   -6.7024    5.9884  -17.5514 H   0  0  0  0  0  0  0  0  0  0  0  0
  1  2  1  0
  2  3  1  0
  3  4  1  0
  4  5  2  0
  4  6  1  0
  6  7  1  0
  7  8  2  0
  8  9  1  0
  9 10  2  0
 10 11  1  0
 11 12  1  0
 12 13  2  0
 12 14  1  0
 14 15  1  0
 15 16  2  0
 16 17  1  0
 17 18  1  0
 17 19  1  0
 19 20  2  0
 11 21  2  0
 21  7  1  0
 20 15  1  0
  1 22  1  0
  1 23  1  0
  1 24  1  0
  2 25  1  0
  2 26  1  0
  6 27  1  0
  8 28  1  0
  9 29  1  0
 10 30  1  0
 16 31  1  0
 18 32  1  0
 18 33  1  0
 18 34  1  0
 20 35  1  0
 21 36  1  0
A    1
 C1 
A    2
 C2 
A    3
 O1 
A    4
 C3 
A    5
 O2 
A    6
 N1 
A    7
 C4 
A    8
 C5 
A    9
 C6 
A   10
 C7 
A   11
 C8 
A   12
 C9 
A   13
 O3 
A   14
 O4 
A   15
 C10
A   16
 C11
A   17
 N2 
A   18
 C12
A   19
 N3 
A   20
 C13
A   21
 C14
A   22
 H1 
A   23
 H2 
A   24
 H3 
A   25
 H4 
A   26
 H5 
A   27
 H6 
A   28
 H7 
A   29
 H8 
A   30
 H9 
A   31
 H10
A   32
 H11
A   33
 H12
A   34
 H13
A   35
 H14
A   36
 H15
M  END
>  <ref_pdb>  (416) 
x0051_0B

>  <ref_mols>  (416) 
x0443_0B,x1098_0B

>  <original SMILES>  (416) 
[H]c1nn(C([H])([H])[H])c([H])c1OC(=O)c1c([H])c([H])c([H])c(N([H])C(=O)OC([H])([H])C([H])([H])[H])c1[H]

>  <index>  (416) 
691

>  <∆∆G>  (416) 
-6.632735

>  <∆G_bound>  (416) 
-5.929359

>  <∆G_unbound>  (416) 
0.703376

>  <comRMSD>  (416) 
0.842248

>  <N_constrained_atoms>  (416) 
19.0

>  <N_unconstrained_atoms>  (416) 
4.0

>  <runtime>  (416) 
46.529174

>  <LE>  (416) 
0.28838

>  <percent_hybrid>  (416) 
19.0

>  <dist>  (416) 
7.0

>  <ecfp4>  (416) 
0.277108

>  <daylight>  (416) 
0.239044

>  <topodist>  (416) 
2.0

>  <mces>  (416) 
22.0

>  <tdn>  (416) 
1.0

>  <tup>  (416) 
0.0

>  <rdn>  (416) 
1.0

>  <rup>  (416) 
0.0

>  <ldn>  (416) 
0.0

>  <lup>  (416) 
0.0

>  <mut>  (416) 
4.0

>  <maj>  (416) 
4.0

>  <min>  (416) 
0.0

>  <hyb>  (416) 
1.0

>  <sub>  (416) 
1.0

>  <query_index>  (416) 
80.0

>  <max_hit_Tanimoto>  (416) 
0.275176

>  <largest_ring>  (416) 
6

>  <N_interactions_kept>  (416) 
3.0

>  <N_interactions_lost>  (416) 
3.0

>  <interaction_uniqueness_metric>  (416) 
0.242813

>  <ad_hoc_penalty>  (416) 
-19.015636

>  <N_rotatable_bonds>  (416) 
6

>  <N_HA>  (416) 
21

>  <cluster>  (416) 
5585

>  <N_interactions>  (416) 
9

>  <Enamine>  (416) 
1

>  <Mcule>  (416) 
0

>  <N_PAINS>  (416) 
0

>  <UFF_Gibbs>  (416) 
110.722226

>  <strain_per_HA>  (416) 
4.81401

>  <saltbridge:HIS:51>  (416) 
1

>  <pistack:HIS:51>  (416) 
1

>  <hydroph_interaction:HIS:51>  (416) 
0

>  <hbond:ALA:132>  (416) 
0

>  <hbond:SER:135>  (416) 
0

>  <hydroph_interaction:TYR:150>  (416) 
1

>  <pistack:TYR:161>  (416) 
0

>  <hydroph_interaction:TYR:161>  (416) 
3

>  <hydroph_interaction:ASP:83>  (416) 
0

>  <hbond:TYR:130>  (416) 
0

>  <hydroph_interaction:ALA:132>  (416) 
1

>  <hbond:HIS:51>  (416) 
0

>  <hbond:ASP:129>  (416) 
1

>  <hbond:TYR:150>  (416) 
0

>  <hbond:GLY:151>  (416) 
0

>  <hbond:TYR:161>  (416) 
0

>  <hydroph_interaction:TYR:130>  (416) 
0

>  <hydroph_interaction:PRO:131>  (416) 
0

>  <hydroph_interaction:ASP:129>  (416) 
0

>  <saltbridge:ASP:75>  (416) 
0

>  <saltbridge:ASP:83>  (416) 
0

>  <hydroph_interaction:ASN:152>  (416) 
0

>  <halogenbond:TYR:150>  (416) 
0

>  <hbond:ASP:83>  (416) 
0

>  <hydroph_interaction:VAL:155>  (416) 
1

>  <pication:TYR:161>  (416) 
0

>  <hbond:PRO:131>  (416) 
0

>  <hbond:LEU:128>  (416) 
0

>  <saltbridge:ASP:129>  (416) 
0

>  <hbond:THR:134>  (416) 
0

>  <pication:HIS:51>  (416) 
0

>  <hbond:SER:81>  (416) 
0

>  <hbond:GLY:159>  (416) 
0

>  <hydroph_interaction:PRO:101>  (416) 
0

>  <hydroph_interaction:THR:134>  (416) 
0

>  <hbond:GLY:82>  (416) 
0

>  <hydroph_interaction:GLU:104>  (416) 
0

>  <hydroph_interaction:VAL:36>  (416) 
0

>  <hydroph_interaction:MET:49>  (416) 
0

>  <halogenbond:GLU:104>  (416) 
0

>  <hydroph_interaction:LYS:107>  (416) 
0

$$$$
CSSB00104348894
     RDKit          3D

 37 39  0  0  0  0  0  0  0  0999 V2000
  -10.5294    7.4404  -15.9905 O   0  0  0  0  0  0  0  0  0  0  0  0
  -10.1427    8.0208  -14.9403 C   0  0  0  0  0  0  0  0  0  0  0  0
  -10.2997    9.5059  -14.8181 C   0  0  0  0  0  0  0  0  0  0  0  0
  -11.6027    9.8486  -14.0921 C   0  0  0  0  0  0  0  0  0  0  0  0
  -11.7589   11.3399  -13.9621 C   0  0  0  0  0  0  0  0  0  0  0  0
  -11.2201   12.0149  -12.8539 C   0  0  0  0  0  0  0  0  0  0  0  0
  -11.3377   13.4046  -12.7505 C   0  0  0  0  0  0  0  0  0  0  0  0
  -11.9839   14.1297  -13.7555 C   0  0  0  0  0  0  0  0  0  0  0  0
  -12.5102   13.4668  -14.8677 C   0  0  0  0  0  0  0  0  0  0  0  0
  -12.3948   12.0773  -14.9751 C   0  0  0  0  0  0  0  0  0  0  0  0
   -9.5999    7.2632  -13.8498 N   0  0  0  0  0  0  0  0  0  0  0  0
   -9.4135    5.8162  -13.9135 C   0  0  0  0  0  0  0  0  0  0  0  0
   -8.2582    5.4837  -14.8101 C   0  0  0  0  0  0  0  0  0  0  0  0
   -6.9686    5.7459  -14.4958 N   0  0  0  0  0  0  0  0  0  0  0  0
   -6.2184    5.3616  -15.5250 N   0  0  0  0  0  0  0  0  0  0  0  0
   -7.0711    4.8778  -16.4470 C   0  0  0  0  0  0  0  0  0  0  0  0
   -8.3426    4.9406  -16.0385 N   0  0  0  0  0  0  0  0  0  0  0  0
   -9.3858    4.5174  -16.7972 C   0  0  0  0  0  0  0  0  0  0  0  0
   -9.0907    3.9932  -18.0660 C   0  0  0  0  0  0  0  0  0  0  0  0
   -7.7893    3.9257  -18.4904 N   0  0  0  0  0  0  0  0  0  0  0  0
   -6.7605    4.3611  -17.7017 C   0  0  0  0  0  0  0  0  0  0  0  0
   -5.5678    4.2957  -18.1027 O   0  0  0  0  0  0  0  0  0  0  0  0
   -9.4337    9.9205  -14.2575 H   0  0  0  0  0  0  0  0  0  0  0  0
  -10.3024    9.9630  -15.8323 H   0  0  0  0  0  0  0  0  0  0  0  0
  -11.6045    9.3817  -13.0822 H   0  0  0  0  0  0  0  0  0  0  0  0
  -12.4663    9.4269  -14.6529 H   0  0  0  0  0  0  0  0  0  0  0  0
  -10.7089   11.4657  -12.0728 H   0  0  0  0  0  0  0  0  0  0  0  0
  -10.9247   13.9197  -11.8929 H   0  0  0  0  0  0  0  0  0  0  0  0
  -12.0729   15.2054  -13.6746 H   0  0  0  0  0  0  0  0  0  0  0  0
  -13.0046   14.0302  -15.6485 H   0  0  0  0  0  0  0  0  0  0  0  0
  -12.7988   11.5767  -15.8464 H   0  0  0  0  0  0  0  0  0  0  0  0
   -9.3390    7.7602  -12.9683 H   0  0  0  0  0  0  0  0  0  0  0  0
  -10.3498    5.3268  -14.2518 H   0  0  0  0  0  0  0  0  0  0  0  0
   -9.1882    5.4314  -12.8960 H   0  0  0  0  0  0  0  0  0  0  0  0
  -10.4071    4.5786  -16.4467 H   0  0  0  0  0  0  0  0  0  0  0  0
   -9.8905    3.6437  -18.7064 H   0  0  0  0  0  0  0  0  0  0  0  0
   -7.5850    3.5333  -19.4371 H   0  0  0  0  0  0  0  0  0  0  0  0
  1  2  2  0
  2  3  1  0
  3  4  1  0
  4  5  1  0
  5  6  2  0
  6  7  1  0
  7  8  2  0
  8  9  1  0
  9 10  2  0
  2 11  1  0
 11 12  1  0
 12 13  1  0
 13 14  2  0
 14 15  1  0
 15 16  2  0
 16 17  1  0
 17 18  1  0
 18 19  2  0
 19 20  1  0
 20 21  1  0
 21 22  2  0
 10  5  1  0
 17 13  1  0
 21 16  1  0
  3 23  1  0
  3 24  1  0
  4 25  1  0
  4 26  1  0
  6 27  1  0
  7 28  1  0
  8 29  1  0
  9 30  1  0
 10 31  1  0
 11 32  1  0
 12 33  1  0
 12 34  1  0
 18 35  1  0
 19 36  1  0
 20 37  1  0
A    1
 O1 
A    2
 C1 
A    3
 C2 
A    4
 C3 
A    5
 C4 
A    6
 C5 
A    7
 C6 
A    8
 C7 
A    9
 C8 
A   10
 C9 
A   11
 N1 
A   12
 C10
A   13
 C11
A   14
 N2 
A   15
 N3 
A   16
 C12
A   17
 N4 
A   18
 C13
A   19
 C14
A   20
 N5 
A   21
 C15
A   22
 O2 
A   23
 H1 
A   24
 H2 
A   25
 H3 
A   26
 H4 
A   27
 H5 
A   28
 H6 
A   29
 H7 
A   30
 H8 
A   31
 H9 
A   32
 H10
A   33
 H11
A   34
 H12
A   35
 H13
A   36
 H14
A   37
 H15
M  END
>  <ref_pdb>  (417) 
x0051_0B

>  <ref_mols>  (417) 
x0951_0B,x0969_1B

>  <original SMILES>  (417) 
[H]c1c([H])c([H])c(C([H])([H])C([H])([H])C(=O)N([H])C([H])([H])c2nnc3c(=O)n([H])c([H])c([H])n23)c([H])c1[H]

>  <index>  (417) 
912

>  <∆∆G>  (417) 
-6.119862

>  <∆G_bound>  (417) 
-4.799785

>  <∆G_unbound>  (417) 
1.320076

>  <comRMSD>  (417) 
0.429117

>  <N_constrained_atoms>  (417) 
13.0

>  <N_unconstrained_atoms>  (417) 
10.0

>  <runtime>  (417) 
71.347589

>  <LE>  (417) 
0.266081

>  <percent_hybrid>  (417) 
8.0

>  <dist>  (417) 
12.0

>  <ecfp4>  (417) 
0.148148

>  <daylight>  (417) 
0.219672

>  <topodist>  (417) 
4.0

>  <mces>  (417) 
22.0

>  <tdn>  (417) 
1.0

>  <tup>  (417) 
2.0

>  <rdn>  (417) 
1.0

>  <rup>  (417) 
0.0

>  <ldn>  (417) 
0.0

>  <lup>  (417) 
0.0

>  <mut>  (417) 
4.0

>  <maj>  (417) 
4.0

>  <min>  (417) 
0.0

>  <hyb>  (417) 
4.0

>  <sub>  (417) 
3.0

>  <query_index>  (417) 
201.0

>  <max_hit_Tanimoto>  (417) 
0.407628

>  <largest_ring>  (417) 
6

>  <N_interactions_kept>  (417) 
3.0

>  <N_interactions_lost>  (417) 
0.0

>  <interaction_uniqueness_metric>  (417) 
0.547891

>  <ad_hoc_penalty>  (417) 
-18.951542

>  <N_rotatable_bonds>  (417) 
5

>  <N_HA>  (417) 
22

>  <cluster>  (417) 
5383

>  <N_interactions>  (417) 
2

>  <Enamine>  (417) 
1

>  <Mcule>  (417) 
0

>  <N_PAINS>  (417) 
0

>  <UFF_Gibbs>  (417) 
77.590423

>  <strain_per_HA>  (417) 
3.373497

>  <saltbridge:HIS:51>  (417) 
0

>  <pistack:HIS:51>  (417) 
0

>  <hydroph_interaction:HIS:51>  (417) 
0

>  <hbond:ALA:132>  (417) 
0

>  <hbond:SER:135>  (417) 
1

>  <hydroph_interaction:TYR:150>  (417) 
0

>  <pistack:TYR:161>  (417) 
0

>  <hydroph_interaction:TYR:161>  (417) 
0

>  <hydroph_interaction:ASP:83>  (417) 
0

>  <hbond:TYR:130>  (417) 
0

>  <hydroph_interaction:ALA:132>  (417) 
0

>  <hbond:HIS:51>  (417) 
0

>  <hbond:ASP:129>  (417) 
0

>  <hbond:TYR:150>  (417) 
0

>  <hbond:GLY:151>  (417) 
0

>  <hbond:TYR:161>  (417) 
0

>  <hydroph_interaction:TYR:130>  (417) 
0

>  <hydroph_interaction:PRO:131>  (417) 
0

>  <hydroph_interaction:ASP:129>  (417) 
0

>  <saltbridge:ASP:75>  (417) 
0

>  <saltbridge:ASP:83>  (417) 
0

>  <hydroph_interaction:ASN:152>  (417) 
0

>  <halogenbond:TYR:150>  (417) 
0

>  <hbond:ASP:83>  (417) 
0

>  <hydroph_interaction:VAL:155>  (417) 
0

>  <pication:TYR:161>  (417) 
0

>  <hbond:PRO:131>  (417) 
0

>  <hbond:LEU:128>  (417) 
0

>  <saltbridge:ASP:129>  (417) 
0

>  <hbond:THR:134>  (417) 
0

>  <pication:HIS:51>  (417) 
0

>  <hbond:SER:81>  (417) 
0

>  <hbond:GLY:159>  (417) 
0

>  <hydroph_interaction:PRO:101>  (417) 
0

>  <hydroph_interaction:THR:134>  (417) 
0

>  <hbond:GLY:82>  (417) 
0

>  <hydroph_interaction:GLU:104>  (417) 
0

>  <hydroph_interaction:VAL:36>  (417) 
1

>  <hydroph_interaction:MET:49>  (417) 
0

>  <halogenbond:GLU:104>  (417) 
0

>  <hydroph_interaction:LYS:107>  (417) 
0

$$$$
JEIPOGBGMIPQHD-UHFFFAOYSA-N
     RDKit          3D

 30 31  0  0  0  0  0  0  0  0999 V2000
   -6.7382    6.2165  -19.1258 C   0  0  0  0  0  0  0  0  0  0  0  0
   -7.1426    6.3033  -17.7513 N   0  0  0  0  0  0  0  0  0  0  0  0
   -8.1615    5.4672  -17.1740 C   0  0  0  0  0  0  0  0  0  0  0  0
   -8.0006    4.9153  -15.8765 C   0  0  0  0  0  0  0  0  0  0  0  0
   -6.7321    5.1432  -15.0801 C   0  0  0  0  0  0  0  0  0  0  0  0
   -5.6228    4.9093  -15.8735 F   0  0  0  0  0  0  0  0  0  0  0  0
   -6.6579    4.2965  -13.9871 F   0  0  0  0  0  0  0  0  0  0  0  0
   -6.7022    6.4492  -14.6265 F   0  0  0  0  0  0  0  0  0  0  0  0
   -9.0554    4.1654  -15.3186 C   0  0  0  0  0  0  0  0  0  0  0  0
  -10.2306    3.9427  -16.0378 C   0  0  0  0  0  0  0  0  0  0  0  0
  -10.3807    4.4771  -17.3154 C   0  0  0  0  0  0  0  0  0  0  0  0
   -9.3580    5.2410  -17.8780 C   0  0  0  0  0  0  0  0  0  0  0  0
   -7.1205    5.2504  -19.8418 O   0  0  0  0  0  0  0  0  0  0  0  0
   -5.7820    7.2296  -19.6895 C   0  0  0  0  0  0  0  0  0  0  0  0
   -6.2343    7.6887  -21.3967 S   0  0  0  0  0  0  0  0  0  0  0  0
   -4.5034    7.6113  -21.9585 C   0  0  0  0  0  0  0  0  0  0  0  0
   -3.6015    7.5067  -20.7399 C   0  0  0  0  0  0  0  0  0  0  0  0
   -4.3533    6.7012  -19.6994 C   0  0  0  0  0  0  0  0  0  0  0  0
   -6.6382    6.9784  -17.1342 H   0  0  0  0  0  0  0  0  0  0  0  0
   -8.9743    3.7440  -14.3248 H   0  0  0  0  0  0  0  0  0  0  0  0
  -11.0298    3.3583  -15.5997 H   0  0  0  0  0  0  0  0  0  0  0  0
  -11.2971    4.3102  -17.8673 H   0  0  0  0  0  0  0  0  0  0  0  0
   -9.5103    5.6788  -18.8562 H   0  0  0  0  0  0  0  0  0  0  0  0
   -5.8202    8.1578  -19.0784 H   0  0  0  0  0  0  0  0  0  0  0  0
   -4.3785    6.7103  -22.5956 H   0  0  0  0  0  0  0  0  0  0  0  0
   -4.2532    8.5145  -22.5535 H   0  0  0  0  0  0  0  0  0  0  0  0
   -2.6387    7.0169  -20.9995 H   0  0  0  0  0  0  0  0  0  0  0  0
   -3.3925    8.5247  -20.3423 H   0  0  0  0  0  0  0  0  0  0  0  0
   -3.8826    6.8130  -18.6985 H   0  0  0  0  0  0  0  0  0  0  0  0
   -4.3321    5.6267  -19.9904 H   0  0  0  0  0  0  0  0  0  0  0  0
  1  2  1  0
  2  3  1  0
  3  4  2  0
  4  5  1  0
  5  6  1  0
  5  7  1  0
  5  8  1  0
  4  9  1  0
  9 10  2  0
 10 11  1  0
 11 12  2  0
  1 13  2  0
  1 14  1  0
 14 15  1  0
 15 16  1  0
 16 17  1  0
 17 18  1  0
 12  3  1  0
 18 14  1  0
  2 19  1  0
  9 20  1  0
 10 21  1  0
 11 22  1  0
 12 23  1  0
 14 24  1  0
 16 25  1  0
 16 26  1  0
 17 27  1  0
 17 28  1  0
 18 29  1  0
 18 30  1  0
A    1
 C1 
A    2
 N1 
A    3
 C2 
A    4
 C3 
A    5
 C4 
A    6
 F1 
A    7
 F2 
A    8
 F3 
A    9
 C5 
A   10
 C6 
A   11
 C7 
A   12
 C8 
A   13
 O1 
A   14
 C9 
A   15
 S1 
A   16
 C10
A   17
 C11
A   18
 C12
A   19
 H1 
A   20
 H2 
A   21
 H3 
A   22
 H4 
A   23
 H5 
A   24
 H6 
A   25
 H7 
A   26
 H8 
A   27
 H9 
A   28
 H10
A   29
 H11
A   30
 H12
M  END
>  <ref_pdb>  (418) 
x0051_0B

>  <ref_mols>  (418) 
x0229_0B,x0917_0B

>  <original SMILES>  (418) 
[H]c1c([H])c([H])c(C(F)(F)F)c(N([H])C(=O)C2([H])SC([H])([H])C([H])([H])C2([H])[H])c1[H]

>  <index>  (418) 
557

>  <∆∆G>  (418) 
-6.500078

>  <∆G_bound>  (418) 
-5.480618

>  <∆G_unbound>  (418) 
1.01946

>  <comRMSD>  (418) 
0.595311

>  <N_constrained_atoms>  (418) 
20.0

>  <N_unconstrained_atoms>  (418) 
0.0

>  <runtime>  (418) 
30.305295

>  <LE>  (418) 
0.325004

>  <percent_hybrid>  (418) 
45.0

>  <dist>  (418) 
3.0

>  <ecfp4>  (418) 
0.311475

>  <daylight>  (418) 
0.446237

>  <topodist>  (418) 
2.0

>  <mces>  (418) 
19.0

>  <tdn>  (418) 
1.0

>  <tup>  (418) 
0.0

>  <rdn>  (418) 
1.0

>  <rup>  (418) 
0.0

>  <ldn>  (418) 
0.0

>  <lup>  (418) 
0.0

>  <mut>  (418) 
1.0

>  <maj>  (418) 
1.0

>  <min>  (418) 
0.0

>  <hyb>  (418) 
0.0

>  <sub>  (418) 
2.0

>  <query_index>  (418) 
181.0

>  <max_hit_Tanimoto>  (418) 
0.367632

>  <largest_ring>  (418) 
6

>  <N_interactions_kept>  (418) 
2.5

>  <N_interactions_lost>  (418) 
1.5

>  <interaction_uniqueness_metric>  (418) 
0.03824

>  <ad_hoc_penalty>  (418) 
-18.951232

>  <N_rotatable_bonds>  (418) 
2

>  <N_HA>  (418) 
18

>  <cluster>  (418) 
5709

>  <N_interactions>  (418) 
4

>  <Enamine>  (418) 
0

>  <Mcule>  (418) 
1

>  <N_PAINS>  (418) 
0

>  <UFF_Gibbs>  (418) 
93.628608

>  <strain_per_HA>  (418) 
4.68143

>  <saltbridge:HIS:51>  (418) 
0

>  <pistack:HIS:51>  (418) 
0

>  <hydroph_interaction:HIS:51>  (418) 
0

>  <hbond:ALA:132>  (418) 
0

>  <hbond:SER:135>  (418) 
0

>  <hydroph_interaction:TYR:150>  (418) 
0

>  <pistack:TYR:161>  (418) 
0

>  <hydroph_interaction:TYR:161>  (418) 
3

>  <hydroph_interaction:ASP:83>  (418) 
0

>  <hbond:TYR:130>  (418) 
0

>  <hydroph_interaction:ALA:132>  (418) 
1

>  <hbond:HIS:51>  (418) 
0

>  <hbond:ASP:129>  (418) 
0

>  <hbond:TYR:150>  (418) 
0

>  <hbond:GLY:151>  (418) 
0

>  <hbond:TYR:161>  (418) 
0

>  <hydroph_interaction:TYR:130>  (418) 
0

>  <hydroph_interaction:PRO:131>  (418) 
0

>  <hydroph_interaction:ASP:129>  (418) 
0

>  <saltbridge:ASP:75>  (418) 
0

>  <saltbridge:ASP:83>  (418) 
0

>  <hydroph_interaction:ASN:152>  (418) 
0

>  <halogenbond:TYR:150>  (418) 
0

>  <hbond:ASP:83>  (418) 
0

>  <hydroph_interaction:VAL:155>  (418) 
0

>  <pication:TYR:161>  (418) 
0

>  <hbond:PRO:131>  (418) 
0

>  <hbond:LEU:128>  (418) 
0

>  <saltbridge:ASP:129>  (418) 
0

>  <hbond:THR:134>  (418) 
0

>  <pication:HIS:51>  (418) 
0

>  <hbond:SER:81>  (418) 
0

>  <hbond:GLY:159>  (418) 
0

>  <hydroph_interaction:PRO:101>  (418) 
0

>  <hydroph_interaction:THR:134>  (418) 
0

>  <hbond:GLY:82>  (418) 
0

>  <hydroph_interaction:GLU:104>  (418) 
0

>  <hydroph_interaction:VAL:36>  (418) 
0

>  <hydroph_interaction:MET:49>  (418) 
0

>  <halogenbond:GLU:104>  (418) 
0

>  <hydroph_interaction:LYS:107>  (418) 
0

$$$$
Z4335523108
     RDKit          3D

 36 38  0  0  0  0  0  0  0  0999 V2000
   -9.7846    6.1102  -19.5449 N   0  0  0  0  0  0  0  0  0  0  0  0
   -9.2961    5.6090  -18.6234 C   0  0  0  0  0  0  0  0  0  0  0  0
   -8.6883    4.9857  -17.4768 C   0  0  0  0  0  0  0  0  0  0  0  0
   -7.4566    4.3326  -17.6057 C   0  0  0  0  0  0  0  0  0  0  0  0
   -6.8757    3.7113  -16.4975 C   0  0  0  0  0  0  0  0  0  0  0  0
   -7.5170    3.7477  -15.2556 C   0  0  0  0  0  0  0  0  0  0  0  0
   -6.9428    3.1408  -14.1867 F   0  0  0  0  0  0  0  0  0  0  0  0
   -8.7399    4.4165  -15.1086 C   0  0  0  0  0  0  0  0  0  0  0  0
   -9.3509    4.4209  -13.8463 O   0  0  0  0  0  0  0  0  0  0  0  0
  -10.1975    5.4229  -13.3547 C   0  0  0  0  0  0  0  0  0  0  0  0
  -10.2566    6.5552  -13.9070 O   0  0  0  0  0  0  0  0  0  0  0  0
  -10.9491    5.1809  -12.0866 C   0  0  0  0  0  0  0  0  0  0  0  0
  -10.0672    5.4639  -10.9104 C   0  0  0  0  0  0  0  0  0  0  0  0
   -9.1810    4.6102  -10.2852 C   0  0  0  0  0  0  0  0  0  0  0  0
   -8.9798    3.1425  -10.5253 C   0  0  0  0  0  0  0  0  0  0  0  0
   -7.6689    2.6702   -9.8776 C   0  0  0  0  0  0  0  0  0  0  0  0
   -7.5198    3.2207   -8.4495 C   0  0  0  0  0  0  0  0  0  0  0  0
   -7.4947    4.7583   -8.4547 C   0  0  0  0  0  0  0  0  0  0  0  0
   -8.5583    5.2893   -9.3055 N   0  0  0  0  0  0  0  0  0  0  0  0
   -8.9591    6.5510   -9.3048 N   0  0  0  0  0  0  0  0  0  0  0  0
   -9.8862    6.6827  -10.2774 C   0  0  0  0  0  0  0  0  0  0  0  0
   -9.3325    5.0239  -16.2326 C   0  0  0  0  0  0  0  0  0  0  0  0
   -6.9506    4.2967  -18.5630 H   0  0  0  0  0  0  0  0  0  0  0  0
   -5.9274    3.2000  -16.6019 H   0  0  0  0  0  0  0  0  0  0  0  0
  -11.8479    5.8335  -12.0470 H   0  0  0  0  0  0  0  0  0  0  0  0
  -11.2938    4.1256  -12.0550 H   0  0  0  0  0  0  0  0  0  0  0  0
   -8.9498    2.9325  -11.6149 H   0  0  0  0  0  0  0  0  0  0  0  0
   -9.8341    2.5887  -10.0807 H   0  0  0  0  0  0  0  0  0  0  0  0
   -7.6530    1.5595   -9.8502 H   0  0  0  0  0  0  0  0  0  0  0  0
   -6.8078    3.0091  -10.4950 H   0  0  0  0  0  0  0  0  0  0  0  0
   -6.5792    2.8376   -7.9987 H   0  0  0  0  0  0  0  0  0  0  0  0
   -8.3706    2.8662   -7.8269 H   0  0  0  0  0  0  0  0  0  0  0  0
   -6.5143    5.1106   -8.8418 H   0  0  0  0  0  0  0  0  0  0  0  0
   -7.6205    5.1356   -7.4172 H   0  0  0  0  0  0  0  0  0  0  0  0
  -10.3891    7.6098  -10.5178 H   0  0  0  0  0  0  0  0  0  0  0  0
  -10.3025    5.4976  -16.1527 H   0  0  0  0  0  0  0  0  0  0  0  0
  1  2  3  0
  2  3  1  0
  3  4  2  0
  4  5  1  0
  5  6  2  0
  6  7  1  0
  6  8  1  0
  8  9  1  0
  9 10  1  0
 10 11  2  0
 10 12  1  0
 12 13  1  0
 13 14  2  0
 14 15  1  0
 15 16  1  0
 16 17  1  0
 17 18  1  0
 18 19  1  0
 19 20  1  0
 20 21  2  0
  8 22  2  0
 22  3  1  0
 21 13  1  0
 19 14  1  0
  4 23  1  0
  5 24  1  0
 12 25  1  0
 12 26  1  0
 15 27  1  0
 15 28  1  0
 16 29  1  0
 16 30  1  0
 17 31  1  0
 17 32  1  0
 18 33  1  0
 18 34  1  0
 21 35  1  0
 22 36  1  0
A    1
 N1 
A    2
 C1 
A    3
 C2 
A    4
 C3 
A    5
 C4 
A    6
 C5 
A    7
 F1 
A    8
 C6 
A    9
 O1 
A   10
 C7 
A   11
 O2 
A   12
 C8 
A   13
 C9 
A   14
 C10
A   15
 C11
A   16
 C12
A   17
 C13
A   18
 C14
A   19
 N2 
A   20
 N3 
A   21
 C15
A   22
 C16
A   23
 H1 
A   24
 H2 
A   25
 H3 
A   26
 H4 
A   27
 H5 
A   28
 H6 
A   29
 H7 
A   30
 H8 
A   31
 H9 
A   32
 H10
A   33
 H11
A   34
 H12
A   35
 H13
A   36
 H14
M  END
>  <ref_pdb>  (419) 
x0051_0B

>  <ref_mols>  (419) 
x0553_0B,x0969_1B

>  <original SMILES>  (419) 
[H]c1nn2c(c1C([H])([H])C(=O)Oc1c([H])c(C#N)c([H])c([H])c1F)C([H])([H])C([H])([H])C([H])([H])C2([H])[H]

>  <index>  (419) 
896

>  <∆∆G>  (419) 
-6.531985

>  <∆G_bound>  (419) 
-4.849972

>  <∆G_unbound>  (419) 
1.682013

>  <comRMSD>  (419) 
0.521251

>  <N_constrained_atoms>  (419) 
19.0

>  <N_unconstrained_atoms>  (419) 
3.0

>  <runtime>  (419) 
51.781392

>  <LE>  (419) 
0.296908

>  <percent_hybrid>  (419) 
48.0

>  <dist>  (419) 
4.0

>  <ecfp4>  (419) 
0.413333

>  <daylight>  (419) 
0.509653

>  <topodist>  (419) 
1.0

>  <mces>  (419) 
23.0

>  <tdn>  (419) 
0.0

>  <tup>  (419) 
1.0

>  <rdn>  (419) 
0.0

>  <rup>  (419) 
0.0

>  <ldn>  (419) 
0.0

>  <lup>  (419) 
0.0

>  <mut>  (419) 
2.0

>  <maj>  (419) 
2.0

>  <min>  (419) 
0.0

>  <hyb>  (419) 
1.0

>  <sub>  (419) 
0.0

>  <query_index>  (419) 
375.0

>  <max_hit_Tanimoto>  (419) 
0.297529

>  <largest_ring>  (419) 
6

>  <N_interactions_kept>  (419) 
1.5

>  <N_interactions_lost>  (419) 
1.0

>  <interaction_uniqueness_metric>  (419) 
0.125715

>  <ad_hoc_penalty>  (419) 
-18.920671

>  <N_rotatable_bonds>  (419) 
3

>  <N_HA>  (419) 
22

>  <cluster>  (419) 
5398

>  <N_interactions>  (419) 
3

>  <Enamine>  (419) 
1

>  <Mcule>  (419) 
0

>  <N_PAINS>  (419) 
0

>  <UFF_Gibbs>  (419) 
39.316511

>  <strain_per_HA>  (419) 
1.787114

>  <saltbridge:HIS:51>  (419) 
0

>  <pistack:HIS:51>  (419) 
1

>  <hydroph_interaction:HIS:51>  (419) 
0

>  <hbond:ALA:132>  (419) 
0

>  <hbond:SER:135>  (419) 
0

>  <hydroph_interaction:TYR:150>  (419) 
0

>  <pistack:TYR:161>  (419) 
1

>  <hydroph_interaction:TYR:161>  (419) 
0

>  <hydroph_interaction:ASP:83>  (419) 
1

>  <hbond:TYR:130>  (419) 
0

>  <hydroph_interaction:ALA:132>  (419) 
0

>  <hbond:HIS:51>  (419) 
0

>  <hbond:ASP:129>  (419) 
0

>  <hbond:TYR:150>  (419) 
0

>  <hbond:GLY:151>  (419) 
0

>  <hbond:TYR:161>  (419) 
0

>  <hydroph_interaction:TYR:130>  (419) 
0

>  <hydroph_interaction:PRO:131>  (419) 
0

>  <hydroph_interaction:ASP:129>  (419) 
0

>  <saltbridge:ASP:75>  (419) 
0

>  <saltbridge:ASP:83>  (419) 
0

>  <hydroph_interaction:ASN:152>  (419) 
0

>  <halogenbond:TYR:150>  (419) 
0

>  <hbond:ASP:83>  (419) 
0

>  <hydroph_interaction:VAL:155>  (419) 
0

>  <pication:TYR:161>  (419) 
0

>  <hbond:PRO:131>  (419) 
0

>  <hbond:LEU:128>  (419) 
0

>  <saltbridge:ASP:129>  (419) 
0

>  <hbond:THR:134>  (419) 
0

>  <pication:HIS:51>  (419) 
0

>  <hbond:SER:81>  (419) 
0

>  <hbond:GLY:159>  (419) 
0

>  <hydroph_interaction:PRO:101>  (419) 
0

>  <hydroph_interaction:THR:134>  (419) 
0

>  <hbond:GLY:82>  (419) 
0

>  <hydroph_interaction:GLU:104>  (419) 
0

>  <hydroph_interaction:VAL:36>  (419) 
0

>  <hydroph_interaction:MET:49>  (419) 
0

>  <halogenbond:GLU:104>  (419) 
0

>  <hydroph_interaction:LYS:107>  (419) 
0

$$$$
MCULE-3030152971
     RDKit          3D

 50 52  0  0  0  0  0  0  0  0999 V2000
   -8.3987    4.3766  -10.1015 C   0  0  0  0  0  0  0  0  0  0  0  0
   -8.7674    5.7066  -10.3800 C   0  0  0  0  0  0  0  0  0  0  0  0
   -8.1756    6.3995  -11.4393 C   0  0  0  0  0  0  0  0  0  0  0  0
   -7.2112    5.7748  -12.2396 C   0  0  0  0  0  0  0  0  0  0  0  0
   -6.4933    6.6254  -13.6022 S   0  0  0  0  0  6  0  0  0  0  0  0
   -6.3762    5.5592  -14.9636 N   0  0  0  0  0  0  0  0  0  0  0  0
   -7.4550    5.3895  -15.8911 C   0  0  0  0  0  0  0  0  0  0  0  0
   -8.7529    5.1645  -15.4003 C   0  0  0  0  0  0  0  0  0  0  0  0
   -9.8018    4.8692  -16.2716 C   0  0  0  0  0  0  0  0  0  0  0  0
   -9.5666    4.7812  -17.6420 C   0  0  0  0  0  0  0  0  0  0  0  0
   -8.2861    5.0112  -18.1459 C   0  0  0  0  0  0  0  0  0  0  0  0
   -7.2265    5.3448  -17.2911 C   0  0  0  0  0  0  0  0  0  0  0  0
   -5.9932    5.6429  -17.8938 O   0  0  0  0  0  0  0  0  0  0  0  0
   -5.0045    6.5257  -17.3691 C   0  0  0  0  0  0  0  0  0  0  0  0
   -4.1862    7.0990  -18.5155 C   0  0  0  0  0  0  0  0  0  0  0  0
   -5.1209    7.1091  -13.2266 O   0  0  0  0  0  0  0  0  0  0  0  0
   -7.3374    7.8102  -13.9841 O   0  0  0  0  0  0  0  0  0  0  0  0
   -6.8359    4.4545  -11.9665 C   0  0  0  0  0  0  0  0  0  0  0  0
   -7.4253    3.7594  -10.9061 C   0  0  0  0  0  0  0  0  0  0  0  0
   -9.0534    3.6034   -8.9700 C   0  0  0  0  0  0  0  0  0  0  0  0
  -10.5549    3.3433   -9.2590 C   0  0  0  0  0  0  0  0  0  0  0  0
  -11.3961    3.1449   -7.9816 C   0  0  0  0  0  0  0  0  0  0  0  0
  -10.5693    2.5350   -6.8450 C   0  0  0  0  0  0  0  0  0  0  0  0
   -9.3896    3.4462   -6.4467 C   0  0  0  0  0  0  0  0  0  0  0  0
   -8.8531    4.3043   -7.6118 C   0  0  0  0  0  0  0  0  0  0  0  0
   -9.5191    6.2073   -9.7836 H   0  0  0  0  0  0  0  0  0  0  0  0
   -8.4739    7.4213  -11.6356 H   0  0  0  0  0  0  0  0  0  0  0  0
   -5.5045    4.9966  -15.0779 H   0  0  0  0  0  0  0  0  0  0  0  0
   -8.9499    5.1824  -14.3375 H   0  0  0  0  0  0  0  0  0  0  0  0
  -10.7950    4.6900  -15.8814 H   0  0  0  0  0  0  0  0  0  0  0  0
  -10.3786    4.5409  -18.3164 H   0  0  0  0  0  0  0  0  0  0  0  0
   -8.1203    4.9603  -19.2152 H   0  0  0  0  0  0  0  0  0  0  0  0
   -4.3210    5.9708  -16.6963 H   0  0  0  0  0  0  0  0  0  0  0  0
   -5.4830    7.3637  -16.8166 H   0  0  0  0  0  0  0  0  0  0  0  0
   -3.3835    7.7516  -18.1103 H   0  0  0  0  0  0  0  0  0  0  0  0
   -4.8366    7.7018  -19.1840 H   0  0  0  0  0  0  0  0  0  0  0  0
   -3.7215    6.2755  -19.1013 H   0  0  0  0  0  0  0  0  0  0  0  0
   -6.0935    3.9598  -12.5798 H   0  0  0  0  0  0  0  0  0  0  0  0
   -7.1249    2.7361  -10.7192 H   0  0  0  0  0  0  0  0  0  0  0  0
   -8.5579    2.6092   -8.8857 H   0  0  0  0  0  0  0  0  0  0  0  0
  -11.0021    4.1825   -9.8350 H   0  0  0  0  0  0  0  0  0  0  0  0
  -10.6390    2.4350   -9.8953 H   0  0  0  0  0  0  0  0  0  0  0  0
  -11.7969    4.1266   -7.6466 H   0  0  0  0  0  0  0  0  0  0  0  0
  -12.2642    2.4888   -8.2072 H   0  0  0  0  0  0  0  0  0  0  0  0
  -10.1804    1.5451   -7.1730 H   0  0  0  0  0  0  0  0  0  0  0  0
  -11.2200    2.3626   -5.9601 H   0  0  0  0  0  0  0  0  0  0  0  0
   -8.5693    2.8092   -6.0496 H   0  0  0  0  0  0  0  0  0  0  0  0
   -9.7079    4.1226   -5.6234 H   0  0  0  0  0  0  0  0  0  0  0  0
   -9.3862    5.2796   -7.6108 H   0  0  0  0  0  0  0  0  0  0  0  0
   -7.7732    4.5103   -7.4453 H   0  0  0  0  0  0  0  0  0  0  0  0
  1  2  2  0
  2  3  1  0
  3  4  2  0
  4  5  1  0
  5  6  1  0
  6  7  1  0
  7  8  2  0
  8  9  1  0
  9 10  2  0
 10 11  1  0
 11 12  2  0
 12 13  1  0
 13 14  1  0
 14 15  1  0
  5 16  2  0
  5 17  2  0
  4 18  1  0
 18 19  2  0
  1 20  1  0
 20 21  1  0
 21 22  1  0
 22 23  1  0
 23 24  1  0
 24 25  1  0
 19  1  1  0
 12  7  1  0
 25 20  1  0
  2 26  1  0
  3 27  1  0
  6 28  1  0
  8 29  1  0
  9 30  1  0
 10 31  1  0
 11 32  1  0
 14 33  1  0
 14 34  1  0
 15 35  1  0
 15 36  1  0
 15 37  1  0
 18 38  1  0
 19 39  1  0
 20 40  1  0
 21 41  1  0
 21 42  1  0
 22 43  1  0
 22 44  1  0
 23 45  1  0
 23 46  1  0
 24 47  1  0
 24 48  1  0
 25 49  1  0
 25 50  1  0
A    1
 C1 
A    2
 C2 
A    3
 C3 
A    4
 C4 
A    5
 S1 
A    6
 N1 
A    7
 C5 
A    8
 C6 
A    9
 C7 
A   10
 C8 
A   11
 C9 
A   12
 C10
A   13
 O1 
A   14
 C11
A   15
 C12
A   16
 O2 
A   17
 O3 
A   18
 C13
A   19
 C14
A   20
 C15
A   21
 C16
A   22
 C17
A   23
 C18
A   24
 C19
A   25
 C20
A   26
 H1 
A   27
 H2 
A   28
 H3 
A   29
 H4 
A   30
 H5 
A   31
 H6 
A   32
 H7 
A   33
 H8 
A   34
 H9 
A   35
 H10
A   36
 H11
A   37
 H12
A   38
 H13
A   39
 H14
A   40
 H15
A   41
 H16
A   42
 H17
A   43
 H18
A   44
 H19
A   45
 H20
A   46
 H21
A   47
 H22
A   48
 H23
A   49
 H24
A   50
 H25
M  END
>  <ref_pdb>  (420) 
x0051_0B

>  <ref_mols>  (420) 
x0727_0B,x0404_0B

>  <original SMILES>  (420) 
[H]c1c([H])c([H])c(N([H])S(=O)(=O)c2c([H])c([H])c(C3([H])C([H])([H])C([H])([H])C([H])([H])C([H])([H])C3([H])[H])c([H])c2[H])c(OC([H])([H])C([H])([H])[H])c1[H]

>  <index>  (420) 
357

>  <∆∆G>  (420) 
-8.523281

>  <∆G_bound>  (420) 
-7.849872

>  <∆G_unbound>  (420) 
0.673409

>  <comRMSD>  (420) 
0.502068

>  <N_constrained_atoms>  (420) 
25.0

>  <N_unconstrained_atoms>  (420) 
1.0

>  <runtime>  (420) 
94.195649

>  <LE>  (420) 
0.327818

>  <percent_hybrid>  (420) 
40.0

>  <dist>  (420) 
12.0

>  <ecfp4>  (420) 
0.178571

>  <daylight>  (420) 
0.182203

>  <topodist>  (420) 
5.0

>  <mces>  (420) 
27.0

>  <tdn>  (420) 
2.0

>  <tup>  (420) 
0.0

>  <rdn>  (420) 
1.0

>  <rup>  (420) 
0.0

>  <ldn>  (420) 
2.0

>  <lup>  (420) 
0.0

>  <mut>  (420) 
4.0

>  <maj>  (420) 
4.0

>  <min>  (420) 
0.0

>  <hyb>  (420) 
3.0

>  <sub>  (420) 
1.0

>  <query_index>  (420) 
0.0

>  <max_hit_Tanimoto>  (420) 
0.19975

>  <largest_ring>  (420) 
6

>  <N_interactions_kept>  (420) 
2.5

>  <N_interactions_lost>  (420) 
2.0

>  <interaction_uniqueness_metric>  (420) 
0.166399

>  <ad_hoc_penalty>  (420) 
-18.91862

>  <N_rotatable_bonds>  (420) 
7

>  <N_HA>  (420) 
25

>  <cluster>  (420) 
5892

>  <N_interactions>  (420) 
7

>  <Enamine>  (420) 
0

>  <Mcule>  (420) 
1

>  <N_PAINS>  (420) 
0

>  <UFF_Gibbs>  (420) 
225.652764

>  <strain_per_HA>  (420) 
8.678952

>  <saltbridge:HIS:51>  (420) 
0

>  <pistack:HIS:51>  (420) 
1

>  <hydroph_interaction:HIS:51>  (420) 
0

>  <hbond:ALA:132>  (420) 
0

>  <hbond:SER:135>  (420) 
0

>  <hydroph_interaction:TYR:150>  (420) 
1

>  <pistack:TYR:161>  (420) 
0

>  <hydroph_interaction:TYR:161>  (420) 
3

>  <hydroph_interaction:ASP:83>  (420) 
1

>  <hbond:TYR:130>  (420) 
0

>  <hydroph_interaction:ALA:132>  (420) 
1

>  <hbond:HIS:51>  (420) 
0

>  <hbond:ASP:129>  (420) 
0

>  <hbond:TYR:150>  (420) 
0

>  <hbond:GLY:151>  (420) 
0

>  <hbond:TYR:161>  (420) 
0

>  <hydroph_interaction:TYR:130>  (420) 
0

>  <hydroph_interaction:PRO:131>  (420) 
0

>  <hydroph_interaction:ASP:129>  (420) 
0

>  <saltbridge:ASP:75>  (420) 
0

>  <saltbridge:ASP:83>  (420) 
0

>  <hydroph_interaction:ASN:152>  (420) 
0

>  <halogenbond:TYR:150>  (420) 
0

>  <hbond:ASP:83>  (420) 
0

>  <hydroph_interaction:VAL:155>  (420) 
0

>  <pication:TYR:161>  (420) 
0

>  <hbond:PRO:131>  (420) 
0

>  <hbond:LEU:128>  (420) 
0

>  <saltbridge:ASP:129>  (420) 
0

>  <hbond:THR:134>  (420) 
0

>  <pication:HIS:51>  (420) 
0

>  <hbond:SER:81>  (420) 
0

>  <hbond:GLY:159>  (420) 
0

>  <hydroph_interaction:PRO:101>  (420) 
0

>  <hydroph_interaction:THR:134>  (420) 
0

>  <hbond:GLY:82>  (420) 
0

>  <hydroph_interaction:GLU:104>  (420) 
0

>  <hydroph_interaction:VAL:36>  (420) 
0

>  <hydroph_interaction:MET:49>  (420) 
0

>  <halogenbond:GLU:104>  (420) 
0

>  <hydroph_interaction:LYS:107>  (420) 
0

$$$$
HPJATGPLEBJRRZ-UHFFFAOYSA-N
     RDKit          3D

 38 41  0  0  0  0  0  0  0  0999 V2000
   -9.4391    2.7776  -13.0604 N   0  0  0  0  0  0  0  0  0  0  0  0
   -7.9819    2.8865  -14.0096 S   0  0  0  0  0  6  0  0  0  0  0  0
   -6.8768    3.4461  -13.1576 O   0  0  0  0  0  0  0  0  0  0  0  0
   -7.5804    1.5056  -14.4458 O   0  0  0  0  0  0  0  0  0  0  0  0
   -8.2377    3.8756  -15.4545 C   0  0  0  0  0  0  0  0  0  0  0  0
   -7.6095    5.1197  -15.6405 C   0  0  0  0  0  0  0  0  0  0  0  0
   -7.8781    5.8894  -16.8095 C   0  0  0  0  0  0  0  0  0  0  0  0
   -7.2414    7.0824  -16.9209 N   0  0  0  0  0  0  0  0  0  0  0  0
   -6.3723    7.0818  -15.5149 S   0  0  0  0  0  0  0  0  0  0  0  0
   -6.7382    5.6621  -14.7520 N   0  0  0  0  0  0  0  0  0  0  0  0
   -8.7622    5.4172  -17.7787 C   0  0  0  0  0  0  0  0  0  0  0  0
   -9.3848    4.1783  -17.5909 C   0  0  0  0  0  0  0  0  0  0  0  0
   -9.1272    3.4165  -16.4411 C   0  0  0  0  0  0  0  0  0  0  0  0
  -10.0436    4.0964  -12.8422 C   0  0  0  0  0  0  0  0  0  0  0  0
   -9.2142    4.9343  -11.9148 C   0  0  0  0  0  0  0  0  0  0  0  0
   -8.8166    4.6460  -10.6246 C   0  0  0  0  0  0  0  0  0  0  0  0
   -8.1537    5.7105  -10.1387 N   0  0  0  0  0  0  0  0  0  0  0  0
   -7.5211    5.7828   -8.8232 C   0  0  0  0  0  0  0  0  0  0  0  0
   -8.1339    4.7441   -7.8696 C   0  0  0  0  0  0  0  0  0  0  0  0
   -8.2522    3.3730   -8.5556 C   0  0  0  0  0  0  0  0  0  0  0  0
   -9.1567    3.4417   -9.7963 C   0  0  0  0  0  0  0  0  0  0  0  0
   -8.0746    6.6554  -11.0624 N   0  0  0  0  0  0  0  0  0  0  0  0
   -8.7276    6.2085  -12.1560 C   0  0  0  0  0  0  0  0  0  0  0  0
  -10.1184    2.2086  -13.6158 H   0  0  0  0  0  0  0  0  0  0  0  0
   -8.9686    6.0008  -18.6669 H   0  0  0  0  0  0  0  0  0  0  0  0
  -10.0752    3.8063  -18.3370 H   0  0  0  0  0  0  0  0  0  0  0  0
   -9.6292    2.4652  -16.3170 H   0  0  0  0  0  0  0  0  0  0  0  0
  -11.0418    3.9604  -12.3736 H   0  0  0  0  0  0  0  0  0  0  0  0
  -10.2078    4.6250  -13.8059 H   0  0  0  0  0  0  0  0  0  0  0  0
   -6.4329    5.5863   -8.9354 H   0  0  0  0  0  0  0  0  0  0  0  0
   -7.6539    6.8007   -8.3977 H   0  0  0  0  0  0  0  0  0  0  0  0
   -9.1430    5.0849   -7.5494 H   0  0  0  0  0  0  0  0  0  0  0  0
   -7.4967    4.6540   -6.9638 H   0  0  0  0  0  0  0  0  0  0  0  0
   -8.6699    2.6350   -7.8377 H   0  0  0  0  0  0  0  0  0  0  0  0
   -7.2395    3.0228   -8.8546 H   0  0  0  0  0  0  0  0  0  0  0  0
  -10.2187    3.5157   -9.4786 H   0  0  0  0  0  0  0  0  0  0  0  0
   -9.0284    2.5160  -10.3956 H   0  0  0  0  0  0  0  0  0  0  0  0
   -8.8471    6.7777  -13.0681 H   0  0  0  0  0  0  0  0  0  0  0  0
  1  2  1  0
  2  3  2  0
  2  4  2  0
  2  5  1  0
  5  6  1  0
  6  7  1  0
  7  8  2  0
  8  9  1  0
  9 10  1  0
  7 11  1  0
 11 12  2  0
 12 13  1  0
  1 14  1  0
 14 15  1  0
 15 16  2  0
 16 17  1  0
 17 18  1  0
 18 19  1  0
 19 20  1  0
 20 21  1  0
 17 22  1  0
 22 23  2  0
  5 13  2  0
  6 10  2  0
 23 15  1  0
 21 16  1  0
  1 24  1  0
 11 25  1  0
 12 26  1  0
 13 27  1  0
 14 28  1  0
 14 29  1  0
 18 30  1  0
 18 31  1  0
 19 32  1  0
 19 33  1  0
 20 34  1  0
 20 35  1  0
 21 36  1  0
 21 37  1  0
 23 38  1  0
A    1
 N1 
A    2
 S1 
A    3
 O1 
A    4
 O2 
A    5
 C1 
A    6
 C2 
A    7
 C3 
A    8
 N2 
A    9
 S2 
A   10
 N3 
A   11
 C4 
A   12
 C5 
A   13
 C6 
A   14
 C7 
A   15
 C8 
A   16
 C9 
A   17
 N4 
A   18
 C10
A   19
 C11
A   20
 C12
A   21
 C13
A   22
 N5 
A   23
 C14
A   24
 H1 
A   25
 H2 
A   26
 H3 
A   27
 H4 
A   28
 H5 
A   29
 H6 
A   30
 H7 
A   31
 H8 
A   32
 H9 
A   33
 H10
A   34
 H11
A   35
 H12
A   36
 H13
A   37
 H14
A   38
 H15
M  END
>  <ref_pdb>  (421) 
x0051_0B

>  <ref_mols>  (421) 
x0435_0B,x0969_1B

>  <original SMILES>  (421) 
[H]c1nn2c(c1C([H])([H])N([H])S(=O)(=O)c1c([H])c([H])c([H])c3nsnc13)C([H])([H])C([H])([H])C([H])([H])C2([H])[H]

>  <index>  (421) 
772

>  <∆∆G>  (421) 
-8.039355

>  <∆G_bound>  (421) 
-6.957162

>  <∆G_unbound>  (421) 
1.082193

>  <comRMSD>  (421) 
0.339273

>  <N_constrained_atoms>  (421) 
19.0

>  <N_unconstrained_atoms>  (421) 
4.0

>  <runtime>  (421) 
49.571077

>  <LE>  (421) 
0.349537

>  <percent_hybrid>  (421) 
48.0

>  <dist>  (421) 
9.0

>  <ecfp4>  (421) 
0.197674

>  <daylight>  (421) 
0.236264

>  <topodist>  (421) 
3.0

>  <mces>  (421) 
24.0

>  <tdn>  (421) 
1.0

>  <tup>  (421) 
2.0

>  <rdn>  (421) 
0.0

>  <rup>  (421) 
0.0

>  <ldn>  (421) 
0.0

>  <lup>  (421) 
0.0

>  <mut>  (421) 
6.0

>  <maj>  (421) 
5.0

>  <min>  (421) 
1.0

>  <hyb>  (421) 
0.0

>  <sub>  (421) 
0.0

>  <query_index>  (421) 
311.0

>  <max_hit_Tanimoto>  (421) 
0.302799

>  <largest_ring>  (421) 
6

>  <N_interactions_kept>  (421) 
2.0

>  <N_interactions_lost>  (421) 
1.5

>  <interaction_uniqueness_metric>  (421) 
0.140057

>  <ad_hoc_penalty>  (421) 
-18.916392

>  <N_rotatable_bonds>  (421) 
4

>  <N_HA>  (421) 
23

>  <cluster>  (421) 
5511

>  <N_interactions>  (421) 
4

>  <Enamine>  (421) 
0

>  <Mcule>  (421) 
1

>  <N_PAINS>  (421) 
0

>  <UFF_Gibbs>  (421) 
71.429163

>  <strain_per_HA>  (421) 
3.105616

>  <saltbridge:HIS:51>  (421) 
0

>  <pistack:HIS:51>  (421) 
0

>  <hydroph_interaction:HIS:51>  (421) 
1

>  <hbond:ALA:132>  (421) 
0

>  <hbond:SER:135>  (421) 
0

>  <hydroph_interaction:TYR:150>  (421) 
0

>  <pistack:TYR:161>  (421) 
2

>  <hydroph_interaction:TYR:161>  (421) 
0

>  <hydroph_interaction:ASP:83>  (421) 
1

>  <hbond:TYR:130>  (421) 
0

>  <hydroph_interaction:ALA:132>  (421) 
0

>  <hbond:HIS:51>  (421) 
0

>  <hbond:ASP:129>  (421) 
0

>  <hbond:TYR:150>  (421) 
0

>  <hbond:GLY:151>  (421) 
0

>  <hbond:TYR:161>  (421) 
0

>  <hydroph_interaction:TYR:130>  (421) 
0

>  <hydroph_interaction:PRO:131>  (421) 
0

>  <hydroph_interaction:ASP:129>  (421) 
0

>  <saltbridge:ASP:75>  (421) 
0

>  <saltbridge:ASP:83>  (421) 
0

>  <hydroph_interaction:ASN:152>  (421) 
0

>  <halogenbond:TYR:150>  (421) 
0

>  <hbond:ASP:83>  (421) 
0

>  <hydroph_interaction:VAL:155>  (421) 
0

>  <pication:TYR:161>  (421) 
0

>  <hbond:PRO:131>  (421) 
0

>  <hbond:LEU:128>  (421) 
0

>  <saltbridge:ASP:129>  (421) 
0

>  <hbond:THR:134>  (421) 
0

>  <pication:HIS:51>  (421) 
0

>  <hbond:SER:81>  (421) 
0

>  <hbond:GLY:159>  (421) 
0

>  <hydroph_interaction:PRO:101>  (421) 
0

>  <hydroph_interaction:THR:134>  (421) 
0

>  <hbond:GLY:82>  (421) 
0

>  <hydroph_interaction:GLU:104>  (421) 
0

>  <hydroph_interaction:VAL:36>  (421) 
0

>  <hydroph_interaction:MET:49>  (421) 
0

>  <halogenbond:GLU:104>  (421) 
0

>  <hydroph_interaction:LYS:107>  (421) 
0

$$$$
Z243542140
     RDKit          3D

 48 51  0  0  0  0  0  0  0  0999 V2000
  -10.4270    2.5876  -15.9251 C   0  0  0  0  0  0  0  0  0  0  0  0
   -9.1984    3.2264  -16.4764 C   0  0  0  0  0  0  0  0  0  0  0  0
   -9.1963    4.4292  -17.0894 N   0  0  0  0  0  0  0  0  0  0  0  0
   -7.9395    4.8117  -17.4464 C   0  0  0  0  0  0  0  0  0  0  0  0
   -7.6865    6.0895  -18.1875 C   0  0  0  0  0  0  0  0  0  0  0  0
   -8.0938    5.9470  -19.6564 C   0  0  0  0  0  0  0  0  0  0  0  0
   -7.8090    7.1747  -20.4004 N   0  0  0  0  0  0  0  0  0  0  0  0
   -8.1699    7.3057  -21.7836 C   0  0  0  0  0  0  0  0  0  0  0  0
   -8.9201    6.4412  -22.3149 O   0  0  0  0  0  0  0  0  0  0  0  0
   -7.6932    8.4512  -22.5944 C   0  0  0  0  0  0  0  0  0  0  0  0
   -8.4263    8.8707  -23.7184 C   0  0  0  0  0  0  0  0  0  0  0  0
   -7.9801    9.9399  -24.4982 C   0  0  0  0  0  0  0  0  0  0  0  0
   -6.7858   10.6025  -24.1762 C   0  0  0  0  0  0  0  0  0  0  0  0
   -6.2799   11.7250  -25.0422 C   0  0  0  0  0  0  0  0  0  0  0  0
   -4.8908   11.1722  -26.0955 S   0  0  0  0  0  0  0  0  0  0  0  0
   -5.8859   10.0529  -27.0780 C   0  0  0  0  0  0  0  0  0  0  0  0
   -6.0054    8.7302  -26.7903 N   0  0  0  0  0  0  0  0  0  0  0  0
   -6.8640    8.3031  -27.7328 C   0  0  0  0  0  0  0  0  0  0  0  0
   -7.3661    7.0156  -27.9065 C   0  0  0  0  0  0  0  0  0  0  0  0
   -8.2777    6.8066  -28.9597 C   0  0  0  0  0  0  0  0  0  0  0  0
   -8.6594    7.8786  -29.8004 C   0  0  0  0  0  0  0  0  0  0  0  0
   -8.1343    9.1684  -29.5934 C   0  0  0  0  0  0  0  0  0  0  0  0
   -7.2333    9.3349  -28.5441 C   0  0  0  0  0  0  0  0  0  0  0  0
   -6.6182   10.4540  -28.1444 N   0  0  0  0  0  0  0  0  0  0  0  0
   -6.0435   10.1791  -23.0644 C   0  0  0  0  0  0  0  0  0  0  0  0
   -6.4932    9.1138  -22.2787 C   0  0  0  0  0  0  0  0  0  0  0  0
   -6.9297    3.9097  -17.1175 C   0  0  0  0  0  0  0  0  0  0  0  0
   -7.6434    2.6026  -16.3374 S   0  0  0  0  0  0  0  0  0  0  0  0
  -10.2663    1.4966  -15.7971 H   0  0  0  0  0  0  0  0  0  0  0  0
  -10.6694    3.0401  -14.9406 H   0  0  0  0  0  0  0  0  0  0  0  0
  -11.2767    2.7471  -16.6224 H   0  0  0  0  0  0  0  0  0  0  0  0
   -8.2755    6.9045  -17.7151 H   0  0  0  0  0  0  0  0  0  0  0  0
   -6.6093    6.3586  -18.1224 H   0  0  0  0  0  0  0  0  0  0  0  0
   -9.1823    5.7265  -19.7151 H   0  0  0  0  0  0  0  0  0  0  0  0
   -7.5317    5.1059  -20.1183 H   0  0  0  0  0  0  0  0  0  0  0  0
   -7.3700    7.9844  -19.9075 H   0  0  0  0  0  0  0  0  0  0  0  0
   -9.3507    8.3764  -23.9901 H   0  0  0  0  0  0  0  0  0  0  0  0
   -8.5601   10.2416  -25.3616 H   0  0  0  0  0  0  0  0  0  0  0  0
   -7.0921   12.1361  -25.6812 H   0  0  0  0  0  0  0  0  0  0  0  0
   -5.9215   12.5539  -24.3961 H   0  0  0  0  0  0  0  0  0  0  0  0
   -7.0714    6.2059  -27.2528 H   0  0  0  0  0  0  0  0  0  0  0  0
   -8.6898    5.8197  -29.1254 H   0  0  0  0  0  0  0  0  0  0  0  0
   -9.3622    7.7070  -30.6056 H   0  0  0  0  0  0  0  0  0  0  0  0
   -8.4205    9.9983  -30.2266 H   0  0  0  0  0  0  0  0  0  0  0  0
   -6.7027   11.4156  -28.5429 H   0  0  0  0  0  0  0  0  0  0  0  0
   -5.1102   10.6680  -22.8126 H   0  0  0  0  0  0  0  0  0  0  0  0
   -5.8828    8.7940  -21.4446 H   0  0  0  0  0  0  0  0  0  0  0  0
   -5.8739    4.0278  -17.3202 H   0  0  0  0  0  0  0  0  0  0  0  0
  1  2  1  0
  2  3  2  0
  3  4  1  0
  4  5  1  0
  5  6  1  0
  6  7  1  0
  7  8  1  0
  8  9  2  0
  8 10  1  0
 10 11  2  0
 11 12  1  0
 12 13  2  0
 13 14  1  0
 14 15  1  0
 15 16  1  0
 16 17  2  0
 17 18  1  0
 18 19  2  0
 19 20  1  0
 20 21  2  0
 21 22  1  0
 22 23  2  0
 23 24  1  0
 13 25  1  0
 25 26  2  0
  4 27  2  0
 27 28  1  0
 28  2  1  0
 26 10  1  0
 24 16  1  0
 23 18  1  0
  1 29  1  0
  1 30  1  0
  1 31  1  0
  5 32  1  0
  5 33  1  0
  6 34  1  0
  6 35  1  0
  7 36  1  0
 11 37  1  0
 12 38  1  0
 14 39  1  0
 14 40  1  0
 19 41  1  0
 20 42  1  0
 21 43  1  0
 22 44  1  0
 24 45  1  0
 25 46  1  0
 26 47  1  0
 27 48  1  0
A    1
 C1 
A    2
 C2 
A    3
 N1 
A    4
 C3 
A    5
 C4 
A    6
 C5 
A    7
 N2 
A    8
 C6 
A    9
 O1 
A   10
 C7 
A   11
 C8 
A   12
 C9 
A   13
 C10
A   14
 C11
A   15
 S1 
A   16
 C12
A   17
 N3 
A   18
 C13
A   19
 C14
A   20
 C15
A   21
 C16
A   22
 C17
A   23
 C18
A   24
 N4 
A   25
 C19
A   26
 C20
A   27
 C21
A   28
 S2 
A   29
 H1 
A   30
 H2 
A   31
 H3 
A   32
 H4 
A   33
 H5 
A   34
 H6 
A   35
 H7 
A   36
 H8 
A   37
 H9 
A   38
 H10
A   39
 H11
A   40
 H12
A   41
 H13
A   42
 H14
A   43
 H15
A   44
 H16
A   45
 H17
A   46
 H18
A   47
 H19
A   48
 H20
M  END
>  <ref_pdb>  (422) 
x0051_0B

>  <ref_mols>  (422) 
x0386_0B,x0846_1B

>  <original SMILES>  (422) 
[H]c1sc(C([H])([H])[H])nc1C([H])([H])C([H])([H])N([H])C(=O)c1c([H])c([H])c(C([H])([H])Sc2nc3c([H])c([H])c([H])c([H])c3n2[H])c([H])c1[H]

>  <index>  (422) 
719

>  <∆∆G>  (422) 
-8.241108

>  <∆G_bound>  (422) 
-7.01942

>  <∆G_unbound>  (422) 
1.221687

>  <comRMSD>  (422) 
0.724454

>  <N_constrained_atoms>  (422) 
25.0

>  <N_unconstrained_atoms>  (422) 
3.0

>  <runtime>  (422) 
44.407648

>  <LE>  (422) 
0.294325

>  <percent_hybrid>  (422) 
28.0

>  <dist>  (422) 
8.0

>  <ecfp4>  (422) 
0.252747

>  <daylight>  (422) 
0.33195

>  <topodist>  (422) 
3.0

>  <mces>  (422) 
29.0

>  <tdn>  (422) 
1.0

>  <tup>  (422) 
2.0

>  <rdn>  (422) 
0.0

>  <rup>  (422) 
0.0

>  <ldn>  (422) 
0.0

>  <lup>  (422) 
0.0

>  <mut>  (422) 
4.0

>  <maj>  (422) 
3.0

>  <min>  (422) 
1.0

>  <hyb>  (422) 
1.0

>  <sub>  (422) 
2.0

>  <query_index>  (422) 
362.0

>  <max_hit_Tanimoto>  (422) 
0.283784

>  <largest_ring>  (422) 
6

>  <N_interactions_kept>  (422) 
1.0

>  <N_interactions_lost>  (422) 
1.0

>  <interaction_uniqueness_metric>  (422) 
0.169124

>  <ad_hoc_penalty>  (422) 
-18.897589

>  <N_rotatable_bonds>  (422) 
8

>  <N_HA>  (422) 
28

>  <cluster>  (422) 
5562

>  <N_interactions>  (422) 
5

>  <Enamine>  (422) 
1

>  <Mcule>  (422) 
0

>  <N_PAINS>  (422) 
0

>  <UFF_Gibbs>  (422) 
111.776137

>  <strain_per_HA>  (422) 
3.992005

>  <saltbridge:HIS:51>  (422) 
0

>  <pistack:HIS:51>  (422) 
0

>  <hydroph_interaction:HIS:51>  (422) 
0

>  <hbond:ALA:132>  (422) 
0

>  <hbond:SER:135>  (422) 
0

>  <hydroph_interaction:TYR:150>  (422) 
1

>  <pistack:TYR:161>  (422) 
0

>  <hydroph_interaction:TYR:161>  (422) 
1

>  <hydroph_interaction:ASP:83>  (422) 
0

>  <hbond:TYR:130>  (422) 
0

>  <hydroph_interaction:ALA:132>  (422) 
0

>  <hbond:HIS:51>  (422) 
0

>  <hbond:ASP:129>  (422) 
1

>  <hbond:TYR:150>  (422) 
0

>  <hbond:GLY:151>  (422) 
0

>  <hbond:TYR:161>  (422) 
0

>  <hydroph_interaction:TYR:130>  (422) 
1

>  <hydroph_interaction:PRO:131>  (422) 
1

>  <hydroph_interaction:ASP:129>  (422) 
0

>  <saltbridge:ASP:75>  (422) 
0

>  <saltbridge:ASP:83>  (422) 
0

>  <hydroph_interaction:ASN:152>  (422) 
0

>  <halogenbond:TYR:150>  (422) 
0

>  <hbond:ASP:83>  (422) 
0

>  <hydroph_interaction:VAL:155>  (422) 
0

>  <pication:TYR:161>  (422) 
0

>  <hbond:PRO:131>  (422) 
0

>  <hbond:LEU:128>  (422) 
0

>  <saltbridge:ASP:129>  (422) 
0

>  <hbond:THR:134>  (422) 
0

>  <pication:HIS:51>  (422) 
0

>  <hbond:SER:81>  (422) 
0

>  <hbond:GLY:159>  (422) 
0

>  <hydroph_interaction:PRO:101>  (422) 
0

>  <hydroph_interaction:THR:134>  (422) 
0

>  <hbond:GLY:82>  (422) 
0

>  <hydroph_interaction:GLU:104>  (422) 
0

>  <hydroph_interaction:VAL:36>  (422) 
0

>  <hydroph_interaction:MET:49>  (422) 
0

>  <halogenbond:GLU:104>  (422) 
0

>  <hydroph_interaction:LYS:107>  (422) 
0

$$$$
CSSB03437176666
     RDKit          3D

 44 48  0  0  0  0  0  0  0  0999 V2000
   -8.7032   10.4206  -24.3258 O   0  0  0  0  0  0  0  0  0  0  0  0
   -8.2272    9.1118  -24.2631 C   0  0  0  0  0  0  0  0  0  0  0  0
   -8.1359    8.3100  -25.4270 C   0  0  0  0  0  0  0  0  0  0  0  0
   -7.6637    6.9898  -25.2975 C   0  0  0  0  0  0  0  0  0  0  0  0
   -7.2826    6.4812  -24.0547 C   0  0  0  0  0  0  0  0  0  0  0  0
   -7.3474    7.2804  -22.9092 C   0  0  0  0  0  0  0  0  0  0  0  0
   -6.9686    6.7241  -21.6381 N   0  0  0  0  0  0  0  0  0  0  0  0
   -6.3623    7.4832  -20.5782 C   0  0  0  0  0  0  0  0  0  0  0  0
   -5.8820    8.6258  -20.8134 O   0  0  0  0  0  0  0  0  0  0  0  0
   -6.2667    6.9111  -19.2192 C   0  0  0  0  0  0  0  0  0  0  0  0
   -5.6569    7.6249  -18.1742 C   0  0  0  0  0  0  0  0  0  0  0  0
   -5.5898    7.0518  -16.9033 C   0  0  0  0  0  0  0  0  0  0  0  0
   -5.0443    7.6886  -15.9612 O   0  0  0  0  0  0  0  0  0  0  0  0
   -6.1323    5.7742  -16.6947 C   0  0  0  0  0  0  0  0  0  0  0  0
   -6.7308    5.1159  -17.7932 C   0  0  0  0  0  0  0  0  0  0  0  0
   -6.7722    5.7014  -18.9865 O   0  0  0  0  0  0  0  0  0  0  0  0
   -7.2836    3.8413  -17.6268 C   0  0  0  0  0  0  0  0  0  0  0  0
   -7.2462    3.2180  -16.3762 C   0  0  0  0  0  0  0  0  0  0  0  0
   -6.6558    3.8644  -15.2864 C   0  0  0  0  0  0  0  0  0  0  0  0
   -6.0993    5.1381  -15.4402 C   0  0  0  0  0  0  0  0  0  0  0  0
   -7.8393    8.5902  -23.0189 C   0  0  0  0  0  0  0  0  0  0  0  0
   -8.5240    8.8007  -26.7797 C   0  0  0  0  0  0  0  0  0  0  0  0
   -8.4319    8.0263  -27.8934 N   0  0  0  0  0  0  0  0  0  0  0  0
   -8.8405    8.6897  -29.0053 C   0  0  0  0  0  0  0  0  0  0  0  0
   -9.2607    9.9913  -28.7952 C   0  0  0  0  0  0  0  0  0  0  0  0
   -9.1237   10.3456  -27.1644 S   0  0  0  0  0  0  0  0  0  0  0  0
   -9.7085   10.8037  -29.8335 C   0  0  0  0  0  0  0  0  0  0  0  0
   -9.7265   10.2660  -31.1306 C   0  0  0  0  0  0  0  0  0  0  0  0
   -9.3013    8.9415  -31.3580 C   0  0  0  0  0  0  0  0  0  0  0  0
   -8.8543    8.1436  -30.2900 C   0  0  0  0  0  0  0  0  0  0  0  0
   -8.7710   11.0057  -23.5010 H   0  0  0  0  0  0  0  0  0  0  0  0
   -7.5872    6.3409  -26.1612 H   0  0  0  0  0  0  0  0  0  0  0  0
   -6.9244    5.4616  -23.9861 H   0  0  0  0  0  0  0  0  0  0  0  0
   -7.0606    5.6904  -21.5133 H   0  0  0  0  0  0  0  0  0  0  0  0
   -5.2411    8.6114  -18.3419 H   0  0  0  0  0  0  0  0  0  0  0  0
   -7.7425    3.3341  -18.4661 H   0  0  0  0  0  0  0  0  0  0  0  0
   -7.6747    2.2320  -16.2515 H   0  0  0  0  0  0  0  0  0  0  0  0
   -6.6292    3.3773  -14.3204 H   0  0  0  0  0  0  0  0  0  0  0  0
   -5.6473    5.6206  -14.5823 H   0  0  0  0  0  0  0  0  0  0  0  0
   -7.9487    9.2047  -22.1349 H   0  0  0  0  0  0  0  0  0  0  0  0
  -10.0325   11.8194  -29.6477 H   0  0  0  0  0  0  0  0  0  0  0  0
  -10.0687   10.8719  -31.9596 H   0  0  0  0  0  0  0  0  0  0  0  0
   -9.3191    8.5358  -32.3612 H   0  0  0  0  0  0  0  0  0  0  0  0
   -8.5274    7.1262  -30.4631 H   0  0  0  0  0  0  0  0  0  0  0  0
  1  2  1  0
  2  3  2  0
  3  4  1  0
  4  5  2  0
  5  6  1  0
  6  7  1  0
  7  8  1  0
  8  9  2  0
  8 10  1  0
 10 11  2  0
 11 12  1  0
 12 13  2  0
 12 14  1  0
 14 15  2  0
 15 16  1  0
 15 17  1  0
 17 18  2  0
 18 19  1  0
 19 20  2  0
  6 21  2  0
  3 22  1  0
 22 23  2  0
 23 24  1  0
 24 25  2  0
 25 26  1  0
 25 27  1  0
 27 28  2  0
 28 29  1  0
 29 30  2  0
 21  2  1  0
 16 10  1  0
 20 14  1  0
 26 22  1  0
 30 24  1  0
  1 31  1  0
  4 32  1  0
  5 33  1  0
  7 34  1  0
 11 35  1  0
 17 36  1  0
 18 37  1  0
 19 38  1  0
 20 39  1  0
 21 40  1  0
 27 41  1  0
 28 42  1  0
 29 43  1  0
 30 44  1  0
A    1
 O1 
A    2
 C1 
A    3
 C2 
A    4
 C3 
A    5
 C4 
A    6
 C5 
A    7
 N1 
A    8
 C6 
A    9
 O2 
A   10
 C7 
A   11
 C8 
A   12
 C9 
A   13
 O3 
A   14
 C10
A   15
 C11
A   16
 O4 
A   17
 C12
A   18
 C13
A   19
 C14
A   20
 C15
A   21
 C16
A   22
 C17
A   23
 N2 
A   24
 C18
A   25
 C19
A   26
 S1 
A   27
 C20
A   28
 C21
A   29
 C22
A   30
 C23
A   31
 H1 
A   32
 H2 
A   33
 H3 
A   34
 H4 
A   35
 H5 
A   36
 H6 
A   37
 H7 
A   38
 H8 
A   39
 H9 
A   40
 H10
A   41
 H11
A   42
 H12
A   43
 H13
A   44
 H14
M  END
>  <ref_pdb>  (423) 
x0051_0B

>  <ref_mols>  (423) 
x0846_1B,x0727_0B

>  <original SMILES>  (423) 
[H]Oc1c([H])c(N([H])C(=O)c2oc3c([H])c([H])c([H])c([H])c3c(=O)c2[H])c([H])c([H])c1-c1nc2c([H])c([H])c([H])c([H])c2s1

>  <index>  (423) 
395

>  <∆∆G>  (423) 
-8.569096

>  <∆G_bound>  (423) 
-7.654376

>  <∆G_unbound>  (423) 
0.914721

>  <comRMSD>  (423) 
0.882884

>  <N_constrained_atoms>  (423) 
29.0

>  <N_unconstrained_atoms>  (423) 
2.0

>  <runtime>  (423) 
58.47888

>  <LE>  (423) 
0.276422

>  <percent_hybrid>  (423) 
38.0

>  <dist>  (423) 
12.0

>  <ecfp4>  (423) 
0.183673

>  <daylight>  (423) 
0.274336

>  <topodist>  (423) 
6.0

>  <mces>  (423) 
32.0

>  <tdn>  (423) 
2.0

>  <tup>  (423) 
2.0

>  <rdn>  (423) 
0.0

>  <rup>  (423) 
0.0

>  <ldn>  (423) 
2.0

>  <lup>  (423) 
0.0

>  <mut>  (423) 
5.0

>  <maj>  (423) 
5.0

>  <min>  (423) 
0.0

>  <hyb>  (423) 
1.0

>  <sub>  (423) 
0.0

>  <query_index>  (423) 
17.0

>  <max_hit_Tanimoto>  (423) 
0.213942

>  <largest_ring>  (423) 
6

>  <N_interactions_kept>  (423) 
1.0

>  <N_interactions_lost>  (423) 
2.0

>  <interaction_uniqueness_metric>  (423) 
0.178411

>  <ad_hoc_penalty>  (423) 
-18.879151

>  <N_rotatable_bonds>  (423) 
4

>  <N_HA>  (423) 
30

>  <cluster>  (423) 
5856

>  <N_interactions>  (423) 
5

>  <Enamine>  (423) 
1

>  <Mcule>  (423) 
0

>  <N_PAINS>  (423) 
0

>  <UFF_Gibbs>  (423) 
260.71926

>  <strain_per_HA>  (423) 
8.410299

>  <saltbridge:HIS:51>  (423) 
0

>  <pistack:HIS:51>  (423) 
0

>  <hydroph_interaction:HIS:51>  (423) 
0

>  <hbond:ALA:132>  (423) 
1

>  <hbond:SER:135>  (423) 
0

>  <hydroph_interaction:TYR:150>  (423) 
1

>  <pistack:TYR:161>  (423) 
1

>  <hydroph_interaction:TYR:161>  (423) 
0

>  <hydroph_interaction:ASP:83>  (423) 
0

>  <hbond:TYR:130>  (423) 
0

>  <hydroph_interaction:ALA:132>  (423) 
0

>  <hbond:HIS:51>  (423) 
0

>  <hbond:ASP:129>  (423) 
0

>  <hbond:TYR:150>  (423) 
0

>  <hbond:GLY:151>  (423) 
0

>  <hbond:TYR:161>  (423) 
0

>  <hydroph_interaction:TYR:130>  (423) 
0

>  <hydroph_interaction:PRO:131>  (423) 
1

>  <hydroph_interaction:ASP:129>  (423) 
1

>  <saltbridge:ASP:75>  (423) 
0

>  <saltbridge:ASP:83>  (423) 
0

>  <hydroph_interaction:ASN:152>  (423) 
0

>  <halogenbond:TYR:150>  (423) 
0

>  <hbond:ASP:83>  (423) 
0

>  <hydroph_interaction:VAL:155>  (423) 
0

>  <pication:TYR:161>  (423) 
0

>  <hbond:PRO:131>  (423) 
0

>  <hbond:LEU:128>  (423) 
0

>  <saltbridge:ASP:129>  (423) 
0

>  <hbond:THR:134>  (423) 
0

>  <pication:HIS:51>  (423) 
0

>  <hbond:SER:81>  (423) 
0

>  <hbond:GLY:159>  (423) 
0

>  <hydroph_interaction:PRO:101>  (423) 
0

>  <hydroph_interaction:THR:134>  (423) 
0

>  <hbond:GLY:82>  (423) 
0

>  <hydroph_interaction:GLU:104>  (423) 
0

>  <hydroph_interaction:VAL:36>  (423) 
0

>  <hydroph_interaction:MET:49>  (423) 
0

>  <halogenbond:GLU:104>  (423) 
0

>  <hydroph_interaction:LYS:107>  (423) 
0

$$$$
MCULE-5900465413
     RDKit          3D

 17 18  0  0  0  0  0  0  0  0999 V2000
   -7.9324    5.0455  -18.2177 C   0  0  0  0  0  0  0  0  0  0  0  0
   -8.3597    5.1010  -16.9020 C   0  0  0  0  0  0  0  0  0  0  0  0
   -9.7178    4.8663  -16.9342 C   0  0  0  0  0  0  0  0  0  0  0  0
  -10.1064    4.6775  -18.1734 O   0  0  0  0  0  0  0  0  0  0  0  0
   -9.0662    4.7771  -18.9682 C   0  0  0  0  0  0  0  0  0  0  0  0
   -6.5462    5.2349  -18.7191 C   0  0  0  0  0  0  0  0  0  0  0  0
   -5.4553    5.3099  -17.8373 C   0  0  0  0  0  0  0  0  0  0  0  0
   -4.1970    5.4824  -18.3179 N   0  0  0  0  0  0  0  0  0  0  0  0
   -3.9655    5.5874  -19.6504 C   0  0  0  0  0  0  0  0  0  0  0  0
   -4.9992    5.5197  -20.5264 N   0  0  0  0  0  0  0  0  0  0  0  0
   -6.2743    5.3462  -20.0927 C   0  0  0  0  0  0  0  0  0  0  0  0
   -7.7687    5.2972  -16.0182 H   0  0  0  0  0  0  0  0  0  0  0  0
  -10.3768    4.8397  -16.0768 H   0  0  0  0  0  0  0  0  0  0  0  0
   -9.1203    4.6575  -20.0413 H   0  0  0  0  0  0  0  0  0  0  0  0
   -5.5934    5.2236  -16.7690 H   0  0  0  0  0  0  0  0  0  0  0  0
   -2.9567    5.7252  -20.0145 H   0  0  0  0  0  0  0  0  0  0  0  0
   -7.0679    5.3058  -20.8249 H   0  0  0  0  0  0  0  0  0  0  0  0
  1  2  1  0
  2  3  2  0
  3  4  1  0
  4  5  1  0
  1  6  1  0
  6  7  2  0
  7  8  1  0
  8  9  2  0
  9 10  1  0
 10 11  2  0
  1  5  2  0
  6 11  1  0
  2 12  1  0
  3 13  1  0
  5 14  1  0
  7 15  1  0
  9 16  1  0
 11 17  1  0
A    1
 C1 
A    2
 C2 
A    3
 C3 
A    4
 O1 
A    5
 C4 
A    6
 C5 
A    7
 C6 
A    8
 N1 
A    9
 C7 
A   10
 N2 
A   11
 C8 
A   12
 H1 
A   13
 H2 
A   14
 H3 
A   15
 H4 
A   16
 H5 
A   17
 H6 
M  END
>  <ref_pdb>  (424) 
x0051_0B

>  <ref_mols>  (424) 
x0680_0B,x0386_0B

>  <original SMILES>  (424) 
[H]c1nc([H])c(-c2c([H])oc([H])c2[H])c([H])n1

>  <index>  (424) 
830

>  <∆∆G>  (424) 
-5.115528

>  <∆G_bound>  (424) 
-5.077035

>  <∆G_unbound>  (424) 
0.038492

>  <comRMSD>  (424) 
0.587281

>  <N_constrained_atoms>  (424) 
13.0

>  <N_unconstrained_atoms>  (424) 
0.0

>  <runtime>  (424) 
24.840628

>  <LE>  (424) 
0.393502

>  <percent_hybrid>  (424) 
25.0

>  <dist>  (424) 
3.0

>  <ecfp4>  (424) 
0.217391

>  <daylight>  (424) 
0.282258

>  <topodist>  (424) 
1.0

>  <mces>  (424) 
12.0

>  <tdn>  (424) 
1.0

>  <tup>  (424) 
0.0

>  <rdn>  (424) 
0.0

>  <rup>  (424) 
0.0

>  <ldn>  (424) 
0.0

>  <lup>  (424) 
0.0

>  <mut>  (424) 
2.0

>  <maj>  (424) 
2.0

>  <min>  (424) 
0.0

>  <hyb>  (424) 
0.0

>  <sub>  (424) 
1.0

>  <query_index>  (424) 
296.0

>  <max_hit_Tanimoto>  (424) 
0.097614

>  <largest_ring>  (424) 
6

>  <N_interactions_kept>  (424) 
3.5

>  <N_interactions_lost>  (424) 
0.5

>  <interaction_uniqueness_metric>  (424) 
0.013281

>  <ad_hoc_penalty>  (424) 
-18.869508

>  <N_rotatable_bonds>  (424) 
1

>  <N_HA>  (424) 
11

>  <cluster>  (424) 
5459

>  <N_interactions>  (424) 
2

>  <Enamine>  (424) 
0

>  <Mcule>  (424) 
1

>  <N_PAINS>  (424) 
0

>  <UFF_Gibbs>  (424) 
18.723997

>  <strain_per_HA>  (424) 
1.440307

>  <saltbridge:HIS:51>  (424) 
0

>  <pistack:HIS:51>  (424) 
0

>  <hydroph_interaction:HIS:51>  (424) 
0

>  <hbond:ALA:132>  (424) 
0

>  <hbond:SER:135>  (424) 
0

>  <hydroph_interaction:TYR:150>  (424) 
0

>  <pistack:TYR:161>  (424) 
0

>  <hydroph_interaction:TYR:161>  (424) 
2

>  <hydroph_interaction:ASP:83>  (424) 
0

>  <hbond:TYR:130>  (424) 
0

>  <hydroph_interaction:ALA:132>  (424) 
0

>  <hbond:HIS:51>  (424) 
0

>  <hbond:ASP:129>  (424) 
0

>  <hbond:TYR:150>  (424) 
0

>  <hbond:GLY:151>  (424) 
0

>  <hbond:TYR:161>  (424) 
0

>  <hydroph_interaction:TYR:130>  (424) 
0

>  <hydroph_interaction:PRO:131>  (424) 
0

>  <hydroph_interaction:ASP:129>  (424) 
0

>  <saltbridge:ASP:75>  (424) 
0

>  <saltbridge:ASP:83>  (424) 
0

>  <hydroph_interaction:ASN:152>  (424) 
0

>  <halogenbond:TYR:150>  (424) 
0

>  <hbond:ASP:83>  (424) 
0

>  <hydroph_interaction:VAL:155>  (424) 
0

>  <pication:TYR:161>  (424) 
0

>  <hbond:PRO:131>  (424) 
0

>  <hbond:LEU:128>  (424) 
0

>  <saltbridge:ASP:129>  (424) 
0

>  <hbond:THR:134>  (424) 
0

>  <pication:HIS:51>  (424) 
0

>  <hbond:SER:81>  (424) 
0

>  <hbond:GLY:159>  (424) 
0

>  <hydroph_interaction:PRO:101>  (424) 
0

>  <hydroph_interaction:THR:134>  (424) 
0

>  <hbond:GLY:82>  (424) 
0

>  <hydroph_interaction:GLU:104>  (424) 
0

>  <hydroph_interaction:VAL:36>  (424) 
0

>  <hydroph_interaction:MET:49>  (424) 
0

>  <halogenbond:GLU:104>  (424) 
0

>  <hydroph_interaction:LYS:107>  (424) 
0

$$$$
WSMYRBOXYHZYMD-UHFFFAOYSA-N
     RDKit          3D

 30 32  0  0  0  0  0  0  0  0999 V2000
   -8.0460    5.6092  -14.9179 C   0  0  0  0  0  0  0  0  0  0  0  0
   -8.5092    4.7527  -13.8608 N   0  0  0  0  0  0  0  0  0  0  0  0
   -8.5966    5.1493  -12.4845 C   0  0  0  0  0  0  0  0  0  0  0  0
   -8.5752    6.4291  -11.9570 C   0  0  0  0  0  0  0  0  0  0  0  0
   -8.7346    6.3465  -10.6206 N   0  0  0  0  0  0  0  0  0  0  0  0
   -8.8719    5.0659  -10.3084 N   0  0  0  0  0  0  0  0  0  0  0  0
   -9.0108    4.5726   -8.9454 C   0  0  0  0  0  0  0  0  0  0  0  0
   -8.7900    4.3047  -11.4154 C   0  0  0  0  0  0  0  0  0  0  0  0
   -7.3819    6.6445  -14.6437 O   0  0  0  0  0  0  0  0  0  0  0  0
   -8.3238    5.2692  -16.3339 C   0  0  0  0  0  0  0  0  0  0  0  0
   -7.4809    5.6708  -17.3866 C   0  0  0  0  0  0  0  0  0  0  0  0
   -7.7618    5.3617  -18.6957 C   0  0  0  0  0  0  0  0  0  0  0  0
   -6.8096    5.8293  -19.5190 N   0  0  0  0  0  0  0  0  0  0  0  0
   -5.9023    6.4408  -18.7273 C   0  0  0  0  0  0  0  0  0  0  0  0
   -6.2812    6.3616  -17.3929 C   0  0  0  0  0  0  0  0  0  0  0  0
   -8.8952    4.6376  -19.0549 C   0  0  0  0  0  0  0  0  0  0  0  0
   -9.7612    4.2224  -18.0317 C   0  0  0  0  0  0  0  0  0  0  0  0
   -9.4809    4.5339  -16.6846 C   0  0  0  0  0  0  0  0  0  0  0  0
   -8.7507    3.7629  -14.0918 H   0  0  0  0  0  0  0  0  0  0  0  0
   -8.4720    7.3604  -12.4956 H   0  0  0  0  0  0  0  0  0  0  0  0
   -9.4065    5.3756   -8.2881 H   0  0  0  0  0  0  0  0  0  0  0  0
   -9.7145    3.7135   -8.9212 H   0  0  0  0  0  0  0  0  0  0  0  0
   -8.0200    4.2464   -8.5658 H   0  0  0  0  0  0  0  0  0  0  0  0
   -8.8627    3.2248  -11.4398 H   0  0  0  0  0  0  0  0  0  0  0  0
   -6.7692    5.7329  -20.5581 H   0  0  0  0  0  0  0  0  0  0  0  0
   -5.0025    6.9153  -19.0958 H   0  0  0  0  0  0  0  0  0  0  0  0
   -5.7304    6.7501  -16.5478 H   0  0  0  0  0  0  0  0  0  0  0  0
   -9.1025    4.3994  -20.0902 H   0  0  0  0  0  0  0  0  0  0  0  0
  -10.6534    3.6620  -18.2791 H   0  0  0  0  0  0  0  0  0  0  0  0
  -10.1824    4.2159  -15.9241 H   0  0  0  0  0  0  0  0  0  0  0  0
  1  2  1  0
  2  3  1  0
  3  4  1  0
  4  5  2  0
  5  6  1  0
  6  7  1  0
  6  8  1  0
  1  9  2  0
  1 10  1  0
 10 11  1  0
 11 12  2  0
 12 13  1  0
 13 14  1  0
 14 15  2  0
 12 16  1  0
 16 17  2  0
 17 18  1  0
  3  8  2  0
 18 10  2  0
 15 11  1  0
  2 19  1  0
  4 20  1  0
  7 21  1  0
  7 22  1  0
  7 23  1  0
  8 24  1  0
 13 25  1  0
 14 26  1  0
 15 27  1  0
 16 28  1  0
 17 29  1  0
 18 30  1  0
A    1
 C1 
A    2
 N1 
A    3
 C2 
A    4
 C3 
A    5
 N2 
A    6
 N3 
A    7
 C4 
A    8
 C5 
A    9
 O1 
A   10
 C6 
A   11
 C7 
A   12
 C8 
A   13
 N4 
A   14
 C9 
A   15
 C10
A   16
 C11
A   17
 C12
A   18
 C13
A   19
 H1 
A   20
 H2 
A   21
 H3 
A   22
 H4 
A   23
 H5 
A   24
 H6 
A   25
 H7 
A   26
 H8 
A   27
 H9 
A   28
 H10
A   29
 H11
A   30
 H12
M  END
>  <ref_pdb>  (425) 
x0051_0B

>  <ref_mols>  (425) 
x1098_0B,x0386_0B

>  <original SMILES>  (425) 
[H]c1nn(C([H])([H])[H])c([H])c1N([H])C(=O)c1c([H])c([H])c([H])c2c1c([H])c([H])n2[H]

>  <index>  (425) 
888

>  <∆∆G>  (425) 
-7.538398

>  <∆G_bound>  (425) 
-7.137993

>  <∆G_unbound>  (425) 
0.400405

>  <comRMSD>  (425) 
0.640457

>  <N_constrained_atoms>  (425) 
20.0

>  <N_unconstrained_atoms>  (425) 
0.0

>  <runtime>  (425) 
46.34316

>  <LE>  (425) 
0.37692

>  <percent_hybrid>  (425) 
8.0

>  <dist>  (425) 
5.0

>  <ecfp4>  (425) 
0.508197

>  <daylight>  (425) 
0.519231

>  <topodist>  (425) 
3.0

>  <mces>  (425) 
19.0

>  <tdn>  (425) 
2.0

>  <tup>  (425) 
0.0

>  <rdn>  (425) 
0.0

>  <rup>  (425) 
1.0

>  <ldn>  (425) 
0.0

>  <lup>  (425) 
0.0

>  <mut>  (425) 
1.0

>  <maj>  (425) 
1.0

>  <min>  (425) 
0.0

>  <hyb>  (425) 
1.0

>  <sub>  (425) 
2.0

>  <query_index>  (425) 
61.0

>  <max_hit_Tanimoto>  (425) 
0.482005

>  <largest_ring>  (425) 
6

>  <N_interactions_kept>  (425) 
1.5

>  <N_interactions_lost>  (425) 
3.5

>  <interaction_uniqueness_metric>  (425) 
0.164058

>  <ad_hoc_penalty>  (425) 
-18.845733

>  <N_rotatable_bonds>  (425) 
3

>  <N_HA>  (425) 
18

>  <cluster>  (425) 
5406

>  <N_interactions>  (425) 
7

>  <Enamine>  (425) 
0

>  <Mcule>  (425) 
1

>  <N_PAINS>  (425) 
0

>  <UFF_Gibbs>  (425) 
50.652725

>  <strain_per_HA>  (425) 
2.532636

>  <saltbridge:HIS:51>  (425) 
0

>  <pistack:HIS:51>  (425) 
1

>  <hydroph_interaction:HIS:51>  (425) 
0

>  <hbond:ALA:132>  (425) 
0

>  <hbond:SER:135>  (425) 
0

>  <hydroph_interaction:TYR:150>  (425) 
1

>  <pistack:TYR:161>  (425) 
2

>  <hydroph_interaction:TYR:161>  (425) 
0

>  <hydroph_interaction:ASP:83>  (425) 
0

>  <hbond:TYR:130>  (425) 
0

>  <hydroph_interaction:ALA:132>  (425) 
1

>  <hbond:HIS:51>  (425) 
0

>  <hbond:ASP:129>  (425) 
0

>  <hbond:TYR:150>  (425) 
0

>  <hbond:GLY:151>  (425) 
1

>  <hbond:TYR:161>  (425) 
1

>  <hydroph_interaction:TYR:130>  (425) 
0

>  <hydroph_interaction:PRO:131>  (425) 
0

>  <hydroph_interaction:ASP:129>  (425) 
0

>  <saltbridge:ASP:75>  (425) 
0

>  <saltbridge:ASP:83>  (425) 
0

>  <hydroph_interaction:ASN:152>  (425) 
0

>  <halogenbond:TYR:150>  (425) 
0

>  <hbond:ASP:83>  (425) 
0

>  <hydroph_interaction:VAL:155>  (425) 
0

>  <pication:TYR:161>  (425) 
0

>  <hbond:PRO:131>  (425) 
0

>  <hbond:LEU:128>  (425) 
0

>  <saltbridge:ASP:129>  (425) 
0

>  <hbond:THR:134>  (425) 
0

>  <pication:HIS:51>  (425) 
0

>  <hbond:SER:81>  (425) 
0

>  <hbond:GLY:159>  (425) 
0

>  <hydroph_interaction:PRO:101>  (425) 
0

>  <hydroph_interaction:THR:134>  (425) 
0

>  <hbond:GLY:82>  (425) 
0

>  <hydroph_interaction:GLU:104>  (425) 
0

>  <hydroph_interaction:VAL:36>  (425) 
0

>  <hydroph_interaction:MET:49>  (425) 
0

>  <halogenbond:GLU:104>  (425) 
0

>  <hydroph_interaction:LYS:107>  (425) 
0

$$$$
MCULE-2070421809
     RDKit          3D

 22 23  0  0  0  0  0  0  0  0999 V2000
   -7.9436    5.0678  -18.1270 C   0  0  0  0  0  0  0  0  0  0  0  0
   -8.3919    5.3904  -16.8589 C   0  0  0  0  0  0  0  0  0  0  0  0
   -9.7274    5.0472  -16.8341 C   0  0  0  0  0  0  0  0  0  0  0  0
  -10.0815    4.5531  -17.9981 O   0  0  0  0  0  0  0  0  0  0  0  0
   -9.0399    4.5543  -18.7974 C   0  0  0  0  0  0  0  0  0  0  0  0
   -6.5827    5.2704  -18.6826 C   0  0  0  0  0  0  0  0  0  0  0  0
   -6.4288    5.5569  -20.0504 C   0  0  0  0  0  0  0  0  0  0  0  0
   -5.1944    5.7611  -20.5783 N   0  0  0  0  0  0  0  0  0  0  0  0
   -4.0728    5.6919  -19.8185 C   0  0  0  0  0  0  0  0  0  0  0  0
   -4.1655    5.4004  -18.4586 C   0  0  0  0  0  0  0  0  0  0  0  0
   -5.4271    5.1774  -17.8754 C   0  0  0  0  0  0  0  0  0  0  0  0
   -5.5575    4.8418  -16.5178 O   0  0  0  0  0  0  0  0  0  0  0  0
   -4.4715    4.7166  -15.6055 C   0  0  0  0  0  0  0  0  0  0  0  0
   -7.8338    5.8494  -16.0543 H   0  0  0  0  0  0  0  0  0  0  0  0
  -10.3966    5.1664  -15.9925 H   0  0  0  0  0  0  0  0  0  0  0  0
   -9.0597    4.1982  -19.8189 H   0  0  0  0  0  0  0  0  0  0  0  0
   -7.2916    5.6387  -20.6982 H   0  0  0  0  0  0  0  0  0  0  0  0
   -3.1053    5.8603  -20.2725 H   0  0  0  0  0  0  0  0  0  0  0  0
   -3.2561    5.3420  -17.8764 H   0  0  0  0  0  0  0  0  0  0  0  0
   -3.9270    5.6811  -15.5252 H   0  0  0  0  0  0  0  0  0  0  0  0
   -4.8685    4.4490  -14.6050 H   0  0  0  0  0  0  0  0  0  0  0  0
   -3.7818    3.9133  -15.9405 H   0  0  0  0  0  0  0  0  0  0  0  0
  1  2  1  0
  2  3  2  0
  3  4  1  0
  4  5  1  0
  1  6  1  0
  6  7  2  0
  7  8  1  0
  8  9  2  0
  9 10  1  0
 10 11  2  0
 11 12  1  0
 12 13  1  0
  1  5  2  0
  6 11  1  0
  2 14  1  0
  3 15  1  0
  5 16  1  0
  7 17  1  0
  9 18  1  0
 10 19  1  0
 13 20  1  0
 13 21  1  0
 13 22  1  0
A    1
 C1 
A    2
 C2 
A    3
 C3 
A    4
 O1 
A    5
 C4 
A    6
 C5 
A    7
 C6 
A    8
 N1 
A    9
 C7 
A   10
 C8 
A   11
 C9 
A   12
 O2 
A   13
 C10
A   14
 H1 
A   15
 H2 
A   16
 H3 
A   17
 H4 
A   18
 H5 
A   19
 H6 
A   20
 H7 
A   21
 H8 
A   22
 H9 
M  END
>  <ref_pdb>  (426) 
x0051_0B

>  <ref_mols>  (426) 
x0680_0B,x0386_0B

>  <original SMILES>  (426) 
[H]c1nc([H])c(-c2c([H])oc([H])c2[H])c(OC([H])([H])[H])c1[H]

>  <index>  (426) 
587

>  <∆∆G>  (426) 
-6.442628

>  <∆G_bound>  (426) 
-6.476257

>  <∆G_unbound>  (426) 
-0.03363

>  <comRMSD>  (426) 
0.574482

>  <N_constrained_atoms>  (426) 
13.0

>  <N_unconstrained_atoms>  (426) 
1.0

>  <runtime>  (426) 
24.401979

>  <LE>  (426) 
0.460188

>  <percent_hybrid>  (426) 
25.0

>  <dist>  (426) 
2.0

>  <ecfp4>  (426) 
0.354167

>  <daylight>  (426) 
0.360544

>  <topodist>  (426) 
1.0

>  <mces>  (426) 
13.0

>  <tdn>  (426) 
0.0

>  <tup>  (426) 
0.0

>  <rdn>  (426) 
0.0

>  <rup>  (426) 
0.0

>  <ldn>  (426) 
0.0

>  <lup>  (426) 
1.0

>  <mut>  (426) 
1.0

>  <maj>  (426) 
1.0

>  <min>  (426) 
0.0

>  <hyb>  (426) 
0.0

>  <sub>  (426) 
0.0

>  <query_index>  (426) 
296.0

>  <max_hit_Tanimoto>  (426) 
0.125

>  <largest_ring>  (426) 
6

>  <N_interactions_kept>  (426) 
3.5

>  <N_interactions_lost>  (426) 
0.5

>  <interaction_uniqueness_metric>  (426) 
0.016266

>  <ad_hoc_penalty>  (426) 
-18.833746

>  <N_rotatable_bonds>  (426) 
3

>  <N_HA>  (426) 
13

>  <cluster>  (426) 
5681

>  <N_interactions>  (426) 
3

>  <Enamine>  (426) 
0

>  <Mcule>  (426) 
1

>  <N_PAINS>  (426) 
0

>  <UFF_Gibbs>  (426) 
56.62232

>  <strain_per_HA>  (426) 
4.044451

>  <saltbridge:HIS:51>  (426) 
0

>  <pistack:HIS:51>  (426) 
0

>  <hydroph_interaction:HIS:51>  (426) 
0

>  <hbond:ALA:132>  (426) 
0

>  <hbond:SER:135>  (426) 
0

>  <hydroph_interaction:TYR:150>  (426) 
0

>  <pistack:TYR:161>  (426) 
0

>  <hydroph_interaction:TYR:161>  (426) 
3

>  <hydroph_interaction:ASP:83>  (426) 
0

>  <hbond:TYR:130>  (426) 
0

>  <hydroph_interaction:ALA:132>  (426) 
0

>  <hbond:HIS:51>  (426) 
0

>  <hbond:ASP:129>  (426) 
0

>  <hbond:TYR:150>  (426) 
0

>  <hbond:GLY:151>  (426) 
0

>  <hbond:TYR:161>  (426) 
0

>  <hydroph_interaction:TYR:130>  (426) 
0

>  <hydroph_interaction:PRO:131>  (426) 
0

>  <hydroph_interaction:ASP:129>  (426) 
0

>  <saltbridge:ASP:75>  (426) 
0

>  <saltbridge:ASP:83>  (426) 
0

>  <hydroph_interaction:ASN:152>  (426) 
0

>  <halogenbond:TYR:150>  (426) 
0

>  <hbond:ASP:83>  (426) 
0

>  <hydroph_interaction:VAL:155>  (426) 
0

>  <pication:TYR:161>  (426) 
0

>  <hbond:PRO:131>  (426) 
0

>  <hbond:LEU:128>  (426) 
0

>  <saltbridge:ASP:129>  (426) 
0

>  <hbond:THR:134>  (426) 
0

>  <pication:HIS:51>  (426) 
0

>  <hbond:SER:81>  (426) 
0

>  <hbond:GLY:159>  (426) 
0

>  <hydroph_interaction:PRO:101>  (426) 
0

>  <hydroph_interaction:THR:134>  (426) 
0

>  <hbond:GLY:82>  (426) 
0

>  <hydroph_interaction:GLU:104>  (426) 
0

>  <hydroph_interaction:VAL:36>  (426) 
0

>  <hydroph_interaction:MET:49>  (426) 
0

>  <halogenbond:GLU:104>  (426) 
0

>  <hydroph_interaction:LYS:107>  (426) 
0

$$$$
MCULE-1867878385
     RDKit          3D

 46 50  0  0  0  0  0  0  0  0999 V2000
   -8.3549    6.2778  -19.4454 N   0  0  0  0  0  0  0  0  0  0  0  0
   -7.8058    6.9704  -20.5796 C   0  0  0  0  0  0  0  0  0  0  0  0
   -7.5382    6.2726  -21.7662 C   0  0  0  0  0  0  0  0  0  0  0  0
   -7.0039    6.9387  -22.8740 C   0  0  0  0  0  0  0  0  0  0  0  0
   -6.7396    8.3182  -22.8152 C   0  0  0  0  0  0  0  0  0  0  0  0
   -7.0373    9.0205  -21.6343 C   0  0  0  0  0  0  0  0  0  0  0  0
   -7.5658    8.3525  -20.5268 C   0  0  0  0  0  0  0  0  0  0  0  0
   -6.1714    9.0341  -23.9799 C   0  0  0  0  0  0  0  0  0  0  0  0
   -6.4387   10.2566  -24.1473 O   0  0  0  0  0  0  0  0  0  0  0  0
   -5.2903    8.3651  -24.8962 N   0  0  0  0  0  0  0  0  0  0  0  0
   -4.8044    9.0002  -26.1175 C   0  0  0  0  0  0  0  0  0  0  0  0
   -5.8678    8.9601  -27.1673 C   0  0  0  0  0  0  0  0  0  0  0  0
   -6.0576    7.8966  -27.9873 N   0  0  0  0  0  0  0  0  0  0  0  0
   -7.1355    8.2344  -28.7045 C   0  0  0  0  0  0  0  0  0  0  0  0
   -7.5722    9.4640  -28.3094 C   0  0  0  0  0  0  0  0  0  0  0  0
   -8.6942   10.0626  -28.8788 C   0  0  0  0  0  0  0  0  0  0  0  0
   -9.3712    9.3537  -29.8903 C   0  0  0  0  0  0  0  0  0  0  0  0
   -8.9138    8.0792  -30.3006 C   0  0  0  0  0  0  0  0  0  0  0  0
   -7.7781    7.5019  -29.7004 C   0  0  0  0  0  0  0  0  0  0  0  0
   -6.7894    9.9477  -27.3274 N   0  0  0  0  0  0  0  0  0  0  0  0
   -7.7554    6.3308  -18.2155 C   0  0  0  0  0  0  0  0  0  0  0  0
   -6.6895    6.9864  -18.0494 O   0  0  0  0  0  0  0  0  0  0  0  0
   -8.3279    5.6372  -17.1401 C   0  0  0  0  0  0  0  0  0  0  0  0
   -7.7642    5.6417  -15.8514 C   0  0  0  0  0  0  0  0  0  0  0  0
   -8.3821    4.9341  -14.8148 C   0  0  0  0  0  0  0  0  0  0  0  0
   -9.5630    4.2238  -15.0535 C   0  0  0  0  0  0  0  0  0  0  0  0
  -10.1272    4.2121  -16.3317 C   0  0  0  0  0  0  0  0  0  0  0  0
   -9.5114    4.9164  -17.3730 C   0  0  0  0  0  0  0  0  0  0  0  0
  -10.0406    4.8947  -18.6191 N   0  0  0  0  0  0  0  0  0  0  0  0
   -9.4659    5.5580  -19.6213 N   0  0  0  0  0  0  0  0  0  0  0  0
   -7.7326    5.2099  -21.8280 H   0  0  0  0  0  0  0  0  0  0  0  0
   -6.8168    6.3756  -23.7803 H   0  0  0  0  0  0  0  0  0  0  0  0
   -6.8526   10.0855  -21.5650 H   0  0  0  0  0  0  0  0  0  0  0  0
   -7.7960    8.9128  -19.6288 H   0  0  0  0  0  0  0  0  0  0  0  0
   -4.9327    7.4117  -24.6638 H   0  0  0  0  0  0  0  0  0  0  0  0
   -3.9123    8.4519  -26.4881 H   0  0  0  0  0  0  0  0  0  0  0  0
   -4.4961   10.0474  -25.9125 H   0  0  0  0  0  0  0  0  0  0  0  0
   -5.5038    7.0124  -28.0362 H   0  0  0  0  0  0  0  0  0  0  0  0
   -9.0365   11.0367  -28.5542 H   0  0  0  0  0  0  0  0  0  0  0  0
  -10.2484    9.7857  -30.3557 H   0  0  0  0  0  0  0  0  0  0  0  0
   -9.4417    7.5433  -31.0787 H   0  0  0  0  0  0  0  0  0  0  0  0
   -7.4190    6.5256  -30.0015 H   0  0  0  0  0  0  0  0  0  0  0  0
   -6.8536    6.1898  -15.6391 H   0  0  0  0  0  0  0  0  0  0  0  0
   -7.9487    4.9399  -13.8230 H   0  0  0  0  0  0  0  0  0  0  0  0
  -10.0413    3.6808  -14.2485 H   0  0  0  0  0  0  0  0  0  0  0  0
  -11.0367    3.6518  -16.5153 H   0  0  0  0  0  0  0  0  0  0  0  0
  1  2  1  0
  2  3  2  0
  3  4  1  0
  4  5  2  0
  5  6  1  0
  6  7  2  0
  5  8  1  0
  8  9  2  0
  8 10  1  0
 10 11  1  0
 11 12  1  0
 12 13  1  0
 13 14  1  0
 14 15  2  0
 15 16  1  0
 16 17  2  0
 17 18  1  0
 18 19  2  0
 15 20  1  0
  1 21  1  0
 21 22  2  0
 21 23  1  0
 23 24  2  0
 24 25  1  0
 25 26  2  0
 26 27  1  0
 27 28  2  0
 28 29  1  0
 29 30  2  0
 30  1  1  0
  2  7  1  0
 12 20  2  0
 14 19  1  0
 28 23  1  0
  3 31  1  0
  4 32  1  0
  6 33  1  0
  7 34  1  0
 10 35  1  0
 11 36  1  0
 11 37  1  0
 13 38  1  0
 16 39  1  0
 17 40  1  0
 18 41  1  0
 19 42  1  0
 24 43  1  0
 25 44  1  0
 26 45  1  0
 27 46  1  0
A    1
 N1 
A    2
 C1 
A    3
 C2 
A    4
 C3 
A    5
 C4 
A    6
 C5 
A    7
 C6 
A    8
 C7 
A    9
 O1 
A   10
 N2 
A   11
 C8 
A   12
 C9 
A   13
 N3 
A   14
 C10
A   15
 C11
A   16
 C12
A   17
 C13
A   18
 C14
A   19
 C15
A   20
 N4 
A   21
 C16
A   22
 O2 
A   23
 C17
A   24
 C18
A   25
 C19
A   26
 C20
A   27
 C21
A   28
 C22
A   29
 N5 
A   30
 N6 
A   31
 H1 
A   32
 H2 
A   33
 H3 
A   34
 H4 
A   35
 H5 
A   36
 H6 
A   37
 H7 
A   38
 H8 
A   39
 H9 
A   40
 H10
A   41
 H11
A   42
 H12
A   43
 H13
A   44
 H14
A   45
 H15
A   46
 H16
M  END
>  <ref_pdb>  (427) 
x0051_0B

>  <ref_mols>  (427) 
x0727_0B,x0846_1B

>  <original SMILES>  (427) 
[H]c1c([H])c(-n2nnc3c([H])c([H])c([H])c([H])c3c2=O)c([H])c([H])c1C(=O)N([H])C([H])([H])c1nc2c([H])c([H])c([H])c([H])c2n1[H]

>  <index>  (427) 
435

>  <∆∆G>  (427) 
-8.285779

>  <∆G_bound>  (427) 
-7.040855

>  <∆G_unbound>  (427) 
1.244924

>  <comRMSD>  (427) 
0.910282

>  <N_constrained_atoms>  (427) 
28.0

>  <N_unconstrained_atoms>  (427) 
2.0

>  <runtime>  (427) 
54.913617

>  <LE>  (427) 
0.276193

>  <percent_hybrid>  (427) 
40.0

>  <dist>  (427) 
11.0

>  <ecfp4>  (427) 
0.197802

>  <daylight>  (427) 
0.276224

>  <topodist>  (427) 
8.0

>  <mces>  (427) 
31.0

>  <tdn>  (427) 
3.0

>  <tup>  (427) 
2.0

>  <rdn>  (427) 
0.0

>  <rup>  (427) 
0.0

>  <ldn>  (427) 
2.0

>  <lup>  (427) 
1.0

>  <mut>  (427) 
2.0

>  <maj>  (427) 
2.0

>  <min>  (427) 
0.0

>  <hyb>  (427) 
1.0

>  <sub>  (427) 
2.0

>  <query_index>  (427) 
15.0

>  <max_hit_Tanimoto>  (427) 
0.25791

>  <largest_ring>  (427) 
6

>  <N_interactions_kept>  (427) 
0.5

>  <N_interactions_lost>  (427) 
2.5

>  <interaction_uniqueness_metric>  (427) 
0.236295

>  <ad_hoc_penalty>  (427) 
-18.831036

>  <N_rotatable_bonds>  (427) 
4

>  <N_HA>  (427) 
30

>  <cluster>  (427) 
5823

>  <N_interactions>  (427) 
6

>  <Enamine>  (427) 
0

>  <Mcule>  (427) 
1

>  <N_PAINS>  (427) 
0

>  <UFF_Gibbs>  (427) 
258.303554

>  <strain_per_HA>  (427) 
8.610118

>  <saltbridge:HIS:51>  (427) 
0

>  <pistack:HIS:51>  (427) 
0

>  <hydroph_interaction:HIS:51>  (427) 
0

>  <hbond:ALA:132>  (427) 
0

>  <hbond:SER:135>  (427) 
0

>  <hydroph_interaction:TYR:150>  (427) 
1

>  <pistack:TYR:161>  (427) 
1

>  <hydroph_interaction:TYR:161>  (427) 
0

>  <hydroph_interaction:ASP:83>  (427) 
0

>  <hbond:TYR:130>  (427) 
0

>  <hydroph_interaction:ALA:132>  (427) 
1

>  <hbond:HIS:51>  (427) 
0

>  <hbond:ASP:129>  (427) 
0

>  <hbond:TYR:150>  (427) 
1

>  <hbond:GLY:151>  (427) 
0

>  <hbond:TYR:161>  (427) 
0

>  <hydroph_interaction:TYR:130>  (427) 
1

>  <hydroph_interaction:PRO:131>  (427) 
1

>  <hydroph_interaction:ASP:129>  (427) 
0

>  <saltbridge:ASP:75>  (427) 
0

>  <saltbridge:ASP:83>  (427) 
0

>  <hydroph_interaction:ASN:152>  (427) 
0

>  <halogenbond:TYR:150>  (427) 
0

>  <hbond:ASP:83>  (427) 
0

>  <hydroph_interaction:VAL:155>  (427) 
0

>  <pication:TYR:161>  (427) 
0

>  <hbond:PRO:131>  (427) 
0

>  <hbond:LEU:128>  (427) 
0

>  <saltbridge:ASP:129>  (427) 
0

>  <hbond:THR:134>  (427) 
0

>  <pication:HIS:51>  (427) 
0

>  <hbond:SER:81>  (427) 
0

>  <hbond:GLY:159>  (427) 
0

>  <hydroph_interaction:PRO:101>  (427) 
0

>  <hydroph_interaction:THR:134>  (427) 
0

>  <hbond:GLY:82>  (427) 
0

>  <hydroph_interaction:GLU:104>  (427) 
0

>  <hydroph_interaction:VAL:36>  (427) 
0

>  <hydroph_interaction:MET:49>  (427) 
0

>  <halogenbond:GLU:104>  (427) 
0

>  <hydroph_interaction:LYS:107>  (427) 
0

$$$$
MCULE-8509991255
     RDKit          3D

 48 51  0  0  0  0  0  0  0  0999 V2000
   -5.2361    5.4044  -21.7948 C   0  0  0  0  0  0  0  0  0  0  0  0
   -5.1021    4.4483  -22.6038 O   0  0  0  0  0  0  0  0  0  0  0  0
   -5.9029    6.6498  -22.2421 C   0  0  0  0  0  0  0  0  0  0  0  0
   -6.8817    6.6069  -23.2491 C   0  0  0  0  0  0  0  0  0  0  0  0
   -7.5097    7.7806  -23.6748 C   0  0  0  0  0  0  0  0  0  0  0  0
   -7.1632    9.0166  -23.1073 C   0  0  0  0  0  0  0  0  0  0  0  0
   -6.1676    9.0652  -22.1211 C   0  0  0  0  0  0  0  0  0  0  0  0
   -5.5456    7.8915  -21.6887 C   0  0  0  0  0  0  0  0  0  0  0  0
   -7.7842   10.2870  -23.6185 C   0  0  0  0  0  0  0  0  0  0  0  0
   -7.0238   10.7822  -24.7643 N   0  0  0  0  0  0  0  0  0  0  0  0
   -7.1702   10.2362  -26.0816 C   0  0  0  0  0  0  0  0  0  0  0  0
   -6.1938   10.2797  -26.8779 O   0  0  0  0  0  0  0  0  0  0  0  0
   -8.4212    9.6764  -26.5098 N   0  0  0  0  0  0  0  0  0  0  0  0
   -8.5359    8.6849  -27.5431 C   0  0  0  0  0  0  0  0  0  0  0  0
   -7.5147    7.7439  -27.7715 C   0  0  0  0  0  0  0  0  0  0  0  0
   -7.6614    6.7723  -28.7662 C   0  0  0  0  0  0  0  0  0  0  0  0
   -8.8276    6.7258  -29.5342 C   0  0  0  0  0  0  0  0  0  0  0  0
   -9.8540    7.6439  -29.3002 C   0  0  0  0  0  0  0  0  0  0  0  0
   -9.7126    8.6150  -28.3046 C   0  0  0  0  0  0  0  0  0  0  0  0
   -4.6912    5.2740  -20.4731 N   0  0  0  0  0  0  0  0  0  0  0  0
   -5.3387    5.7557  -19.2819 C   0  0  0  0  0  0  0  0  0  0  0  0
   -4.5617    5.9934  -18.1183 C   0  0  0  0  0  0  0  0  0  0  0  0
   -5.1622    6.4512  -16.9296 C   0  0  0  0  0  0  0  0  0  0  0  0
   -6.5395    6.6485  -16.9347 C   0  0  0  0  0  0  0  0  0  0  0  0
   -7.2936    6.4087  -18.0415 C   0  0  0  0  0  0  0  0  0  0  0  0
   -8.5791    6.6567  -17.7615 N   0  0  0  0  0  0  0  0  0  0  0  0
   -8.5624    7.0505  -16.4652 C   0  0  0  0  0  0  0  0  0  0  0  0
   -7.3183    7.0572  -15.9165 N   0  0  0  0  0  0  0  0  0  0  0  0
   -6.7411    5.9551  -19.2359 C   0  0  0  0  0  0  0  0  0  0  0  0
   -7.1674    5.6645  -23.7013 H   0  0  0  0  0  0  0  0  0  0  0  0
   -8.2600    7.7252  -24.4542 H   0  0  0  0  0  0  0  0  0  0  0  0
   -5.8637   10.0133  -21.6958 H   0  0  0  0  0  0  0  0  0  0  0  0
   -4.7695    7.9584  -20.9378 H   0  0  0  0  0  0  0  0  0  0  0  0
   -8.8474   10.1182  -23.8869 H   0  0  0  0  0  0  0  0  0  0  0  0
   -7.7820   11.0607  -22.8201 H   0  0  0  0  0  0  0  0  0  0  0  0
   -6.1662   11.3470  -24.5644 H   0  0  0  0  0  0  0  0  0  0  0  0
   -9.2998   10.0712  -26.1058 H   0  0  0  0  0  0  0  0  0  0  0  0
   -6.6185    7.7435  -27.1666 H   0  0  0  0  0  0  0  0  0  0  0  0
   -6.8740    6.0509  -28.9379 H   0  0  0  0  0  0  0  0  0  0  0  0
   -8.9420    5.9703  -30.3021 H   0  0  0  0  0  0  0  0  0  0  0  0
  -10.7621    7.6008  -29.8874 H   0  0  0  0  0  0  0  0  0  0  0  0
  -10.5175    9.3171  -28.1299 H   0  0  0  0  0  0  0  0  0  0  0  0
   -3.7950    4.7460  -20.3692 H   0  0  0  0  0  0  0  0  0  0  0  0
   -3.4910    5.8313  -18.1403 H   0  0  0  0  0  0  0  0  0  0  0  0
   -4.5724    6.6366  -16.0408 H   0  0  0  0  0  0  0  0  0  0  0  0
   -9.4060    6.5661  -18.3928 H   0  0  0  0  0  0  0  0  0  0  0  0
   -9.4528    7.3306  -15.9172 H   0  0  0  0  0  0  0  0  0  0  0  0
   -7.3777    5.7477  -20.0858 H   0  0  0  0  0  0  0  0  0  0  0  0
  1  2  2  0
  1  3  1  0
  3  4  2  0
  4  5  1  0
  5  6  2  0
  6  7  1  0
  7  8  2  0
  6  9  1  0
  9 10  1  0
 10 11  1  0
 11 12  2  0
 11 13  1  0
 13 14  1  0
 14 15  2  0
 15 16  1  0
 16 17  2  0
 17 18  1  0
 18 19  2  0
  1 20  1  0
 20 21  1  0
 21 22  2  0
 22 23  1  0
 23 24  2  0
 24 25  1  0
 25 26  1  0
 26 27  1  0
 27 28  2  0
 25 29  2  0
  3  8  1  0
 14 19  1  0
 29 21  1  0
 28 24  1  0
  4 30  1  0
  5 31  1  0
  7 32  1  0
  8 33  1  0
  9 34  1  0
  9 35  1  0
 10 36  1  0
 13 37  1  0
 15 38  1  0
 16 39  1  0
 17 40  1  0
 18 41  1  0
 19 42  1  0
 20 43  1  0
 22 44  1  0
 23 45  1  0
 26 46  1  0
 27 47  1  0
 29 48  1  0
A    1
 C1 
A    2
 O1 
A    3
 C2 
A    4
 C3 
A    5
 C4 
A    6
 C5 
A    7
 C6 
A    8
 C7 
A    9
 C8 
A   10
 N1 
A   11
 C9 
A   12
 O2 
A   13
 N2 
A   14
 C10
A   15
 C11
A   16
 C12
A   17
 C13
A   18
 C14
A   19
 C15
A   20
 N3 
A   21
 C16
A   22
 C17
A   23
 C18
A   24
 C19
A   25
 C20
A   26
 N4 
A   27
 C21
A   28
 N5 
A   29
 C22
A   30
 H1 
A   31
 H2 
A   32
 H3 
A   33
 H4 
A   34
 H5 
A   35
 H6 
A   36
 H7 
A   37
 H8 
A   38
 H9 
A   39
 H10
A   40
 H11
A   41
 H12
A   42
 H13
A   43
 H14
A   44
 H15
A   45
 H16
A   46
 H17
A   47
 H18
A   48
 H19
M  END
>  <ref_pdb>  (428) 
x0051_0B

>  <ref_mols>  (428) 
x0051_0B,x0846_1B

>  <original SMILES>  (428) 
[H]c1c([H])c([H])c(N([H])C(=O)N([H])C([H])([H])c2c([H])c([H])c(C(=O)N([H])c3c([H])c([H])c4nc([H])n([H])c4c3[H])c([H])c2[H])c([H])c1[H]

>  <index>  (428) 
775

>  <∆∆G>  (428) 
-7.710634

>  <∆G_bound>  (428) 
-7.090665

>  <∆G_unbound>  (428) 
0.619969

>  <comRMSD>  (428) 
0.618041

>  <N_constrained_atoms>  (428) 
30.0

>  <N_unconstrained_atoms>  (428) 
1.0

>  <runtime>  (428) 
59.443847

>  <LE>  (428) 
0.24873

>  <percent_hybrid>  (428) 
40.0

>  <dist>  (428) 
11.0

>  <ecfp4>  (428) 
0.168421

>  <daylight>  (428) 
0.259843

>  <topodist>  (428) 
6.0

>  <mces>  (428) 
31.0

>  <tdn>  (428) 
2.0

>  <tup>  (428) 
1.0

>  <rdn>  (428) 
1.0

>  <rup>  (428) 
0.0

>  <ldn>  (428) 
2.0

>  <lup>  (428) 
0.0

>  <mut>  (428) 
3.0

>  <maj>  (428) 
3.0

>  <min>  (428) 
0.0

>  <hyb>  (428) 
2.0

>  <sub>  (428) 
3.0

>  <query_index>  (428) 
185.0

>  <max_hit_Tanimoto>  (428) 
0.323684

>  <largest_ring>  (428) 
6

>  <N_interactions_kept>  (428) 
1.0

>  <N_interactions_lost>  (428) 
2.5

>  <interaction_uniqueness_metric>  (428) 
0.172098

>  <ad_hoc_penalty>  (428) 
-18.819437

>  <N_rotatable_bonds>  (428) 
5

>  <N_HA>  (428) 
29

>  <cluster>  (428) 
5508

>  <N_interactions>  (428) 
6

>  <Enamine>  (428) 
0

>  <Mcule>  (428) 
1

>  <N_PAINS>  (428) 
0

>  <UFF_Gibbs>  (428) 
110.92119

>  <strain_per_HA>  (428) 
3.578103

>  <saltbridge:HIS:51>  (428) 
0

>  <pistack:HIS:51>  (428) 
0

>  <hydroph_interaction:HIS:51>  (428) 
0

>  <hbond:ALA:132>  (428) 
0

>  <hbond:SER:135>  (428) 
0

>  <hydroph_interaction:TYR:150>  (428) 
0

>  <pistack:TYR:161>  (428) 
2

>  <hydroph_interaction:TYR:161>  (428) 
1

>  <hydroph_interaction:ASP:83>  (428) 
0

>  <hbond:TYR:130>  (428) 
0

>  <hydroph_interaction:ALA:132>  (428) 
0

>  <hbond:HIS:51>  (428) 
0

>  <hbond:ASP:129>  (428) 
1

>  <hbond:TYR:150>  (428) 
0

>  <hbond:GLY:151>  (428) 
0

>  <hbond:TYR:161>  (428) 
0

>  <hydroph_interaction:TYR:130>  (428) 
1

>  <hydroph_interaction:PRO:131>  (428) 
1

>  <hydroph_interaction:ASP:129>  (428) 
0

>  <saltbridge:ASP:75>  (428) 
0

>  <saltbridge:ASP:83>  (428) 
0

>  <hydroph_interaction:ASN:152>  (428) 
0

>  <halogenbond:TYR:150>  (428) 
0

>  <hbond:ASP:83>  (428) 
0

>  <hydroph_interaction:VAL:155>  (428) 
0

>  <pication:TYR:161>  (428) 
0

>  <hbond:PRO:131>  (428) 
0

>  <hbond:LEU:128>  (428) 
0

>  <saltbridge:ASP:129>  (428) 
0

>  <hbond:THR:134>  (428) 
0

>  <pication:HIS:51>  (428) 
0

>  <hbond:SER:81>  (428) 
0

>  <hbond:GLY:159>  (428) 
0

>  <hydroph_interaction:PRO:101>  (428) 
0

>  <hydroph_interaction:THR:134>  (428) 
0

>  <hbond:GLY:82>  (428) 
0

>  <hydroph_interaction:GLU:104>  (428) 
0

>  <hydroph_interaction:VAL:36>  (428) 
0

>  <hydroph_interaction:MET:49>  (428) 
0

>  <halogenbond:GLU:104>  (428) 
0

>  <hydroph_interaction:LYS:107>  (428) 
0

$$$$
MCULE-1397610408
     RDKit          3D

 21 22  0  0  0  0  0  0  0  0999 V2000
   -7.8944    5.0629  -18.1041 N   0  0  0  0  0  0  0  0  0  0  0  0
   -8.4447    5.6228  -17.0088 C   0  0  0  0  0  0  0  0  0  0  0  0
   -9.7648    5.2351  -16.9396 C   0  0  0  0  0  0  0  0  0  0  0  0
   -9.9567    4.4400  -18.0527 C   0  0  0  0  0  0  0  0  0  0  0  0
   -8.8088    4.3587  -18.7527 N   0  0  0  0  0  0  0  0  0  0  0  0
   -6.5594    5.2733  -18.5922 C   0  0  0  0  0  0  0  0  0  0  0  0
   -6.3803    5.6435  -19.9323 C   0  0  0  0  0  0  0  0  0  0  0  0
   -5.1400    5.9063  -20.4153 N   0  0  0  0  0  0  0  0  0  0  0  0
   -4.0358    5.8174  -19.6327 C   0  0  0  0  0  0  0  0  0  0  0  0
   -4.1475    5.4302  -18.2952 C   0  0  0  0  0  0  0  0  0  0  0  0
   -2.6786    5.3529  -17.3257 Cl  0  0  0  0  0  0  0  0  0  0  0  0
   -5.4187    5.1185  -17.7649 C   0  0  0  0  0  0  0  0  0  0  0  0
   -5.5470    4.6350  -16.3410 C   0  0  0  0  0  0  0  0  0  0  0  0
   -7.9354    6.2880  -16.3238 H   0  0  0  0  0  0  0  0  0  0  0  0
  -10.4952    5.5100  -16.1906 H   0  0  0  0  0  0  0  0  0  0  0  0
  -10.8822    3.9610  -18.3422 H   0  0  0  0  0  0  0  0  0  0  0  0
   -7.2352    5.7481  -20.5877 H   0  0  0  0  0  0  0  0  0  0  0  0
   -3.0662    6.0477  -20.0543 H   0  0  0  0  0  0  0  0  0  0  0  0
   -6.4347    3.9815  -16.2154 H   0  0  0  0  0  0  0  0  0  0  0  0
   -5.6254    5.5050  -15.6565 H   0  0  0  0  0  0  0  0  0  0  0  0
   -4.6718    4.0202  -16.0464 H   0  0  0  0  0  0  0  0  0  0  0  0
  1  2  1  0
  2  3  2  0
  3  4  1  0
  4  5  2  0
  1  6  1  0
  6  7  2  0
  7  8  1  0
  8  9  2  0
  9 10  1  0
 10 11  1  0
 10 12  2  0
 12 13  1  0
  5  1  1  0
 12  6  1  0
  2 14  1  0
  3 15  1  0
  4 16  1  0
  7 17  1  0
  9 18  1  0
 13 19  1  0
 13 20  1  0
 13 21  1  0
A    1
 N1 
A    2
 C1 
A    3
 C2 
A    4
 C3 
A    5
 N2 
A    6
 C4 
A    7
 C5 
A    8
 N3 
A    9
 C6 
A   10
 C7 
A   11
CL1 
A   12
 C8 
A   13
 C9 
A   14
 H1 
A   15
 H2 
A   16
 H3 
A   17
 H4 
A   18
 H5 
A   19
 H6 
A   20
 H7 
A   21
 H8 
M  END
>  <ref_pdb>  (429) 
x0051_0B

>  <ref_mols>  (429) 
x0680_0B,x0386_0B

>  <original SMILES>  (429) 
[H]c1nn(-c2c([H])nc([H])c(Cl)c2C([H])([H])[H])c([H])c1[H]

>  <index>  (429) 
481

>  <∆∆G>  (429) 
-5.927024

>  <∆G_bound>  (429) 
-6.029663

>  <∆G_unbound>  (429) 
-0.102639

>  <comRMSD>  (429) 
0.559883

>  <N_constrained_atoms>  (429) 
13.0

>  <N_unconstrained_atoms>  (429) 
1.0

>  <runtime>  (429) 
21.29222

>  <LE>  (429) 
0.423359

>  <percent_hybrid>  (429) 
25.0

>  <dist>  (429) 
3.0

>  <ecfp4>  (429) 
0.160714

>  <daylight>  (429) 
0.184211

>  <topodist>  (429) 
1.0

>  <mces>  (429) 
13.0

>  <tdn>  (429) 
0.0

>  <tup>  (429) 
1.0

>  <rdn>  (429) 
0.0

>  <rup>  (429) 
0.0

>  <ldn>  (429) 
0.0

>  <lup>  (429) 
0.0

>  <mut>  (429) 
2.0

>  <maj>  (429) 
2.0

>  <min>  (429) 
0.0

>  <hyb>  (429) 
0.0

>  <sub>  (429) 
1.0

>  <query_index>  (429) 
296.0

>  <max_hit_Tanimoto>  (429) 
0.146184

>  <largest_ring>  (429) 
6

>  <N_interactions_kept>  (429) 
3.5

>  <N_interactions_lost>  (429) 
0.5

>  <interaction_uniqueness_metric>  (429) 
0.016266

>  <ad_hoc_penalty>  (429) 
-18.787134

>  <N_rotatable_bonds>  (429) 
2

>  <N_HA>  (429) 
13

>  <cluster>  (429) 
5780

>  <N_interactions>  (429) 
3

>  <Enamine>  (429) 
0

>  <Mcule>  (429) 
1

>  <N_PAINS>  (429) 
0

>  <UFF_Gibbs>  (429) 
77.916095

>  <strain_per_HA>  (429) 
5.565435

>  <saltbridge:HIS:51>  (429) 
0

>  <pistack:HIS:51>  (429) 
0

>  <hydroph_interaction:HIS:51>  (429) 
0

>  <hbond:ALA:132>  (429) 
0

>  <hbond:SER:135>  (429) 
0

>  <hydroph_interaction:TYR:150>  (429) 
0

>  <pistack:TYR:161>  (429) 
0

>  <hydroph_interaction:TYR:161>  (429) 
3

>  <hydroph_interaction:ASP:83>  (429) 
0

>  <hbond:TYR:130>  (429) 
0

>  <hydroph_interaction:ALA:132>  (429) 
0

>  <hbond:HIS:51>  (429) 
0

>  <hbond:ASP:129>  (429) 
0

>  <hbond:TYR:150>  (429) 
0

>  <hbond:GLY:151>  (429) 
0

>  <hbond:TYR:161>  (429) 
0

>  <hydroph_interaction:TYR:130>  (429) 
0

>  <hydroph_interaction:PRO:131>  (429) 
0

>  <hydroph_interaction:ASP:129>  (429) 
0

>  <saltbridge:ASP:75>  (429) 
0

>  <saltbridge:ASP:83>  (429) 
0

>  <hydroph_interaction:ASN:152>  (429) 
0

>  <halogenbond:TYR:150>  (429) 
0

>  <hbond:ASP:83>  (429) 
0

>  <hydroph_interaction:VAL:155>  (429) 
0

>  <pication:TYR:161>  (429) 
0

>  <hbond:PRO:131>  (429) 
0

>  <hbond:LEU:128>  (429) 
0

>  <saltbridge:ASP:129>  (429) 
0

>  <hbond:THR:134>  (429) 
0

>  <pication:HIS:51>  (429) 
0

>  <hbond:SER:81>  (429) 
0

>  <hbond:GLY:159>  (429) 
0

>  <hydroph_interaction:PRO:101>  (429) 
0

>  <hydroph_interaction:THR:134>  (429) 
0

>  <hbond:GLY:82>  (429) 
0

>  <hydroph_interaction:GLU:104>  (429) 
0

>  <hydroph_interaction:VAL:36>  (429) 
0

>  <hydroph_interaction:MET:49>  (429) 
0

>  <halogenbond:GLU:104>  (429) 
0

>  <hydroph_interaction:LYS:107>  (429) 
0

$$$$
MCULE-9445158135
     RDKit          3D

 41 43  0  0  0  0  0  0  0  0999 V2000
   -3.2977    6.0210  -20.8143 C   0  0  0  0  0  0  0  0  0  0  0  0
   -4.8016    6.2699  -21.0580 C   0  0  0  0  0  0  0  0  0  0  0  0
   -5.2289    5.4879  -22.3186 C   0  0  0  0  0  0  0  0  0  0  0  0
   -5.0401    7.7728  -21.2850 C   0  0  0  0  0  0  0  0  0  0  0  0
   -5.6143    5.8250  -19.8522 C   0  0  0  0  0  0  0  0  0  0  0  0
   -6.8937    5.3877  -20.0084 N   0  0  0  0  0  0  0  0  0  0  0  0
   -7.6584    5.0400  -18.9423 C   0  0  0  0  0  0  0  0  0  0  0  0
   -7.1354    5.1453  -17.6352 C   0  0  0  0  0  0  0  0  0  0  0  0
   -7.9392    4.7804  -16.5393 C   0  0  0  0  0  0  0  0  0  0  0  0
   -9.2430    4.3204  -16.7489 C   0  0  0  0  0  0  0  0  0  0  0  0
   -9.7549    4.2213  -18.0455 C   0  0  0  0  0  0  0  0  0  0  0  0
   -8.9653    4.5806  -19.1410 C   0  0  0  0  0  0  0  0  0  0  0  0
   -5.8188    5.6225  -17.4912 C   0  0  0  0  0  0  0  0  0  0  0  0
   -5.2090    5.7778  -16.2041 N   0  0  0  0  0  0  0  0  0  0  0  0
   -5.4576    6.9883  -15.4210 C   0  0  0  0  0  0  0  0  0  0  0  0
   -4.2412    7.2868  -14.5396 C   0  0  0  0  0  0  0  0  0  0  0  0
   -3.8680    6.1433  -13.7927 O   0  0  0  0  0  0  0  0  0  0  0  0
   -3.4215    5.1235  -14.6674 C   0  0  0  0  0  0  0  0  0  0  0  0
   -4.5650    4.6328  -15.5604 C   0  0  0  0  0  0  0  0  0  0  0  0
   -5.1035    5.9548  -18.5970 N   0  0  0  0  0  0  0  0  0  0  0  0
   -3.1112    4.9457  -20.6023 H   0  0  0  0  0  0  0  0  0  0  0  0
   -2.9287    6.6183  -19.9526 H   0  0  0  0  0  0  0  0  0  0  0  0
   -2.7016    6.3101  -21.7069 H   0  0  0  0  0  0  0  0  0  0  0  0
   -5.1056    4.3948  -22.1584 H   0  0  0  0  0  0  0  0  0  0  0  0
   -4.6111    5.7848  -23.1938 H   0  0  0  0  0  0  0  0  0  0  0  0
   -6.2926    5.6889  -22.5710 H   0  0  0  0  0  0  0  0  0  0  0  0
   -6.1174    7.9736  -21.4723 H   0  0  0  0  0  0  0  0  0  0  0  0
   -4.4595    8.1344  -22.1611 H   0  0  0  0  0  0  0  0  0  0  0  0
   -4.7272    8.3577  -20.3928 H   0  0  0  0  0  0  0  0  0  0  0  0
   -7.5710    4.8475  -15.5250 H   0  0  0  0  0  0  0  0  0  0  0  0
   -9.8586    4.0407  -15.9037 H   0  0  0  0  0  0  0  0  0  0  0  0
  -10.7651    3.8654  -18.2015 H   0  0  0  0  0  0  0  0  0  0  0  0
   -9.3699    4.5003  -20.1424 H   0  0  0  0  0  0  0  0  0  0  0  0
   -6.3516    6.8366  -14.7793 H   0  0  0  0  0  0  0  0  0  0  0  0
   -5.6445    7.8541  -16.0934 H   0  0  0  0  0  0  0  0  0  0  0  0
   -3.3928    7.6563  -15.1601 H   0  0  0  0  0  0  0  0  0  0  0  0
   -4.5051    8.1009  -13.8322 H   0  0  0  0  0  0  0  0  0  0  0  0
   -3.0541    4.2708  -14.0585 H   0  0  0  0  0  0  0  0  0  0  0  0
   -2.5655    5.4731  -15.2890 H   0  0  0  0  0  0  0  0  0  0  0  0
   -5.3106    4.0887  -14.9422 H   0  0  0  0  0  0  0  0  0  0  0  0
   -4.1593    3.9349  -16.3252 H   0  0  0  0  0  0  0  0  0  0  0  0
  1  2  1  0
  2  3  1  0
  2  4  1  0
  2  5  1  0
  5  6  2  0
  6  7  1  0
  7  8  2  0
  8  9  1  0
  9 10  2  0
 10 11  1  0
 11 12  2  0
  8 13  1  0
 13 14  1  0
 14 15  1  0
 15 16  1  0
 16 17  1  0
 17 18  1  0
 18 19  1  0
 13 20  2  0
  5 20  1  0
 12  7  1  0
 19 14  1  0
  1 21  1  0
  1 22  1  0
  1 23  1  0
  3 24  1  0
  3 25  1  0
  3 26  1  0
  4 27  1  0
  4 28  1  0
  4 29  1  0
  9 30  1  0
 10 31  1  0
 11 32  1  0
 12 33  1  0
 15 34  1  0
 15 35  1  0
 16 36  1  0
 16 37  1  0
 18 38  1  0
 18 39  1  0
 19 40  1  0
 19 41  1  0
A    1
 C1 
A    2
 C2 
A    3
 C3 
A    4
 C4 
A    5
 C5 
A    6
 N1 
A    7
 C6 
A    8
 C7 
A    9
 C8 
A   10
 C9 
A   11
 C10
A   12
 C11
A   13
 C12
A   14
 N2 
A   15
 C13
A   16
 C14
A   17
 O1 
A   18
 C15
A   19
 C16
A   20
 N3 
A   21
 H1 
A   22
 H2 
A   23
 H3 
A   24
 H4 
A   25
 H5 
A   26
 H6 
A   27
 H7 
A   28
 H8 
A   29
 H9 
A   30
 H10
A   31
 H11
A   32
 H12
A   33
 H13
A   34
 H14
A   35
 H15
A   36
 H16
A   37
 H17
A   38
 H18
A   39
 H19
A   40
 H20
A   41
 H21
M  END
>  <ref_pdb>  (430) 
x0051_0B

>  <ref_mols>  (430) 
x0101_0B,x0429_0B

>  <original SMILES>  (430) 
[H]c1c([H])c([H])c2c(N3C([H])([H])C([H])([H])OC([H])([H])C3([H])[H])nc(C(C([H])([H])[H])(C([H])([H])[H])C([H])([H])[H])nc2c1[H]

>  <index>  (430) 
752

>  <∆∆G>  (430) 
-7.7016

>  <∆G_bound>  (430) 
-7.542088

>  <∆G_unbound>  (430) 
0.159512

>  <comRMSD>  (430) 
0.452941

>  <N_constrained_atoms>  (430) 
23.0

>  <N_unconstrained_atoms>  (430) 
0.0

>  <runtime>  (430) 
30.180411

>  <LE>  (430) 
0.334852

>  <percent_hybrid>  (430) 
47.0

>  <dist>  (430) 
4.0

>  <ecfp4>  (430) 
0.227273

>  <daylight>  (430) 
0.384615

>  <topodist>  (430) 
2.0

>  <mces>  (430) 
22.0

>  <tdn>  (430) 
2.0

>  <tup>  (430) 
0.0

>  <rdn>  (430) 
0.0

>  <rup>  (430) 
0.0

>  <ldn>  (430) 
0.0

>  <lup>  (430) 
0.0

>  <mut>  (430) 
2.0

>  <maj>  (430) 
2.0

>  <min>  (430) 
0.0

>  <hyb>  (430) 
0.0

>  <sub>  (430) 
2.0

>  <query_index>  (430) 
278.0

>  <max_hit_Tanimoto>  (430) 
0.360885

>  <largest_ring>  (430) 
6

>  <N_interactions_kept>  (430) 
1.0

>  <N_interactions_lost>  (430) 
3.0

>  <interaction_uniqueness_metric>  (430) 
0.078619

>  <ad_hoc_penalty>  (430) 
-18.777401

>  <N_rotatable_bonds>  (430) 
1

>  <N_HA>  (430) 
20

>  <cluster>  (430) 
5530

>  <N_interactions>  (430) 
5

>  <Enamine>  (430) 
0

>  <Mcule>  (430) 
1

>  <N_PAINS>  (430) 
0

>  <UFF_Gibbs>  (430) 
65.795168

>  <strain_per_HA>  (430) 
2.860659

>  <saltbridge:HIS:51>  (430) 
0

>  <pistack:HIS:51>  (430) 
0

>  <hydroph_interaction:HIS:51>  (430) 
0

>  <hbond:ALA:132>  (430) 
0

>  <hbond:SER:135>  (430) 
0

>  <hydroph_interaction:TYR:150>  (430) 
1

>  <pistack:TYR:161>  (430) 
1

>  <hydroph_interaction:TYR:161>  (430) 
2

>  <hydroph_interaction:ASP:83>  (430) 
0

>  <hbond:TYR:130>  (430) 
0

>  <hydroph_interaction:ALA:132>  (430) 
0

>  <hbond:HIS:51>  (430) 
0

>  <hbond:ASP:129>  (430) 
0

>  <hbond:TYR:150>  (430) 
0

>  <hbond:GLY:151>  (430) 
0

>  <hbond:TYR:161>  (430) 
0

>  <hydroph_interaction:TYR:130>  (430) 
0

>  <hydroph_interaction:PRO:131>  (430) 
0

>  <hydroph_interaction:ASP:129>  (430) 
1

>  <saltbridge:ASP:75>  (430) 
0

>  <saltbridge:ASP:83>  (430) 
0

>  <hydroph_interaction:ASN:152>  (430) 
0

>  <halogenbond:TYR:150>  (430) 
0

>  <hbond:ASP:83>  (430) 
0

>  <hydroph_interaction:VAL:155>  (430) 
0

>  <pication:TYR:161>  (430) 
0

>  <hbond:PRO:131>  (430) 
0

>  <hbond:LEU:128>  (430) 
0

>  <saltbridge:ASP:129>  (430) 
0

>  <hbond:THR:134>  (430) 
0

>  <pication:HIS:51>  (430) 
0

>  <hbond:SER:81>  (430) 
0

>  <hbond:GLY:159>  (430) 
0

>  <hydroph_interaction:PRO:101>  (430) 
0

>  <hydroph_interaction:THR:134>  (430) 
0

>  <hbond:GLY:82>  (430) 
0

>  <hydroph_interaction:GLU:104>  (430) 
0

>  <hydroph_interaction:VAL:36>  (430) 
0

>  <hydroph_interaction:MET:49>  (430) 
0

>  <halogenbond:GLU:104>  (430) 
0

>  <hydroph_interaction:LYS:107>  (430) 
0

$$$$
MCULE-3387017402
     RDKit          3D

 47 49  0  0  0  0  0  0  0  0999 V2000
   -6.4041    9.3861  -26.2020 C   0  0  0  0  0  0  0  0  0  0  0  0
   -5.0947    9.7550  -25.5737 C   0  0  0  0  0  0  0  0  0  0  0  0
   -5.2481    9.8844  -24.1601 O   0  0  0  0  0  0  0  0  0  0  0  0
   -5.5560    8.8316  -23.2817 C   0  0  0  0  0  0  0  0  0  0  0  0
   -5.5278    7.4798  -23.6770 C   0  0  0  0  0  0  0  0  0  0  0  0
   -5.8726    6.4728  -22.7712 C   0  0  0  0  0  0  0  0  0  0  0  0
   -6.2562    6.7947  -21.4655 C   0  0  0  0  0  0  0  0  0  0  0  0
   -6.2481    8.1403  -21.0581 C   0  0  0  0  0  0  0  0  0  0  0  0
   -5.9033    9.1480  -21.9633 C   0  0  0  0  0  0  0  0  0  0  0  0
   -6.5951    5.7557  -20.5871 O   0  0  0  0  0  0  0  0  0  0  0  0
   -7.5371    5.8417  -19.5508 C   0  0  0  0  0  0  0  0  0  0  0  0
   -7.3829    5.0122  -18.4347 C   0  0  0  0  0  0  0  0  0  0  0  0
   -8.3197    5.0378  -17.3908 C   0  0  0  0  0  0  0  0  0  0  0  0
   -8.1275    4.1690  -16.1830 C   0  0  0  0  0  0  0  0  0  0  0  0
   -9.4054    5.9238  -17.4574 C   0  0  0  0  0  0  0  0  0  0  0  0
   -9.5732    6.7593  -18.5718 C   0  0  0  0  0  0  0  0  0  0  0  0
  -10.7721    7.6558  -18.6711 C   0  0  0  0  0  0  0  0  0  0  0  0
   -8.6515    6.6967  -19.6272 C   0  0  0  0  0  0  0  0  0  0  0  0
   -7.3758   10.1851  -26.1217 O   0  0  0  0  0  0  0  0  0  0  0  0
   -6.5510    8.1316  -26.8823 N   0  0  0  0  0  0  0  0  0  0  0  0
   -7.7894    7.4045  -26.9533 C   0  0  0  0  0  0  0  0  0  0  0  0
   -8.7787    7.5403  -25.9603 C   0  0  0  0  0  0  0  0  0  0  0  0
   -9.9605    6.7972  -26.0355 C   0  0  0  0  0  0  0  0  0  0  0  0
  -10.1608    5.9022  -27.0906 C   0  0  0  0  0  0  0  0  0  0  0  0
   -9.1738    5.7454  -28.0688 C   0  0  0  0  0  0  0  0  0  0  0  0
   -7.9915    6.4882  -27.9974 C   0  0  0  0  0  0  0  0  0  0  0  0
  -11.9416    4.7772  -27.1963 I   0  0  0  0  0  0  0  0  0  0  0  0
   -4.3055    9.0092  -25.8087 H   0  0  0  0  0  0  0  0  0  0  0  0
   -4.7644   10.7312  -25.9860 H   0  0  0  0  0  0  0  0  0  0  0  0
   -5.2367    7.1938  -24.6768 H   0  0  0  0  0  0  0  0  0  0  0  0
   -5.8514    5.4377  -23.0884 H   0  0  0  0  0  0  0  0  0  0  0  0
   -6.4965    8.4096  -20.0399 H   0  0  0  0  0  0  0  0  0  0  0  0
   -5.9129   10.1818  -21.6407 H   0  0  0  0  0  0  0  0  0  0  0  0
   -6.5298    4.3459  -18.3834 H   0  0  0  0  0  0  0  0  0  0  0  0
   -7.5922    3.2334  -16.4531 H   0  0  0  0  0  0  0  0  0  0  0  0
   -9.1076    3.8873  -15.7430 H   0  0  0  0  0  0  0  0  0  0  0  0
   -7.5336    4.7189  -15.4235 H   0  0  0  0  0  0  0  0  0  0  0  0
  -10.1241    5.9566  -16.6469 H   0  0  0  0  0  0  0  0  0  0  0  0
  -11.1248    7.9554  -17.6611 H   0  0  0  0  0  0  0  0  0  0  0  0
  -11.5907    7.1198  -19.1962 H   0  0  0  0  0  0  0  0  0  0  0  0
  -10.5228    8.5804  -19.2359 H   0  0  0  0  0  0  0  0  0  0  0  0
   -8.8130    7.3003  -20.5118 H   0  0  0  0  0  0  0  0  0  0  0  0
   -5.7042    7.7149  -27.3329 H   0  0  0  0  0  0  0  0  0  0  0  0
   -8.6299    8.1970  -25.1136 H   0  0  0  0  0  0  0  0  0  0  0  0
  -10.7161    6.9110  -25.2686 H   0  0  0  0  0  0  0  0  0  0  0  0
   -9.3206    5.0457  -28.8818 H   0  0  0  0  0  0  0  0  0  0  0  0
   -7.2338    6.3549  -28.7595 H   0  0  0  0  0  0  0  0  0  0  0  0
  1  2  1  0
  2  3  1  0
  3  4  1  0
  4  5  2  0
  5  6  1  0
  6  7  2  0
  7  8  1  0
  8  9  2  0
  7 10  1  0
 10 11  1  0
 11 12  2  0
 12 13  1  0
 13 14  1  0
 13 15  2  0
 15 16  1  0
 16 17  1  0
 16 18  2  0
  1 19  2  0
  1 20  1  0
 20 21  1  0
 21 22  2  0
 22 23  1  0
 23 24  2  0
 24 25  1  0
 25 26  2  0
 24 27  1  0
  4  9  1  0
 11 18  1  0
 26 21  1  0
  2 28  1  0
  2 29  1  0
  5 30  1  0
  6 31  1  0
  8 32  1  0
  9 33  1  0
 12 34  1  0
 14 35  1  0
 14 36  1  0
 14 37  1  0
 15 38  1  0
 17 39  1  0
 17 40  1  0
 17 41  1  0
 18 42  1  0
 20 43  1  0
 22 44  1  0
 23 45  1  0
 25 46  1  0
 26 47  1  0
A    1
 C1 
A    2
 C2 
A    3
 O1 
A    4
 C3 
A    5
 C4 
A    6
 C5 
A    7
 C6 
A    8
 C7 
A    9
 C8 
A   10
 O2 
A   11
 C9 
A   12
 C10
A   13
 C11
A   14
 C12
A   15
 C13
A   16
 C14
A   17
 C15
A   18
 C16
A   19
 O3 
A   20
 N1 
A   21
 C17
A   22
 C18
A   23
 C19
A   24
 C20
A   25
 C21
A   26
 C22
A   27
 I1 
A   28
 H1 
A   29
 H2 
A   30
 H3 
A   31
 H4 
A   32
 H5 
A   33
 H6 
A   34
 H7 
A   35
 H8 
A   36
 H9 
A   37
 H10
A   38
 H11
A   39
 H12
A   40
 H13
A   41
 H14
A   42
 H15
A   43
 H16
A   44
 H17
A   45
 H18
A   46
 H19
A   47
 H20
M  END
>  <ref_pdb>  (431) 
x0051_0B

>  <ref_mols>  (431) 
x0605_0B,x0846_1B

>  <original SMILES>  (431) 
[H]c1c([H])c(N([H])C(=O)C([H])([H])Oc2c([H])c([H])c(Oc3c([H])c(C([H])([H])[H])c([H])c(C([H])([H])[H])c3[H])c([H])c2[H])c([H])c([H])c1I

>  <index>  (431) 
962

>  <∆∆G>  (431) 
-11.217123

>  <∆G_bound>  (431) 
-11.292379

>  <∆G_unbound>  (431) 
-0.075256

>  <comRMSD>  (431) 
0.719047

>  <N_constrained_atoms>  (431) 
24.0

>  <N_unconstrained_atoms>  (431) 
5.0

>  <runtime>  (431) 
90.073237

>  <LE>  (431) 
0.386797

>  <percent_hybrid>  (431) 
38.0

>  <dist>  (431) 
9.0

>  <ecfp4>  (431) 
0.219512

>  <daylight>  (431) 
0.219388

>  <topodist>  (431) 
5.0

>  <mces>  (431) 
28.0

>  <tdn>  (431) 
2.0

>  <tup>  (431) 
1.0

>  <rdn>  (431) 
1.0

>  <rup>  (431) 
0.0

>  <ldn>  (431) 
1.0

>  <lup>  (431) 
0.0

>  <mut>  (431) 
3.0

>  <maj>  (431) 
3.0

>  <min>  (431) 
0.0

>  <hyb>  (431) 
1.0

>  <sub>  (431) 
3.0

>  <query_index>  (431) 
197.0

>  <max_hit_Tanimoto>  (431) 
0.214697

>  <largest_ring>  (431) 
6

>  <N_interactions_kept>  (431) 
0.0

>  <N_interactions_lost>  (431) 
2.5

>  <interaction_uniqueness_metric>  (431) 
0.179866

>  <ad_hoc_penalty>  (431) 
-18.743554

>  <N_rotatable_bonds>  (431) 
8

>  <N_HA>  (431) 
27

>  <cluster>  (431) 
5336

>  <N_interactions>  (431) 
6

>  <Enamine>  (431) 
0

>  <Mcule>  (431) 
1

>  <N_PAINS>  (431) 
0

>  <UFF_Gibbs>  (431) 
58.575092

>  <strain_per_HA>  (431) 
2.019831

>  <saltbridge:HIS:51>  (431) 
0

>  <pistack:HIS:51>  (431) 
0

>  <hydroph_interaction:HIS:51>  (431) 
0

>  <hbond:ALA:132>  (431) 
0

>  <hbond:SER:135>  (431) 
0

>  <hydroph_interaction:TYR:150>  (431) 
1

>  <pistack:TYR:161>  (431) 
1

>  <hydroph_interaction:TYR:161>  (431) 
1

>  <hydroph_interaction:ASP:83>  (431) 
0

>  <hbond:TYR:130>  (431) 
0

>  <hydroph_interaction:ALA:132>  (431) 
0

>  <hbond:HIS:51>  (431) 
0

>  <hbond:ASP:129>  (431) 
0

>  <hbond:TYR:150>  (431) 
0

>  <hbond:GLY:151>  (431) 
0

>  <hbond:TYR:161>  (431) 
0

>  <hydroph_interaction:TYR:130>  (431) 
1

>  <hydroph_interaction:PRO:131>  (431) 
1

>  <hydroph_interaction:ASP:129>  (431) 
1

>  <saltbridge:ASP:75>  (431) 
0

>  <saltbridge:ASP:83>  (431) 
0

>  <hydroph_interaction:ASN:152>  (431) 
0

>  <halogenbond:TYR:150>  (431) 
0

>  <hbond:ASP:83>  (431) 
0

>  <hydroph_interaction:VAL:155>  (431) 
0

>  <pication:TYR:161>  (431) 
0

>  <hbond:PRO:131>  (431) 
0

>  <hbond:LEU:128>  (431) 
0

>  <saltbridge:ASP:129>  (431) 
0

>  <hbond:THR:134>  (431) 
0

>  <pication:HIS:51>  (431) 
0

>  <hbond:SER:81>  (431) 
0

>  <hbond:GLY:159>  (431) 
0

>  <hydroph_interaction:PRO:101>  (431) 
0

>  <hydroph_interaction:THR:134>  (431) 
0

>  <hbond:GLY:82>  (431) 
0

>  <hydroph_interaction:GLU:104>  (431) 
0

>  <hydroph_interaction:VAL:36>  (431) 
0

>  <hydroph_interaction:MET:49>  (431) 
0

>  <halogenbond:GLU:104>  (431) 
0

>  <hydroph_interaction:LYS:107>  (431) 
0

$$$$
ZKNYEZMKJHBQOL-UHFFFAOYSA-N
     RDKit          3D

 48 51  0  0  0  0  0  0  0  0999 V2000
   -8.9022    6.0081  -14.2253 C   0  0  0  0  0  0  0  0  0  0  0  0
   -8.0685    5.4077  -15.2307 N   0  0  0  0  0  0  0  0  0  0  0  0
   -8.3204    5.5365  -16.6400 C   0  0  0  0  0  0  0  0  0  0  0  0
   -7.2657    5.6096  -17.5630 C   0  0  0  0  0  0  0  0  0  0  0  0
   -5.8111    5.6374  -17.3822 C   0  0  0  0  0  0  0  0  0  0  0  0
   -5.1557    5.7659  -18.6460 N   0  0  0  0  0  0  0  0  0  0  0  0
   -3.7627    5.4382  -18.9202 C   0  0  0  0  0  0  0  0  0  0  0  0
   -6.2169    5.7638  -19.6009 C   0  0  0  0  0  0  0  0  0  0  0  0
   -6.0471    5.7932  -20.8487 O   0  0  0  0  0  0  0  0  0  0  0  0
   -7.5041    5.6947  -18.9211 C   0  0  0  0  0  0  0  0  0  0  0  0
   -8.7956    5.7025  -19.4412 C   0  0  0  0  0  0  0  0  0  0  0  0
   -9.8701    5.6214  -18.5421 C   0  0  0  0  0  0  0  0  0  0  0  0
   -9.6377    5.5351  -17.1541 C   0  0  0  0  0  0  0  0  0  0  0  0
   -5.2017    5.5564  -16.2831 O   0  0  0  0  0  0  0  0  0  0  0  0
   -9.6587    6.9693  -14.5350 O   0  0  0  0  0  0  0  0  0  0  0  0
   -8.8527    5.5443  -12.8174 C   0  0  0  0  0  0  0  0  0  0  0  0
   -9.3060    6.3806  -11.7818 C   0  0  0  0  0  0  0  0  0  0  0  0
   -9.2675    5.9504  -10.4527 C   0  0  0  0  0  0  0  0  0  0  0  0
   -8.7818    4.6744  -10.1319 C   0  0  0  0  0  0  0  0  0  0  0  0
   -8.7494    4.2363   -8.7603 N   0  0  0  0  0  0  0  0  0  0  0  0
   -9.1457    2.8663   -8.4087 C   0  0  0  0  0  0  0  0  0  0  0  0
   -9.9007    2.8590   -7.0757 C   0  0  0  0  0  0  0  0  0  0  0  0
   -9.1055    3.5928   -5.9902 C   0  0  0  0  0  0  0  0  0  0  0  0
   -8.7780    5.0240   -6.4298 C   0  0  0  0  0  0  0  0  0  0  0  0
   -8.0178    5.0229   -7.7585 C   0  0  0  0  0  0  0  0  0  0  0  0
   -8.3421    3.8310  -11.1645 C   0  0  0  0  0  0  0  0  0  0  0  0
   -8.3782    4.2603  -12.4942 C   0  0  0  0  0  0  0  0  0  0  0  0
   -7.2002    4.9168  -14.9251 H   0  0  0  0  0  0  0  0  0  0  0  0
   -3.4420    5.9134  -19.8709 H   0  0  0  0  0  0  0  0  0  0  0  0
   -3.1165    5.8148  -18.0998 H   0  0  0  0  0  0  0  0  0  0  0  0
   -3.6482    4.3371  -19.0026 H   0  0  0  0  0  0  0  0  0  0  0  0
   -8.9675    5.7669  -20.5078 H   0  0  0  0  0  0  0  0  0  0  0  0
  -10.8849    5.6166  -18.9182 H   0  0  0  0  0  0  0  0  0  0  0  0
  -10.4856    5.4433  -16.4881 H   0  0  0  0  0  0  0  0  0  0  0  0
   -9.6850    7.3717  -11.9982 H   0  0  0  0  0  0  0  0  0  0  0  0
   -9.6309    6.6078   -9.6729 H   0  0  0  0  0  0  0  0  0  0  0  0
   -9.8103    2.4388   -9.1912 H   0  0  0  0  0  0  0  0  0  0  0  0
   -8.2386    2.2280   -8.3322 H   0  0  0  0  0  0  0  0  0  0  0  0
  -10.8883    3.3529   -7.2090 H   0  0  0  0  0  0  0  0  0  0  0  0
  -10.0799    1.8093   -6.7580 H   0  0  0  0  0  0  0  0  0  0  0  0
   -9.7038    3.6239   -5.0544 H   0  0  0  0  0  0  0  0  0  0  0  0
   -8.1635    3.0407   -5.7779 H   0  0  0  0  0  0  0  0  0  0  0  0
   -9.7204    5.6036   -6.5443 H   0  0  0  0  0  0  0  0  0  0  0  0
   -8.1600    5.5189   -5.6501 H   0  0  0  0  0  0  0  0  0  0  0  0
   -7.0093    4.5785   -7.6118 H   0  0  0  0  0  0  0  0  0  0  0  0
   -7.8777    6.0729   -8.0939 H   0  0  0  0  0  0  0  0  0  0  0  0
   -7.9633    2.8420  -10.9400 H   0  0  0  0  0  0  0  0  0  0  0  0
   -8.0515    3.5762  -13.2661 H   0  0  0  0  0  0  0  0  0  0  0  0
  1  2  1  0
  2  3  1  0
  3  4  2  0
  4  5  1  0
  5  6  1  0
  6  7  1  0
  6  8  1  0
  8  9  2  0
  8 10  1  0
 10 11  2  0
 11 12  1  0
 12 13  2  0
  5 14  2  0
  1 15  2  0
  1 16  1  0
 16 17  2  0
 17 18  1  0
 18 19  2  0
 19 20  1  0
 20 21  1  0
 21 22  1  0
 22 23  1  0
 23 24  1  0
 24 25  1  0
 19 26  1  0
 26 27  2  0
  3 13  1  0
  4 10  1  0
 27 16  1  0
 25 20  1  0
  2 28  1  0
  7 29  1  0
  7 30  1  0
  7 31  1  0
 11 32  1  0
 12 33  1  0
 13 34  1  0
 17 35  1  0
 18 36  1  0
 21 37  1  0
 21 38  1  0
 22 39  1  0
 22 40  1  0
 23 41  1  0
 23 42  1  0
 24 43  1  0
 24 44  1  0
 25 45  1  0
 25 46  1  0
 26 47  1  0
 27 48  1  0
A    1
 C1 
A    2
 N1 
A    3
 C2 
A    4
 C3 
A    5
 C4 
A    6
 N2 
A    7
 C5 
A    8
 C6 
A    9
 O1 
A   10
 C7 
A   11
 C8 
A   12
 C9 
A   13
 C10
A   14
 O2 
A   15
 O3 
A   16
 C11
A   17
 C12
A   18
 C13
A   19
 C14
A   20
 N3 
A   21
 C15
A   22
 C16
A   23
 C17
A   24
 C18
A   25
 C19
A   26
 C20
A   27
 C21
A   28
 H1 
A   29
 H2 
A   30
 H3 
A   31
 H4 
A   32
 H5 
A   33
 H6 
A   34
 H7 
A   35
 H8 
A   36
 H9 
A   37
 H10
A   38
 H11
A   39
 H12
A   40
 H13
A   41
 H14
A   42
 H15
A   43
 H16
A   44
 H17
A   45
 H18
A   46
 H19
A   47
 H20
A   48
 H21
M  END
>  <ref_pdb>  (432) 
x0051_0B

>  <ref_mols>  (432) 
x0727_0B,x0404_0B

>  <original SMILES>  (432) 
[H]c1c([H])c2c(c(N([H])C(=O)c3c([H])c([H])c(N4C([H])([H])C([H])([H])C([H])([H])C([H])([H])C4([H])[H])c([H])c3[H])c1[H])C(=O)N(C([H])([H])[H])C2=O

>  <index>  (432) 
577

>  <∆∆G>  (432) 
-9.682719

>  <∆G_bound>  (432) 
-9.098082

>  <∆G_unbound>  (432) 
0.584637

>  <comRMSD>  (432) 
0.750692

>  <N_constrained_atoms>  (432) 
27.0

>  <N_unconstrained_atoms>  (432) 
1.0

>  <runtime>  (432) 
68.992806

>  <LE>  (432) 
0.345811

>  <percent_hybrid>  (432) 
45.0

>  <dist>  (432) 
9.0

>  <ecfp4>  (432) 
0.190476

>  <daylight>  (432) 
0.166008

>  <topodist>  (432) 
4.0

>  <mces>  (432) 
29.0

>  <tdn>  (432) 
1.0

>  <tup>  (432) 
0.0

>  <rdn>  (432) 
1.0

>  <rup>  (432) 
1.0

>  <ldn>  (432) 
1.0

>  <lup>  (432) 
0.0

>  <mut>  (432) 
4.0

>  <maj>  (432) 
4.0

>  <min>  (432) 
0.0

>  <hyb>  (432) 
1.0

>  <sub>  (432) 
2.0

>  <query_index>  (432) 
0.0

>  <max_hit_Tanimoto>  (432) 
0.20202

>  <largest_ring>  (432) 
6

>  <N_interactions_kept>  (432) 
2.5

>  <N_interactions_lost>  (432) 
2.0

>  <interaction_uniqueness_metric>  (432) 
0.079048

>  <ad_hoc_penalty>  (432) 
-18.737809

>  <N_rotatable_bonds>  (432) 
4

>  <N_HA>  (432) 
27

>  <cluster>  (432) 
508

>  <N_interactions>  (432) 
4

>  <Enamine>  (432) 
0

>  <Mcule>  (432) 
1

>  <N_PAINS>  (432) 
0

>  <UFF_Gibbs>  (432) 
139.812973

>  <strain_per_HA>  (432) 
4.99332

>  <saltbridge:HIS:51>  (432) 
0

>  <pistack:HIS:51>  (432) 
1

>  <hydroph_interaction:HIS:51>  (432) 
1

>  <hbond:ALA:132>  (432) 
0

>  <hbond:SER:135>  (432) 
0

>  <hydroph_interaction:TYR:150>  (432) 
0

>  <pistack:TYR:161>  (432) 
0

>  <hydroph_interaction:TYR:161>  (432) 
2

>  <hydroph_interaction:ASP:83>  (432) 
0

>  <hbond:TYR:130>  (432) 
0

>  <hydroph_interaction:ALA:132>  (432) 
0

>  <hbond:HIS:51>  (432) 
0

>  <hbond:ASP:129>  (432) 
0

>  <hbond:TYR:150>  (432) 
0

>  <hbond:GLY:151>  (432) 
0

>  <hbond:TYR:161>  (432) 
0

>  <hydroph_interaction:TYR:130>  (432) 
0

>  <hydroph_interaction:PRO:131>  (432) 
0

>  <hydroph_interaction:ASP:129>  (432) 
0

>  <saltbridge:ASP:75>  (432) 
0

>  <saltbridge:ASP:83>  (432) 
0

>  <hydroph_interaction:ASN:152>  (432) 
0

>  <halogenbond:TYR:150>  (432) 
0

>  <hbond:ASP:83>  (432) 
0

>  <hydroph_interaction:VAL:155>  (432) 
0

>  <pication:TYR:161>  (432) 
0

>  <hbond:PRO:131>  (432) 
0

>  <hbond:LEU:128>  (432) 
0

>  <saltbridge:ASP:129>  (432) 
0

>  <hbond:THR:134>  (432) 
0

>  <pication:HIS:51>  (432) 
0

>  <hbond:SER:81>  (432) 
0

>  <hbond:GLY:159>  (432) 
0

>  <hydroph_interaction:PRO:101>  (432) 
0

>  <hydroph_interaction:THR:134>  (432) 
0

>  <hbond:GLY:82>  (432) 
0

>  <hydroph_interaction:GLU:104>  (432) 
0

>  <hydroph_interaction:VAL:36>  (432) 
0

>  <hydroph_interaction:MET:49>  (432) 
0

>  <halogenbond:GLU:104>  (432) 
0

>  <hydroph_interaction:LYS:107>  (432) 
0

$$$$
Z5578365196
     RDKit          3D

 44 47  0  0  0  0  0  0  0  0999 V2000
   -9.7065    6.5394  -17.9064 C   0  0  0  0  0  0  0  0  0  0  0  0
   -9.0617    5.4838  -17.0672 C   0  0  0  0  0  0  0  0  0  0  0  0
   -9.7197    4.8116  -16.1022 N   0  0  0  0  0  0  0  0  0  0  0  0
   -8.8730    3.9414  -15.5747 N   0  0  0  0  0  0  0  0  0  0  0  0
   -9.2001    3.0685  -14.4530 C   0  0  0  0  0  0  0  0  0  0  0  0
   -8.8195    3.7303  -13.1656 C   0  0  0  0  0  0  0  0  0  0  0  0
   -7.7188    3.4406  -12.6247 O   0  0  0  0  0  0  0  0  0  0  0  0
   -9.6603    4.7529  -12.6125 N   0  0  0  0  0  0  0  0  0  0  0  0
   -9.4818    5.3185  -11.3071 C   0  0  0  0  0  0  0  0  0  0  0  0
   -8.9582    4.7357  -10.1757 C   0  0  0  0  0  0  0  0  0  0  0  0
   -8.4476    3.4513  -10.0047 O   0  0  0  0  0  0  0  0  0  0  0  0
   -7.8173    3.1028   -8.7685 C   0  0  0  0  0  0  0  0  0  0  0  0
   -8.5088    3.7983   -7.5771 C   0  0  0  0  0  0  0  0  0  0  0  0
   -8.6001    5.3214   -7.8033 C   0  0  0  0  0  0  0  0  0  0  0  0
   -9.0686    5.5971   -9.1583 N   0  0  0  0  0  0  0  0  0  0  0  0
   -9.6411    6.7176   -9.5719 N   0  0  0  0  0  0  0  0  0  0  0  0
   -9.9182    6.5654  -10.8882 C   0  0  0  0  0  0  0  0  0  0  0  0
   -7.6690    4.0470  -16.1677 C   0  0  0  0  0  0  0  0  0  0  0  0
   -7.7449    5.0360  -17.1303 C   0  0  0  0  0  0  0  0  0  0  0  0
   -6.6474    5.4763  -18.0210 C   0  0  0  0  0  0  0  0  0  0  0  0
   -5.7187    4.5375  -18.5052 C   0  0  0  0  0  0  0  0  0  0  0  0
   -4.6748    4.9419  -19.3427 C   0  0  0  0  0  0  0  0  0  0  0  0
   -4.5421    6.2865  -19.6973 C   0  0  0  0  0  0  0  0  0  0  0  0
   -5.4487    7.2297  -19.2088 C   0  0  0  0  0  0  0  0  0  0  0  0
   -6.4950    6.8298  -18.3716 C   0  0  0  0  0  0  0  0  0  0  0  0
   -9.5173    7.5378  -17.4606 H   0  0  0  0  0  0  0  0  0  0  0  0
  -10.8029    6.3691  -17.9479 H   0  0  0  0  0  0  0  0  0  0  0  0
   -9.3083    6.5068  -18.9420 H   0  0  0  0  0  0  0  0  0  0  0  0
  -10.2901    2.8523  -14.4506 H   0  0  0  0  0  0  0  0  0  0  0  0
   -8.6645    2.0997  -14.5592 H   0  0  0  0  0  0  0  0  0  0  0  0
  -10.3998    5.1674  -13.2237 H   0  0  0  0  0  0  0  0  0  0  0  0
   -7.8530    2.0010   -8.6365 H   0  0  0  0  0  0  0  0  0  0  0  0
   -6.7520    3.4164   -8.8065 H   0  0  0  0  0  0  0  0  0  0  0  0
   -9.5351    3.3852   -7.4657 H   0  0  0  0  0  0  0  0  0  0  0  0
   -7.9461    3.5916   -6.6419 H   0  0  0  0  0  0  0  0  0  0  0  0
   -7.5965    5.7787   -7.6666 H   0  0  0  0  0  0  0  0  0  0  0  0
   -9.2990    5.7677   -7.0637 H   0  0  0  0  0  0  0  0  0  0  0  0
  -10.4079    7.3118  -11.4992 H   0  0  0  0  0  0  0  0  0  0  0  0
   -6.7958    3.4643  -15.9024 H   0  0  0  0  0  0  0  0  0  0  0  0
   -5.8107    3.4895  -18.2497 H   0  0  0  0  0  0  0  0  0  0  0  0
   -3.9709    4.2118  -19.7200 H   0  0  0  0  0  0  0  0  0  0  0  0
   -3.7342    6.5982  -20.3467 H   0  0  0  0  0  0  0  0  0  0  0  0
   -5.3386    8.2733  -19.4753 H   0  0  0  0  0  0  0  0  0  0  0  0
   -7.1645    7.5832  -17.9808 H   0  0  0  0  0  0  0  0  0  0  0  0
  1  2  1  0
  2  3  2  0
  3  4  1  0
  4  5  1  0
  5  6  1  0
  6  7  2  0
  6  8  1  0
  8  9  1  0
  9 10  2  0
 10 11  1  0
 11 12  1  0
 12 13  1  0
 13 14  1  0
 14 15  1  0
 15 16  1  0
 16 17  2  0
  4 18  1  0
 18 19  2  0
 19 20  1  0
 20 21  2  0
 21 22  1  0
 22 23  2  0
 23 24  1  0
 24 25  2  0
 19  2  1  0
 17  9  1  0
 15 10  1  0
 25 20  1  0
  1 26  1  0
  1 27  1  0
  1 28  1  0
  5 29  1  0
  5 30  1  0
  8 31  1  0
 12 32  1  0
 12 33  1  0
 13 34  1  0
 13 35  1  0
 14 36  1  0
 14 37  1  0
 17 38  1  0
 18 39  1  0
 21 40  1  0
 22 41  1  0
 23 42  1  0
 24 43  1  0
 25 44  1  0
A    1
 C1 
A    2
 C2 
A    3
 N1 
A    4
 N2 
A    5
 C3 
A    6
 C4 
A    7
 O1 
A    8
 N3 
A    9
 C5 
A   10
 C6 
A   11
 O2 
A   12
 C7 
A   13
 C8 
A   14
 C9 
A   15
 N4 
A   16
 N5 
A   17
 C10
A   18
 C11
A   19
 C12
A   20
 C13
A   21
 C14
A   22
 C15
A   23
 C16
A   24
 C17
A   25
 C18
A   26
 H1 
A   27
 H2 
A   28
 H3 
A   29
 H4 
A   30
 H5 
A   31
 H6 
A   32
 H7 
A   33
 H8 
A   34
 H9 
A   35
 H10
A   36
 H11
A   37
 H12
A   38
 H13
A   39
 H14
A   40
 H15
A   41
 H16
A   42
 H17
A   43
 H18
A   44
 H19
M  END
>  <ref_pdb>  (433) 
x0051_0B

>  <ref_mols>  (433) 
x0969_1B,x0803_0B

>  <original SMILES>  (433) 
[H]c1nn2c(c1N([H])C(=O)C([H])([H])n1nc(C([H])([H])[H])c(-c3c([H])c([H])c([H])c([H])c3[H])c1[H])OC([H])([H])C([H])([H])C2([H])[H]

>  <index>  (433) 
917

>  <∆∆G>  (433) 
-8.225215

>  <∆G_bound>  (433) 
-7.579022

>  <∆G_unbound>  (433) 
0.646193

>  <comRMSD>  (433) 
0.488496

>  <N_constrained_atoms>  (433) 
22.0

>  <N_unconstrained_atoms>  (433) 
3.0

>  <runtime>  (433) 
83.914318

>  <LE>  (433) 
0.329009

>  <percent_hybrid>  (433) 
46.0

>  <dist>  (433) 
11.0

>  <ecfp4>  (433) 
0.27381

>  <daylight>  (433) 
0.285714

>  <topodist>  (433) 
1.0

>  <mces>  (433) 
27.0

>  <tdn>  (433) 
0.0

>  <tup>  (433) 
1.0

>  <rdn>  (433) 
0.0

>  <rup>  (433) 
0.0

>  <ldn>  (433) 
0.0

>  <lup>  (433) 
0.0

>  <mut>  (433) 
5.0

>  <maj>  (433) 
5.0

>  <min>  (433) 
0.0

>  <hyb>  (433) 
5.0

>  <sub>  (433) 
0.0

>  <query_index>  (433) 
360.0

>  <max_hit_Tanimoto>  (433) 
0.265705

>  <largest_ring>  (433) 
6

>  <N_interactions_kept>  (433) 
3.0

>  <N_interactions_lost>  (433) 
3.0

>  <interaction_uniqueness_metric>  (433) 
0.160809

>  <ad_hoc_penalty>  (433) 
-18.725043

>  <N_rotatable_bonds>  (433) 
5

>  <N_HA>  (433) 
25

>  <cluster>  (433) 
5378

>  <N_interactions>  (433) 
7

>  <Enamine>  (433) 
1

>  <Mcule>  (433) 
0

>  <N_PAINS>  (433) 
0

>  <UFF_Gibbs>  (433) 
58.311949

>  <strain_per_HA>  (433) 
2.332478

>  <saltbridge:HIS:51>  (433) 
0

>  <pistack:HIS:51>  (433) 
0

>  <hydroph_interaction:HIS:51>  (433) 
0

>  <hbond:ALA:132>  (433) 
0

>  <hbond:SER:135>  (433) 
0

>  <hydroph_interaction:TYR:150>  (433) 
1

>  <pistack:TYR:161>  (433) 
1

>  <hydroph_interaction:TYR:161>  (433) 
3

>  <hydroph_interaction:ASP:83>  (433) 
0

>  <hbond:TYR:130>  (433) 
0

>  <hydroph_interaction:ALA:132>  (433) 
0

>  <hbond:HIS:51>  (433) 
1

>  <hbond:ASP:129>  (433) 
0

>  <hbond:TYR:150>  (433) 
0

>  <hbond:GLY:151>  (433) 
0

>  <hbond:TYR:161>  (433) 
1

>  <hydroph_interaction:TYR:130>  (433) 
0

>  <hydroph_interaction:PRO:131>  (433) 
0

>  <hydroph_interaction:ASP:129>  (433) 
0

>  <saltbridge:ASP:75>  (433) 
0

>  <saltbridge:ASP:83>  (433) 
0

>  <hydroph_interaction:ASN:152>  (433) 
0

>  <halogenbond:TYR:150>  (433) 
0

>  <hbond:ASP:83>  (433) 
0

>  <hydroph_interaction:VAL:155>  (433) 
0

>  <pication:TYR:161>  (433) 
0

>  <hbond:PRO:131>  (433) 
0

>  <hbond:LEU:128>  (433) 
0

>  <saltbridge:ASP:129>  (433) 
0

>  <hbond:THR:134>  (433) 
0

>  <pication:HIS:51>  (433) 
0

>  <hbond:SER:81>  (433) 
0

>  <hbond:GLY:159>  (433) 
0

>  <hydroph_interaction:PRO:101>  (433) 
0

>  <hydroph_interaction:THR:134>  (433) 
0

>  <hbond:GLY:82>  (433) 
0

>  <hydroph_interaction:GLU:104>  (433) 
0

>  <hydroph_interaction:VAL:36>  (433) 
0

>  <hydroph_interaction:MET:49>  (433) 
0

>  <halogenbond:GLU:104>  (433) 
0

>  <hydroph_interaction:LYS:107>  (433) 
0

$$$$
JWVJKBCIWLNEJT-UHFFFAOYSA-N
     RDKit          3D

 44 46  0  0  0  0  0  0  0  0999 V2000
   -9.3014    8.2665  -13.6209 C   0  0  0  0  0  0  0  0  0  0  0  0
   -8.7889    8.1586  -14.9589 N   0  0  0  0  0  0  0  0  0  0  0  0
   -7.6307    7.3421  -15.3280 C   0  0  0  0  0  0  0  0  0  0  0  0
   -8.0458    6.0606  -16.0122 C   0  0  0  0  0  0  0  0  0  0  0  0
   -7.2786    4.8956  -15.8302 C   0  0  0  0  0  0  0  0  0  0  0  0
   -7.6219    3.7101  -16.4910 C   0  0  0  0  0  0  0  0  0  0  0  0
   -8.7280    3.6767  -17.3416 C   0  0  0  0  0  0  0  0  0  0  0  0
   -9.4927    4.8300  -17.5360 C   0  0  0  0  0  0  0  0  0  0  0  0
   -9.1508    6.0197  -16.8816 C   0  0  0  0  0  0  0  0  0  0  0  0
   -9.9828    9.2820  -13.3115 O   0  0  0  0  0  0  0  0  0  0  0  0
   -9.0777    7.2211  -12.6015 C   0  0  0  0  0  0  0  0  0  0  0  0
   -8.7185    7.5837  -11.2942 C   0  0  0  0  0  0  0  0  0  0  0  0
   -8.5337    6.6040  -10.3146 C   0  0  0  0  0  0  0  0  0  0  0  0
   -8.7218    5.2484  -10.6224 C   0  0  0  0  0  0  0  0  0  0  0  0
   -8.5442    4.2472   -9.6030 N   0  0  0  0  0  0  0  0  0  0  0  0
   -9.5267    3.1666   -9.4500 C   0  0  0  0  0  0  0  0  0  0  0  0
   -9.7088    2.8285   -7.9670 C   0  0  0  0  0  0  0  0  0  0  0  0
   -8.3569    2.5487   -7.3021 C   0  0  0  0  0  0  0  0  0  0  0  0
   -7.4120    3.7421   -7.4756 C   0  0  0  0  0  0  0  0  0  0  0  0
   -7.2358    4.0935   -8.9557 C   0  0  0  0  0  0  0  0  0  0  0  0
   -9.1018    4.8868  -11.9228 C   0  0  0  0  0  0  0  0  0  0  0  0
   -9.2809    5.8659  -12.9050 C   0  0  0  0  0  0  0  0  0  0  0  0
   -9.1484    8.8337  -15.6722 H   0  0  0  0  0  0  0  0  0  0  0  0
   -7.0135    7.1308  -14.4263 H   0  0  0  0  0  0  0  0  0  0  0  0
   -6.9900    7.9187  -16.0311 H   0  0  0  0  0  0  0  0  0  0  0  0
   -6.4116    4.9060  -15.1825 H   0  0  0  0  0  0  0  0  0  0  0  0
   -7.0272    2.8157  -16.3437 H   0  0  0  0  0  0  0  0  0  0  0  0
   -8.9928    2.7566  -17.8491 H   0  0  0  0  0  0  0  0  0  0  0  0
  -10.3537    4.8020  -18.1899 H   0  0  0  0  0  0  0  0  0  0  0  0
   -9.7478    6.9050  -17.0616 H   0  0  0  0  0  0  0  0  0  0  0  0
   -8.5751    8.6252  -11.0345 H   0  0  0  0  0  0  0  0  0  0  0  0
   -8.2580    6.9018   -9.3122 H   0  0  0  0  0  0  0  0  0  0  0  0
  -10.5106    3.4720   -9.8682 H   0  0  0  0  0  0  0  0  0  0  0  0
   -9.1767    2.2673  -10.0011 H   0  0  0  0  0  0  0  0  0  0  0  0
  -10.2022    3.6804   -7.4538 H   0  0  0  0  0  0  0  0  0  0  0  0
  -10.3628    1.9374   -7.8670 H   0  0  0  0  0  0  0  0  0  0  0  0
   -7.8988    1.6395   -7.7490 H   0  0  0  0  0  0  0  0  0  0  0  0
   -8.5132    2.3562   -6.2173 H   0  0  0  0  0  0  0  0  0  0  0  0
   -7.8207    4.6234   -6.9357 H   0  0  0  0  0  0  0  0  0  0  0  0
   -6.4235    3.4965   -7.0360 H   0  0  0  0  0  0  0  0  0  0  0  0
   -6.6385    5.0275   -9.0364 H   0  0  0  0  0  0  0  0  0  0  0  0
   -6.6704    3.2846   -9.4647 H   0  0  0  0  0  0  0  0  0  0  0  0
   -9.2547    3.8459  -12.1784 H   0  0  0  0  0  0  0  0  0  0  0  0
   -9.6085    5.5672  -13.8924 H   0  0  0  0  0  0  0  0  0  0  0  0
  1  2  1  0
  2  3  1  0
  3  4  1  0
  4  5  2  0
  5  6  1  0
  6  7  2  0
  7  8  1  0
  8  9  2  0
  1 10  2  0
  1 11  1  0
 11 12  2  0
 12 13  1  0
 13 14  2  0
 14 15  1  0
 15 16  1  0
 16 17  1  0
 17 18  1  0
 18 19  1  0
 19 20  1  0
 14 21  1  0
 21 22  2  0
  9  4  1  0
 22 11  1  0
 20 15  1  0
  2 23  1  0
  3 24  1  0
  3 25  1  0
  5 26  1  0
  6 27  1  0
  7 28  1  0
  8 29  1  0
  9 30  1  0
 12 31  1  0
 13 32  1  0
 16 33  1  0
 16 34  1  0
 17 35  1  0
 17 36  1  0
 18 37  1  0
 18 38  1  0
 19 39  1  0
 19 40  1  0
 20 41  1  0
 20 42  1  0
 21 43  1  0
 22 44  1  0
A    1
 C1 
A    2
 N1 
A    3
 C2 
A    4
 C3 
A    5
 C4 
A    6
 C5 
A    7
 C6 
A    8
 C7 
A    9
 C8 
A   10
 O1 
A   11
 C9 
A   12
 C10
A   13
 C11
A   14
 C12
A   15
 N2 
A   16
 C13
A   17
 C14
A   18
 C15
A   19
 C16
A   20
 C17
A   21
 C18
A   22
 C19
A   23
 H1 
A   24
 H2 
A   25
 H3 
A   26
 H4 
A   27
 H5 
A   28
 H6 
A   29
 H7 
A   30
 H8 
A   31
 H9 
A   32
 H10
A   33
 H11
A   34
 H12
A   35
 H13
A   36
 H14
A   37
 H15
A   38
 H16
A   39
 H17
A   40
 H18
A   41
 H19
A   42
 H20
A   43
 H21
A   44
 H22
M  END
>  <ref_pdb>  (434) 
x0051_0B

>  <ref_mols>  (434) 
x0589_0B,x0404_0B

>  <original SMILES>  (434) 
[H]c1c([H])c([H])c(C([H])([H])N([H])C(=O)c2c([H])c([H])c(N3C([H])([H])C([H])([H])C([H])([H])C([H])([H])C3([H])[H])c([H])c2[H])c([H])c1[H]

>  <index>  (434) 
396

>  <∆∆G>  (434) 
-7.502734

>  <∆G_bound>  (434) 
-7.231363

>  <∆G_unbound>  (434) 
0.271371

>  <comRMSD>  (434) 
0.749256

>  <N_constrained_atoms>  (434) 
23.0

>  <N_unconstrained_atoms>  (434) 
1.0

>  <runtime>  (434) 
93.646421

>  <LE>  (434) 
0.312614

>  <percent_hybrid>  (434) 
35.0

>  <dist>  (434) 
7.0

>  <ecfp4>  (434) 
0.197183

>  <daylight>  (434) 
0.202247

>  <topodist>  (434) 
3.0

>  <mces>  (434) 
24.0

>  <tdn>  (434) 
3.0

>  <tup>  (434) 
0.0

>  <rdn>  (434) 
0.0

>  <rup>  (434) 
0.0

>  <ldn>  (434) 
0.0

>  <lup>  (434) 
0.0

>  <mut>  (434) 
3.0

>  <maj>  (434) 
3.0

>  <min>  (434) 
0.0

>  <hyb>  (434) 
1.0

>  <sub>  (434) 
2.0

>  <query_index>  (434) 
29.0

>  <max_hit_Tanimoto>  (434) 
0.265683

>  <largest_ring>  (434) 
6

>  <N_interactions_kept>  (434) 
2.5

>  <N_interactions_lost>  (434) 
1.0

>  <interaction_uniqueness_metric>  (434) 
0.063676

>  <ad_hoc_penalty>  (434) 
-18.697566

>  <N_rotatable_bonds>  (434) 
4

>  <N_HA>  (434) 
22

>  <cluster>  (434) 
527

>  <N_interactions>  (434) 
4

>  <Enamine>  (434) 
0

>  <Mcule>  (434) 
1

>  <N_PAINS>  (434) 
0

>  <UFF_Gibbs>  (434) 
178.796105

>  <strain_per_HA>  (434) 
7.449838

>  <saltbridge:HIS:51>  (434) 
0

>  <pistack:HIS:51>  (434) 
1

>  <hydroph_interaction:HIS:51>  (434) 
0

>  <hbond:ALA:132>  (434) 
0

>  <hbond:SER:135>  (434) 
0

>  <hydroph_interaction:TYR:150>  (434) 
0

>  <pistack:TYR:161>  (434) 
0

>  <hydroph_interaction:TYR:161>  (434) 
2

>  <hydroph_interaction:ASP:83>  (434) 
0

>  <hbond:TYR:130>  (434) 
0

>  <hydroph_interaction:ALA:132>  (434) 
1

>  <hbond:HIS:51>  (434) 
0

>  <hbond:ASP:129>  (434) 
0

>  <hbond:TYR:150>  (434) 
0

>  <hbond:GLY:151>  (434) 
0

>  <hbond:TYR:161>  (434) 
0

>  <hydroph_interaction:TYR:130>  (434) 
0

>  <hydroph_interaction:PRO:131>  (434) 
0

>  <hydroph_interaction:ASP:129>  (434) 
0

>  <saltbridge:ASP:75>  (434) 
0

>  <saltbridge:ASP:83>  (434) 
0

>  <hydroph_interaction:ASN:152>  (434) 
0

>  <halogenbond:TYR:150>  (434) 
0

>  <hbond:ASP:83>  (434) 
0

>  <hydroph_interaction:VAL:155>  (434) 
0

>  <pication:TYR:161>  (434) 
0

>  <hbond:PRO:131>  (434) 
0

>  <hbond:LEU:128>  (434) 
0

>  <saltbridge:ASP:129>  (434) 
0

>  <hbond:THR:134>  (434) 
0

>  <pication:HIS:51>  (434) 
0

>  <hbond:SER:81>  (434) 
0

>  <hbond:GLY:159>  (434) 
0

>  <hydroph_interaction:PRO:101>  (434) 
0

>  <hydroph_interaction:THR:134>  (434) 
0

>  <hbond:GLY:82>  (434) 
0

>  <hydroph_interaction:GLU:104>  (434) 
0

>  <hydroph_interaction:VAL:36>  (434) 
0

>  <hydroph_interaction:MET:49>  (434) 
0

>  <halogenbond:GLU:104>  (434) 
0

>  <hydroph_interaction:LYS:107>  (434) 
0

$$$$
QQDKTQOTGAJYBX-UHFFFAOYSA-N
     RDKit          3D

 54 57  0  0  0  0  0  0  0  0999 V2000
   -7.8147    6.6588  -14.0981 C   0  0  0  0  0  0  0  0  0  0  0  0
   -7.0379    5.8857  -15.0357 N   0  0  0  0  0  0  0  0  0  0  0  0
   -7.7727    5.3169  -16.1379 C   0  0  0  0  0  0  0  0  0  0  0  0
   -7.4488    5.5588  -17.5045 C   0  0  0  0  0  0  0  0  0  0  0  0
   -8.2590    4.9941  -18.5030 C   0  0  0  0  0  0  0  0  0  0  0  0
   -9.3652    4.2099  -18.1837 C   0  0  0  0  0  0  0  0  0  0  0  0
   -9.6844    3.9724  -16.8528 C   0  0  0  0  0  0  0  0  0  0  0  0
   -8.8998    4.5214  -15.8412 C   0  0  0  0  0  0  0  0  0  0  0  0
   -6.3243    6.3180  -17.9882 N   0  0  0  0  0  0  0  0  0  0  0  0
   -5.3512    6.9821  -17.4344 C   0  0  0  0  0  0  0  0  0  0  0  0
   -4.3612    7.6225  -18.3627 C   0  0  0  0  0  0  0  0  0  0  0  0
   -5.1918    7.2008  -15.9524 C   0  0  0  0  0  0  0  0  0  0  0  0
   -5.5627    6.0052  -15.0573 C   0  0  0  0  0  0  0  0  0  0  0  0
   -4.9043    4.6859  -15.5358 C   0  0  0  0  0  0  0  0  0  0  0  0
   -5.0033    6.2844  -13.6354 C   0  0  0  0  0  0  0  0  0  0  0  0
   -8.2148    7.8054  -14.4379 O   0  0  0  0  0  0  0  0  0  0  0  0
   -8.1659    6.1198  -12.7596 C   0  0  0  0  0  0  0  0  0  0  0  0
   -8.8218    6.9246  -11.8148 C   0  0  0  0  0  0  0  0  0  0  0  0
   -9.1519    6.4124  -10.5593 C   0  0  0  0  0  0  0  0  0  0  0  0
   -8.8191    5.0875  -10.2426 C   0  0  0  0  0  0  0  0  0  0  0  0
   -9.1554    4.5238   -8.9606 N   0  0  0  0  0  0  0  0  0  0  0  0
   -9.4138    3.0843   -8.8586 C   0  0  0  0  0  0  0  0  0  0  0  0
  -10.2880    2.7981   -7.6337 C   0  0  0  0  0  0  0  0  0  0  0  0
   -9.7278    3.3752   -6.4696 O   0  0  0  0  0  0  0  0  0  0  0  0
   -9.7277    4.7851   -6.5884 C   0  0  0  0  0  0  0  0  0  0  0  0
   -8.8050    5.2350   -7.7252 C   0  0  0  0  0  0  0  0  0  0  0  0
   -8.1978    4.3174  -11.1781 N   0  0  0  0  0  0  0  0  0  0  0  0
   -7.8668    4.7932  -12.4070 C   0  0  0  0  0  0  0  0  0  0  0  0
   -8.0237    5.1630  -19.5469 H   0  0  0  0  0  0  0  0  0  0  0  0
   -9.9740    3.7846  -18.9711 H   0  0  0  0  0  0  0  0  0  0  0  0
  -10.5438    3.3637  -16.6025 H   0  0  0  0  0  0  0  0  0  0  0  0
   -9.1773    4.3221  -14.8161 H   0  0  0  0  0  0  0  0  0  0  0  0
   -3.8257    6.8346  -18.9328 H   0  0  0  0  0  0  0  0  0  0  0  0
   -3.6125    8.2354  -17.8184 H   0  0  0  0  0  0  0  0  0  0  0  0
   -4.8951    8.2847  -19.0767 H   0  0  0  0  0  0  0  0  0  0  0  0
   -4.1341    7.4805  -15.7503 H   0  0  0  0  0  0  0  0  0  0  0  0
   -5.8041    8.0839  -15.6697 H   0  0  0  0  0  0  0  0  0  0  0  0
   -3.7972    4.7839  -15.5428 H   0  0  0  0  0  0  0  0  0  0  0  0
   -5.2163    4.3935  -16.5568 H   0  0  0  0  0  0  0  0  0  0  0  0
   -5.1802    3.8536  -14.8531 H   0  0  0  0  0  0  0  0  0  0  0  0
   -5.2709    5.4674  -12.9348 H   0  0  0  0  0  0  0  0  0  0  0  0
   -3.8937    6.3527  -13.6545 H   0  0  0  0  0  0  0  0  0  0  0  0
   -5.3849    7.2458  -13.2297 H   0  0  0  0  0  0  0  0  0  0  0  0
   -9.0838    7.9495  -12.0462 H   0  0  0  0  0  0  0  0  0  0  0  0
   -9.6836    7.0389   -9.8559 H   0  0  0  0  0  0  0  0  0  0  0  0
   -9.9397    2.7194   -9.7681 H   0  0  0  0  0  0  0  0  0  0  0  0
   -8.4476    2.5429   -8.7622 H   0  0  0  0  0  0  0  0  0  0  0  0
  -11.3270    3.1629   -7.8031 H   0  0  0  0  0  0  0  0  0  0  0  0
  -10.3487    1.6989   -7.4890 H   0  0  0  0  0  0  0  0  0  0  0  0
  -10.7590    5.1759   -6.7466 H   0  0  0  0  0  0  0  0  0  0  0  0
   -9.3574    5.2198   -5.6361 H   0  0  0  0  0  0  0  0  0  0  0  0
   -7.7511    5.0026   -7.4590 H   0  0  0  0  0  0  0  0  0  0  0  0
   -8.8970    6.3337   -7.8461 H   0  0  0  0  0  0  0  0  0  0  0  0
   -7.3719    4.1315  -13.1053 H   0  0  0  0  0  0  0  0  0  0  0  0
  1  2  1  0
  2  3  1  0
  3  4  1  0
  4  5  2  0
  5  6  1  0
  6  7  2  0
  7  8  1  0
  4  9  1  0
  9 10  2  0
 10 11  1  0
 10 12  1  0
 12 13  1  0
 13 14  1  0
 13 15  1  0
  1 16  2  0
  1 17  1  0
 17 18  2  0
 18 19  1  0
 19 20  2  0
 20 21  1  0
 21 22  1  0
 22 23  1  0
 23 24  1  0
 24 25  1  0
 25 26  1  0
 20 27  1  0
 27 28  2  0
 13  2  1  0
  8  3  2  0
 28 17  1  0
 26 21  1  0
  5 29  1  0
  6 30  1  0
  7 31  1  0
  8 32  1  0
 11 33  1  0
 11 34  1  0
 11 35  1  0
 12 36  1  0
 12 37  1  0
 14 38  1  0
 14 39  1  0
 14 40  1  0
 15 41  1  0
 15 42  1  0
 15 43  1  0
 18 44  1  0
 19 45  1  0
 22 46  1  0
 22 47  1  0
 23 48  1  0
 23 49  1  0
 25 50  1  0
 25 51  1  0
 26 52  1  0
 26 53  1  0
 28 54  1  0
A    1
 C1 
A    2
 N1 
A    3
 C2 
A    4
 C3 
A    5
 C4 
A    6
 C5 
A    7
 C6 
A    8
 C7 
A    9
 N2 
A   10
 C8 
A   11
 C9 
A   12
 C10
A   13
 C11
A   14
 C12
A   15
 C13
A   16
 O1 
A   17
 C14
A   18
 C15
A   19
 C16
A   20
 C17
A   21
 N3 
A   22
 C18
A   23
 C19
A   24
 O2 
A   25
 C20
A   26
 C21
A   27
 N4 
A   28
 C22
A   29
 H1 
A   30
 H2 
A   31
 H3 
A   32
 H4 
A   33
 H5 
A   34
 H6 
A   35
 H7 
A   36
 H8 
A   37
 H9 
A   38
 H10
A   39
 H11
A   40
 H12
A   41
 H13
A   42
 H14
A   43
 H15
A   44
 H16
A   45
 H17
A   46
 H18
A   47
 H19
A   48
 H20
A   49
 H21
A   50
 H22
A   51
 H23
A   52
 H24
A   53
 H25
A   54
 H26
M  END
>  <ref_pdb>  (435) 
x0051_0B

>  <ref_mols>  (435) 
x0089_0B,x0404_0B

>  <original SMILES>  (435) 
[H]c1nc(N2C([H])([H])C([H])([H])OC([H])([H])C2([H])[H])c([H])c([H])c1C(=O)N1c2c([H])c([H])c([H])c([H])c2N=C(C([H])([H])[H])C([H])([H])C1(C([H])([H])[H])C([H])([H])[H]

>  <index>  (435) 
714

>  <∆∆G>  (435) 
-7.410786

>  <∆G_bound>  (435) 
-7.785

>  <∆G_unbound>  (435) 
-0.374214

>  <comRMSD>  (435) 
0.879027

>  <N_constrained_atoms>  (435) 
26.0

>  <N_unconstrained_atoms>  (435) 
5.0

>  <runtime>  (435) 
58.598073

>  <LE>  (435) 
0.239058

>  <percent_hybrid>  (435) 
43.0

>  <dist>  (435) 
11.0

>  <ecfp4>  (435) 
0.175258

>  <daylight>  (435) 
0.212698

>  <topodist>  (435) 
4.0

>  <mces>  (435) 
30.0

>  <tdn>  (435) 
1.0

>  <tup>  (435) 
0.0

>  <rdn>  (435) 
1.0

>  <rup>  (435) 
1.0

>  <ldn>  (435) 
1.0

>  <lup>  (435) 
0.0

>  <mut>  (435) 
5.0

>  <maj>  (435) 
5.0

>  <min>  (435) 
0.0

>  <hyb>  (435) 
2.0

>  <sub>  (435) 
2.0

>  <query_index>  (435) 
3.0

>  <max_hit_Tanimoto>  (435) 
0.186218

>  <largest_ring>  (435) 
7

>  <N_interactions_kept>  (435) 
2.0

>  <N_interactions_lost>  (435) 
2.5

>  <interaction_uniqueness_metric>  (435) 
0.119529

>  <ad_hoc_penalty>  (435) 
-18.676017

>  <N_rotatable_bonds>  (435) 
5

>  <N_HA>  (435) 
28

>  <cluster>  (435) 
5566

>  <N_interactions>  (435) 
7

>  <Enamine>  (435) 
0

>  <Mcule>  (435) 
1

>  <N_PAINS>  (435) 
0

>  <UFF_Gibbs>  (435) 
118.827614

>  <strain_per_HA>  (435) 
3.833149

>  <saltbridge:HIS:51>  (435) 
0

>  <pistack:HIS:51>  (435) 
1

>  <hydroph_interaction:HIS:51>  (435) 
1

>  <hbond:ALA:132>  (435) 
0

>  <hbond:SER:135>  (435) 
0

>  <hydroph_interaction:TYR:150>  (435) 
1

>  <pistack:TYR:161>  (435) 
0

>  <hydroph_interaction:TYR:161>  (435) 
3

>  <hydroph_interaction:ASP:83>  (435) 
0

>  <hbond:TYR:130>  (435) 
0

>  <hydroph_interaction:ALA:132>  (435) 
1

>  <hbond:HIS:51>  (435) 
0

>  <hbond:ASP:129>  (435) 
0

>  <hbond:TYR:150>  (435) 
0

>  <hbond:GLY:151>  (435) 
0

>  <hbond:TYR:161>  (435) 
0

>  <hydroph_interaction:TYR:130>  (435) 
0

>  <hydroph_interaction:PRO:131>  (435) 
0

>  <hydroph_interaction:ASP:129>  (435) 
0

>  <saltbridge:ASP:75>  (435) 
0

>  <saltbridge:ASP:83>  (435) 
0

>  <hydroph_interaction:ASN:152>  (435) 
0

>  <halogenbond:TYR:150>  (435) 
0

>  <hbond:ASP:83>  (435) 
0

>  <hydroph_interaction:VAL:155>  (435) 
0

>  <pication:TYR:161>  (435) 
0

>  <hbond:PRO:131>  (435) 
0

>  <hbond:LEU:128>  (435) 
0

>  <saltbridge:ASP:129>  (435) 
0

>  <hbond:THR:134>  (435) 
0

>  <pication:HIS:51>  (435) 
0

>  <hbond:SER:81>  (435) 
0

>  <hbond:GLY:159>  (435) 
0

>  <hydroph_interaction:PRO:101>  (435) 
0

>  <hydroph_interaction:THR:134>  (435) 
0

>  <hbond:GLY:82>  (435) 
0

>  <hydroph_interaction:GLU:104>  (435) 
0

>  <hydroph_interaction:VAL:36>  (435) 
0

>  <hydroph_interaction:MET:49>  (435) 
0

>  <halogenbond:GLU:104>  (435) 
0

>  <hydroph_interaction:LYS:107>  (435) 
0

$$$$
MCULE-3175566379
     RDKit          3D

 20 21  0  0  0  0  0  0  0  0999 V2000
   -6.1313    5.2868  -18.0001 C   0  0  0  0  0  0  0  0  0  0  0  0
   -4.8575    5.4664  -18.2529 O   0  0  0  0  0  0  0  0  0  0  0  0
   -4.7142    5.5334  -19.5644 C   0  0  0  0  0  0  0  0  0  0  0  0
   -5.9455    5.3922  -20.1949 C   0  0  0  0  0  0  0  0  0  0  0  0
   -6.8441    5.2333  -19.1663 C   0  0  0  0  0  0  0  0  0  0  0  0
   -8.2243    5.0517  -19.1825 C   0  0  0  0  0  0  0  0  0  0  0  0
   -8.8874    4.9075  -17.9443 C   0  0  0  0  0  0  0  0  0  0  0  0
  -10.3780    4.7496  -17.9056 C   0  0  0  0  0  0  0  0  0  0  0  0
   -8.1493    4.9779  -16.7350 C   0  0  0  0  0  0  0  0  0  0  0  0
   -6.7513    5.1633  -16.7557 C   0  0  0  0  0  0  0  0  0  0  0  0
   -5.9980    5.2282  -15.5425 N   0  0  0  0  0  0  0  0  0  0  0  0
   -3.7658    5.6785  -20.0640 H   0  0  0  0  0  0  0  0  0  0  0  0
   -6.1489    5.4046  -21.2575 H   0  0  0  0  0  0  0  0  0  0  0  0
   -8.7660    5.0229  -20.1200 H   0  0  0  0  0  0  0  0  0  0  0  0
  -10.7420    4.2357  -18.8207 H   0  0  0  0  0  0  0  0  0  0  0  0
  -10.8533    5.7505  -17.8389 H   0  0  0  0  0  0  0  0  0  0  0  0
  -10.6838    4.1434  -17.0265 H   0  0  0  0  0  0  0  0  0  0  0  0
   -8.6616    4.8888  -15.7847 H   0  0  0  0  0  0  0  0  0  0  0  0
   -4.9632    5.3677  -15.5621 H   0  0  0  0  0  0  0  0  0  0  0  0
   -6.4714    5.1366  -14.6162 H   0  0  0  0  0  0  0  0  0  0  0  0
  1  2  1  0
  2  3  1  0
  3  4  2  0
  4  5  1  0
  5  6  1  0
  6  7  2  0
  7  8  1  0
  7  9  1  0
  9 10  2  0
 10 11  1  0
  5  1  2  0
  1 10  1  0
  3 12  1  0
  4 13  1  0
  6 14  1  0
  8 15  1  0
  8 16  1  0
  8 17  1  0
  9 18  1  0
 11 19  1  0
 11 20  1  0
A    1
 C1 
A    2
 O1 
A    3
 C2 
A    4
 C3 
A    5
 C4 
A    6
 C5 
A    7
 C6 
A    8
 C7 
A    9
 C8 
A   10
 C9 
A   11
 N1 
A   12
 H1 
A   13
 H2 
A   14
 H3 
A   15
 H4 
A   16
 H5 
A   17
 H6 
A   18
 H7 
A   19
 H8 
A   20
 H9 
M  END
>  <ref_pdb>  (436) 
x0051_0B

>  <ref_mols>  (436) 
x0605_0B,x0386_0B

>  <original SMILES>  (436) 
[H]c1oc2c(N([H])[H])c([H])c(C([H])([H])[H])c([H])c2c1[H]

>  <index>  (436) 
713

>  <∆∆G>  (436) 
-6.832085

>  <∆G_bound>  (436) 
-6.826099

>  <∆G_unbound>  (436) 
0.005987

>  <comRMSD>  (436) 
0.743871

>  <N_constrained_atoms>  (436) 
11.0

>  <N_unconstrained_atoms>  (436) 
2.0

>  <runtime>  (436) 
21.272017

>  <LE>  (436) 
0.525545

>  <percent_hybrid>  (436) 
34.0

>  <dist>  (436) 
2.0

>  <ecfp4>  (436) 
0.275

>  <daylight>  (436) 
0.318182

>  <topodist>  (436) 
2.0

>  <mces>  (436) 
10.0

>  <tdn>  (436) 
0.0

>  <tup>  (436) 
1.0

>  <rdn>  (436) 
0.0

>  <rup>  (436) 
1.0

>  <ldn>  (436) 
0.0

>  <lup>  (436) 
0.0

>  <mut>  (436) 
0.0

>  <maj>  (436) 
0.0

>  <min>  (436) 
0.0

>  <hyb>  (436) 
0.0

>  <sub>  (436) 
2.0

>  <query_index>  (436) 
312.0

>  <max_hit_Tanimoto>  (436) 
0.103093

>  <largest_ring>  (436) 
6

>  <N_interactions_kept>  (436) 
1.0

>  <N_interactions_lost>  (436) 
1.5

>  <interaction_uniqueness_metric>  (436) 
0.04341

>  <ad_hoc_penalty>  (436) 
-18.665455

>  <N_rotatable_bonds>  (436) 
2

>  <N_HA>  (436) 
11

>  <cluster>  (436) 
5567

>  <N_interactions>  (436) 
4

>  <Enamine>  (436) 
0

>  <Mcule>  (436) 
1

>  <N_PAINS>  (436) 
0

>  <UFF_Gibbs>  (436) 
39.027319

>  <strain_per_HA>  (436) 
3.002101

>  <saltbridge:HIS:51>  (436) 
0

>  <pistack:HIS:51>  (436) 
0

>  <hydroph_interaction:HIS:51>  (436) 
0

>  <hbond:ALA:132>  (436) 
0

>  <hbond:SER:135>  (436) 
0

>  <hydroph_interaction:TYR:150>  (436) 
1

>  <pistack:TYR:161>  (436) 
2

>  <hydroph_interaction:TYR:161>  (436) 
1

>  <hydroph_interaction:ASP:83>  (436) 
0

>  <hbond:TYR:130>  (436) 
0

>  <hydroph_interaction:ALA:132>  (436) 
0

>  <hbond:HIS:51>  (436) 
0

>  <hbond:ASP:129>  (436) 
0

>  <hbond:TYR:150>  (436) 
0

>  <hbond:GLY:151>  (436) 
0

>  <hbond:TYR:161>  (436) 
0

>  <hydroph_interaction:TYR:130>  (436) 
0

>  <hydroph_interaction:PRO:131>  (436) 
0

>  <hydroph_interaction:ASP:129>  (436) 
0

>  <saltbridge:ASP:75>  (436) 
0

>  <saltbridge:ASP:83>  (436) 
0

>  <hydroph_interaction:ASN:152>  (436) 
0

>  <halogenbond:TYR:150>  (436) 
0

>  <hbond:ASP:83>  (436) 
0

>  <hydroph_interaction:VAL:155>  (436) 
0

>  <pication:TYR:161>  (436) 
0

>  <hbond:PRO:131>  (436) 
0

>  <hbond:LEU:128>  (436) 
0

>  <saltbridge:ASP:129>  (436) 
0

>  <hbond:THR:134>  (436) 
0

>  <pication:HIS:51>  (436) 
0

>  <hbond:SER:81>  (436) 
0

>  <hbond:GLY:159>  (436) 
0

>  <hydroph_interaction:PRO:101>  (436) 
0

>  <hydroph_interaction:THR:134>  (436) 
0

>  <hbond:GLY:82>  (436) 
0

>  <hydroph_interaction:GLU:104>  (436) 
0

>  <hydroph_interaction:VAL:36>  (436) 
0

>  <hydroph_interaction:MET:49>  (436) 
0

>  <halogenbond:GLU:104>  (436) 
0

>  <hydroph_interaction:LYS:107>  (436) 
0

$$$$
MVOQNEDHMIZRKT-UHFFFAOYSA-N
     RDKit          3D

 53 56  0  0  0  0  0  0  0  0999 V2000
   -7.7387    6.5183  -14.3604 C   0  0  0  0  0  0  0  0  0  0  0  0
   -6.9054    5.6459  -15.1449 N   0  0  0  0  0  0  0  0  0  0  0  0
   -7.5653    4.8752  -16.1675 C   0  0  0  0  0  0  0  0  0  0  0  0
   -7.3446    5.1578  -17.5341 C   0  0  0  0  0  0  0  0  0  0  0  0
   -8.1099    4.5066  -18.5095 C   0  0  0  0  0  0  0  0  0  0  0  0
   -9.0567    3.5481  -18.1409 C   0  0  0  0  0  0  0  0  0  0  0  0
   -9.2603    3.2486  -16.7926 C   0  0  0  0  0  0  0  0  0  0  0  0
   -8.5264    3.9160  -15.8091 C   0  0  0  0  0  0  0  0  0  0  0  0
   -6.3831    6.1384  -17.9505 N   0  0  0  0  0  0  0  0  0  0  0  0
   -5.2146    6.3142  -17.4054 C   0  0  0  0  0  0  0  0  0  0  0  0
   -4.3364    7.4043  -17.9383 C   0  0  0  0  0  0  0  0  0  0  0  0
   -4.7087    5.3806  -16.3291 C   0  0  0  0  0  0  0  0  0  0  0  0
   -5.4269    5.6056  -14.9703 C   0  0  0  0  0  0  0  0  0  0  0  0
   -4.8982    6.9241  -14.3508 C   0  0  0  0  0  0  0  0  0  0  0  0
   -5.0597    4.4400  -14.0325 C   0  0  0  0  0  0  0  0  0  0  0  0
   -8.1562    7.5893  -14.8779 O   0  0  0  0  0  0  0  0  0  0  0  0
   -8.1257    6.1675  -12.9785 C   0  0  0  0  0  0  0  0  0  0  0  0
   -7.8984    4.9135  -12.5066 N   0  0  0  0  0  0  0  0  0  0  0  0
   -8.2415    4.5544  -11.2687 N   0  0  0  0  0  0  0  0  0  0  0  0
   -8.8368    5.4247  -10.4082 C   0  0  0  0  0  0  0  0  0  0  0  0
   -9.2008    4.9908   -9.0836 N   0  0  0  0  0  0  0  0  0  0  0  0
   -9.4892    3.5720   -8.8515 C   0  0  0  0  0  0  0  0  0  0  0  0
  -10.3840    3.4174   -7.6179 C   0  0  0  0  0  0  0  0  0  0  0  0
   -9.8264    4.0892   -6.5045 O   0  0  0  0  0  0  0  0  0  0  0  0
   -9.7963    5.4818   -6.7532 C   0  0  0  0  0  0  0  0  0  0  0  0
   -8.8516    5.8070   -7.9144 C   0  0  0  0  0  0  0  0  0  0  0  0
   -9.1138    6.7245  -10.8500 C   0  0  0  0  0  0  0  0  0  0  0  0
   -8.7540    7.0984  -12.1427 C   0  0  0  0  0  0  0  0  0  0  0  0
   -7.9597    4.7332  -19.5576 H   0  0  0  0  0  0  0  0  0  0  0  0
   -9.6354    3.0391  -18.9009 H   0  0  0  0  0  0  0  0  0  0  0  0
   -9.9980    2.5095  -16.5085 H   0  0  0  0  0  0  0  0  0  0  0  0
   -8.7133    3.6915  -14.7679 H   0  0  0  0  0  0  0  0  0  0  0  0
   -4.8467    8.3826  -17.8152 H   0  0  0  0  0  0  0  0  0  0  0  0
   -4.1389    7.2308  -19.0168 H   0  0  0  0  0  0  0  0  0  0  0  0
   -3.3663    7.4465  -17.4007 H   0  0  0  0  0  0  0  0  0  0  0  0
   -3.6099    5.4965  -16.2010 H   0  0  0  0  0  0  0  0  0  0  0  0
   -4.8562    4.3336  -16.6759 H   0  0  0  0  0  0  0  0  0  0  0  0
   -5.3044    7.0770  -13.3279 H   0  0  0  0  0  0  0  0  0  0  0  0
   -3.7898    6.9072  -14.2707 H   0  0  0  0  0  0  0  0  0  0  0  0
   -5.1911    7.7941  -14.9761 H   0  0  0  0  0  0  0  0  0  0  0  0
   -5.5210    3.4943  -14.3898 H   0  0  0  0  0  0  0  0  0  0  0  0
   -3.9576    4.3006  -13.9916 H   0  0  0  0  0  0  0  0  0  0  0  0
   -5.4087    4.6335  -12.9984 H   0  0  0  0  0  0  0  0  0  0  0  0
   -8.5351    3.0241   -8.6914 H   0  0  0  0  0  0  0  0  0  0  0  0
  -10.0109    3.1332   -9.7301 H   0  0  0  0  0  0  0  0  0  0  0  0
  -10.4688    2.3378   -7.3730 H   0  0  0  0  0  0  0  0  0  0  0  0
  -11.4132    3.7848   -7.8349 H   0  0  0  0  0  0  0  0  0  0  0  0
  -10.8178    5.8758   -6.9605 H   0  0  0  0  0  0  0  0  0  0  0  0
   -9.4284    5.9959   -5.8402 H   0  0  0  0  0  0  0  0  0  0  0  0
   -8.9212    6.8912   -8.1369 H   0  0  0  0  0  0  0  0  0  0  0  0
   -7.8055    5.5813   -7.6136 H   0  0  0  0  0  0  0  0  0  0  0  0
   -9.6252    7.4360  -10.2160 H   0  0  0  0  0  0  0  0  0  0  0  0
   -8.9674    8.1034  -12.4850 H   0  0  0  0  0  0  0  0  0  0  0  0
  1  2  1  0
  2  3  1  0
  3  4  1  0
  4  5  2  0
  5  6  1  0
  6  7  2  0
  7  8  1  0
  4  9  1  0
  9 10  2  0
 10 11  1  0
 10 12  1  0
 12 13  1  0
 13 14  1  0
 13 15  1  0
  1 16  2  0
  1 17  1  0
 17 18  2  0
 18 19  1  0
 19 20  2  0
 20 21  1  0
 21 22  1  0
 22 23  1  0
 23 24  1  0
 24 25  1  0
 25 26  1  0
 20 27  1  0
 27 28  2  0
 13  2  1  0
  8  3  2  0
 28 17  1  0
 26 21  1  0
  5 29  1  0
  6 30  1  0
  7 31  1  0
  8 32  1  0
 11 33  1  0
 11 34  1  0
 11 35  1  0
 12 36  1  0
 12 37  1  0
 14 38  1  0
 14 39  1  0
 14 40  1  0
 15 41  1  0
 15 42  1  0
 15 43  1  0
 22 44  1  0
 22 45  1  0
 23 46  1  0
 23 47  1  0
 25 48  1  0
 25 49  1  0
 26 50  1  0
 26 51  1  0
 27 52  1  0
 28 53  1  0
A    1
 C1 
A    2
 N1 
A    3
 C2 
A    4
 C3 
A    5
 C4 
A    6
 C5 
A    7
 C6 
A    8
 C7 
A    9
 N2 
A   10
 C8 
A   11
 C9 
A   12
 C10
A   13
 C11
A   14
 C12
A   15
 C13
A   16
 O1 
A   17
 C14
A   18
 N3 
A   19
 N4 
A   20
 C15
A   21
 N5 
A   22
 C16
A   23
 C17
A   24
 O2 
A   25
 C18
A   26
 C19
A   27
 C20
A   28
 C21
A   29
 H1 
A   30
 H2 
A   31
 H3 
A   32
 H4 
A   33
 H5 
A   34
 H6 
A   35
 H7 
A   36
 H8 
A   37
 H9 
A   38
 H10
A   39
 H11
A   40
 H12
A   41
 H13
A   42
 H14
A   43
 H15
A   44
 H16
A   45
 H17
A   46
 H18
A   47
 H19
A   48
 H20
A   49
 H21
A   50
 H22
A   51
 H23
A   52
 H24
A   53
 H25
M  END
>  <ref_pdb>  (437) 
x0051_0B

>  <ref_mols>  (437) 
x0089_0B,x0404_0B

>  <original SMILES>  (437) 
[H]c1c(C(=O)N2c3c([H])c([H])c([H])c([H])c3N=C(C([H])([H])[H])C([H])([H])C2(C([H])([H])[H])C([H])([H])[H])nnc(N2C([H])([H])C([H])([H])OC([H])([H])C2([H])[H])c1[H]

>  <index>  (437) 
857

>  <∆∆G>  (437) 
-7.39488

>  <∆G_bound>  (437) 
-7.164389

>  <∆G_unbound>  (437) 
0.230491

>  <comRMSD>  (437) 
0.86652

>  <N_constrained_atoms>  (437) 
24.0

>  <N_unconstrained_atoms>  (437) 
6.0

>  <runtime>  (437) 
72.081738

>  <LE>  (437) 
0.246496

>  <percent_hybrid>  (437) 
38.0

>  <dist>  (437) 
12.0

>  <ecfp4>  (437) 
0.180851

>  <daylight>  (437) 
0.185075

>  <topodist>  (437) 
4.0

>  <mces>  (437) 
30.0

>  <tdn>  (437) 
1.0

>  <tup>  (437) 
0.0

>  <rdn>  (437) 
1.0

>  <rup>  (437) 
1.0

>  <ldn>  (437) 
1.0

>  <lup>  (437) 
0.0

>  <mut>  (437) 
6.0

>  <maj>  (437) 
6.0

>  <min>  (437) 
0.0

>  <hyb>  (437) 
2.0

>  <sub>  (437) 
2.0

>  <query_index>  (437) 
3.0

>  <max_hit_Tanimoto>  (437) 
0.18859

>  <largest_ring>  (437) 
7

>  <N_interactions_kept>  (437) 
2.5

>  <N_interactions_lost>  (437) 
2.0

>  <interaction_uniqueness_metric>  (437) 
0.082184

>  <ad_hoc_penalty>  (437) 
-18.572359

>  <N_rotatable_bonds>  (437) 
5

>  <N_HA>  (437) 
28

>  <cluster>  (437) 
5434

>  <N_interactions>  (437) 
6

>  <Enamine>  (437) 
0

>  <Mcule>  (437) 
1

>  <N_PAINS>  (437) 
0

>  <UFF_Gibbs>  (437) 
67.336419

>  <strain_per_HA>  (437) 
2.244547

>  <saltbridge:HIS:51>  (437) 
0

>  <pistack:HIS:51>  (437) 
1

>  <hydroph_interaction:HIS:51>  (437) 
0

>  <hbond:ALA:132>  (437) 
0

>  <hbond:SER:135>  (437) 
0

>  <hydroph_interaction:TYR:150>  (437) 
1

>  <pistack:TYR:161>  (437) 
0

>  <hydroph_interaction:TYR:161>  (437) 
3

>  <hydroph_interaction:ASP:83>  (437) 
0

>  <hbond:TYR:130>  (437) 
0

>  <hydroph_interaction:ALA:132>  (437) 
1

>  <hbond:HIS:51>  (437) 
0

>  <hbond:ASP:129>  (437) 
0

>  <hbond:TYR:150>  (437) 
0

>  <hbond:GLY:151>  (437) 
0

>  <hbond:TYR:161>  (437) 
0

>  <hydroph_interaction:TYR:130>  (437) 
0

>  <hydroph_interaction:PRO:131>  (437) 
0

>  <hydroph_interaction:ASP:129>  (437) 
0

>  <saltbridge:ASP:75>  (437) 
0

>  <saltbridge:ASP:83>  (437) 
0

>  <hydroph_interaction:ASN:152>  (437) 
0

>  <halogenbond:TYR:150>  (437) 
0

>  <hbond:ASP:83>  (437) 
0

>  <hydroph_interaction:VAL:155>  (437) 
0

>  <pication:TYR:161>  (437) 
0

>  <hbond:PRO:131>  (437) 
0

>  <hbond:LEU:128>  (437) 
0

>  <saltbridge:ASP:129>  (437) 
0

>  <hbond:THR:134>  (437) 
0

>  <pication:HIS:51>  (437) 
0

>  <hbond:SER:81>  (437) 
0

>  <hbond:GLY:159>  (437) 
0

>  <hydroph_interaction:PRO:101>  (437) 
0

>  <hydroph_interaction:THR:134>  (437) 
0

>  <hbond:GLY:82>  (437) 
0

>  <hydroph_interaction:GLU:104>  (437) 
0

>  <hydroph_interaction:VAL:36>  (437) 
0

>  <hydroph_interaction:MET:49>  (437) 
0

>  <halogenbond:GLU:104>  (437) 
0

>  <hydroph_interaction:LYS:107>  (437) 
0

$$$$
Z2444685070
     RDKit          3D

 48 50  0  0  0  0  0  0  0  0999 V2000
   -2.7297    4.0901  -20.1053 C   0  0  0  0  0  0  0  0  0  0  0  0
   -3.0949    5.5419  -20.4328 C   0  0  0  0  0  0  0  0  0  0  0  0
   -1.8314    6.3955  -20.5209 C   0  0  0  0  0  0  0  0  0  0  0  0
   -3.9367    6.0816  -19.4119 O   0  0  0  0  0  0  0  0  0  0  0  0
   -5.2770    5.7301  -19.1647 C   0  0  0  0  0  0  0  0  0  0  0  0
   -6.0228    4.9795  -20.0901 C   0  0  0  0  0  0  0  0  0  0  0  0
   -7.3394    4.6212  -19.8200 C   0  0  0  0  0  0  0  0  0  0  0  0
   -7.9435    4.9960  -18.6169 C   0  0  0  0  0  0  0  0  0  0  0  0
   -9.2672    4.6098  -18.3516 C   0  0  0  0  0  0  0  0  0  0  0  0
   -9.8771    4.9665  -17.1495 C   0  0  0  0  0  0  0  0  0  0  0  0
   -9.1739    5.7088  -16.2026 C   0  0  0  0  0  0  0  0  0  0  0  0
   -7.8576    6.1038  -16.4520 C   0  0  0  0  0  0  0  0  0  0  0  0
   -7.2179    5.7596  -17.6651 C   0  0  0  0  0  0  0  0  0  0  0  0
   -5.8781    6.1460  -17.9529 C   0  0  0  0  0  0  0  0  0  0  0  0
   -5.0584    6.9498  -16.9566 C   0  0  0  0  0  0  0  0  0  0  0  0
   -4.7186    6.1243  -15.7793 N   0  0  0  0  0  0  0  0  0  0  0  0
   -4.2909    6.9864  -14.6592 C   0  0  0  0  0  0  0  0  0  0  0  0
   -4.0583    6.1478  -13.3988 C   0  0  0  0  0  0  0  0  0  0  0  0
   -3.0221    5.0496  -13.6595 C   0  0  0  0  0  0  0  0  0  0  0  0
   -3.3655    4.2248  -14.9108 C   0  0  0  0  0  0  0  0  0  0  0  0
   -4.4909    3.3228  -14.6439 N   0  0  0  0  0  0  0  0  0  0  0  0
   -3.6532    5.1511  -16.1089 C   0  0  0  0  0  0  0  0  0  0  0  0
   -2.2237    4.0329  -19.1176 H   0  0  0  0  0  0  0  0  0  0  0  0
   -3.6406    3.4582  -20.0703 H   0  0  0  0  0  0  0  0  0  0  0  0
   -2.0533    3.6787  -20.8846 H   0  0  0  0  0  0  0  0  0  0  0  0
   -3.6020    5.5938  -21.4198 H   0  0  0  0  0  0  0  0  0  0  0  0
   -2.1044    7.4444  -20.7634 H   0  0  0  0  0  0  0  0  0  0  0  0
   -1.2870    6.3852  -19.5521 H   0  0  0  0  0  0  0  0  0  0  0  0
   -1.1610    6.0131  -21.3202 H   0  0  0  0  0  0  0  0  0  0  0  0
   -5.5958    4.6622  -21.0299 H   0  0  0  0  0  0  0  0  0  0  0  0
   -7.8857    4.0399  -20.5538 H   0  0  0  0  0  0  0  0  0  0  0  0
   -9.8291    4.0284  -19.0733 H   0  0  0  0  0  0  0  0  0  0  0  0
  -10.8971    4.6640  -16.9500 H   0  0  0  0  0  0  0  0  0  0  0  0
   -9.6506    5.9795  -15.2692 H   0  0  0  0  0  0  0  0  0  0  0  0
   -7.3553    6.6723  -15.6826 H   0  0  0  0  0  0  0  0  0  0  0  0
   -5.6623    7.8358  -16.6606 H   0  0  0  0  0  0  0  0  0  0  0  0
   -4.1378    7.3788  -17.4108 H   0  0  0  0  0  0  0  0  0  0  0  0
   -3.3623    7.5447  -14.9197 H   0  0  0  0  0  0  0  0  0  0  0  0
   -5.0851    7.7294  -14.4251 H   0  0  0  0  0  0  0  0  0  0  0  0
   -5.0184    5.6936  -13.0713 H   0  0  0  0  0  0  0  0  0  0  0  0
   -3.6973    6.8060  -12.5793 H   0  0  0  0  0  0  0  0  0  0  0  0
   -2.9549    4.3826  -12.7727 H   0  0  0  0  0  0  0  0  0  0  0  0
   -2.0247    5.5223  -13.7995 H   0  0  0  0  0  0  0  0  0  0  0  0
   -2.4762    3.6031  -15.1592 H   0  0  0  0  0  0  0  0  0  0  0  0
   -5.3814    3.8676  -14.5844 H   0  0  0  0  0  0  0  0  0  0  0  0
   -4.5889    2.6671  -15.4529 H   0  0  0  0  0  0  0  0  0  0  0  0
   -2.7160    5.6781  -16.4019 H   0  0  0  0  0  0  0  0  0  0  0  0
   -3.9602    4.5161  -16.9676 H   0  0  0  0  0  0  0  0  0  0  0  0
  1  2  1  0
  2  3  1  0
  2  4  1  0
  4  5  1  0
  5  6  2  0
  6  7  1  0
  7  8  2  0
  8  9  1  0
  9 10  2  0
 10 11  1  0
 11 12  2  0
 12 13  1  0
 13 14  2  0
 14 15  1  0
 15 16  1  0
 16 17  1  0
 17 18  1  0
 18 19  1  0
 19 20  1  0
 20 21  1  0
 20 22  1  0
 14  5  1  0
 13  8  1  0
 22 16  1  0
  1 23  1  0
  1 24  1  0
  1 25  1  0
  2 26  1  0
  3 27  1  0
  3 28  1  0
  3 29  1  0
  6 30  1  0
  7 31  1  0
  9 32  1  0
 10 33  1  0
 11 34  1  0
 12 35  1  0
 15 36  1  0
 15 37  1  0
 17 38  1  0
 17 39  1  0
 18 40  1  0
 18 41  1  0
 19 42  1  0
 19 43  1  0
 20 44  1  0
 21 45  1  0
 21 46  1  0
 22 47  1  0
 22 48  1  0
A    1
 C1 
A    2
 C2 
A    3
 C3 
A    4
 O1 
A    5
 C4 
A    6
 C5 
A    7
 C6 
A    8
 C7 
A    9
 C8 
A   10
 C9 
A   11
 C10
A   12
 C11
A   13
 C12
A   14
 C13
A   15
 C14
A   16
 N1 
A   17
 C15
A   18
 C16
A   19
 C17
A   20
 C18
A   21
 N2 
A   22
 C19
A   23
 H1 
A   24
 H2 
A   25
 H3 
A   26
 H4 
A   27
 H5 
A   28
 H6 
A   29
 H7 
A   30
 H8 
A   31
 H9 
A   32
 H10
A   33
 H11
A   34
 H12
A   35
 H13
A   36
 H14
A   37
 H15
A   38
 H16
A   39
 H17
A   40
 H18
A   41
 H19
A   42
 H20
A   43
 H21
A   44
 H22
A   45
 H23
A   46
 H24
A   47
 H25
A   48
 H26
M  END
>  <ref_pdb>  (438) 
x0051_0B

>  <ref_mols>  (438) 
x0429_0B,x0089_0B

>  <original SMILES>  (438) 
[H]c1c([H])c([H])c2c(C([H])([H])N3C([H])([H])C([H])([H])C([H])([H])C([H])(N([H])[H])C3([H])[H])c(OC([H])(C([H])([H])[H])C([H])([H])[H])c([H])c([H])c2c1[H]

>  <index>  (438) 
646

>  <∆∆G>  (438) 
-8.289104

>  <∆G_bound>  (438) 
-7.864795

>  <∆G_unbound>  (438) 
0.42431

>  <comRMSD>  (438) 
0.82615

>  <N_constrained_atoms>  (438) 
18.0

>  <N_unconstrained_atoms>  (438) 
4.0

>  <runtime>  (438) 
28.511585

>  <LE>  (438) 
0.376777

>  <percent_hybrid>  (438) 
25.0

>  <dist>  (438) 
5.0

>  <ecfp4>  (438) 
0.185714

>  <daylight>  (438) 
0.148387

>  <topodist>  (438) 
2.0

>  <mces>  (438) 
22.0

>  <tdn>  (438) 
0.0

>  <tup>  (438) 
1.0

>  <rdn>  (438) 
0.0

>  <rup>  (438) 
0.0

>  <ldn>  (438) 
0.0

>  <lup>  (438) 
1.0

>  <mut>  (438) 
3.0

>  <maj>  (438) 
3.0

>  <min>  (438) 
0.0

>  <hyb>  (438) 
0.0

>  <sub>  (438) 
1.0

>  <query_index>  (438) 
103.0

>  <max_hit_Tanimoto>  (438) 
0.189286

>  <largest_ring>  (438) 
6

>  <N_interactions_kept>  (438) 
2.0

>  <N_interactions_lost>  (438) 
1.5

>  <interaction_uniqueness_metric>  (438) 
0.126166

>  <ad_hoc_penalty>  (438) 
-18.560361

>  <N_rotatable_bonds>  (438) 
7

>  <N_HA>  (438) 
22

>  <cluster>  (438) 
5627

>  <N_interactions>  (438) 
6

>  <Enamine>  (438) 
1

>  <Mcule>  (438) 
0

>  <N_PAINS>  (438) 
0

>  <UFF_Gibbs>  (438) 
101.630228

>  <strain_per_HA>  (438) 
4.619556

>  <saltbridge:HIS:51>  (438) 
0

>  <pistack:HIS:51>  (438) 
0

>  <hydroph_interaction:HIS:51>  (438) 
0

>  <hbond:ALA:132>  (438) 
0

>  <hbond:SER:135>  (438) 
0

>  <hydroph_interaction:TYR:150>  (438) 
1

>  <pistack:TYR:161>  (438) 
0

>  <hydroph_interaction:TYR:161>  (438) 
2

>  <hydroph_interaction:ASP:83>  (438) 
0

>  <hbond:TYR:130>  (438) 
0

>  <hydroph_interaction:ALA:132>  (438) 
1

>  <hbond:HIS:51>  (438) 
0

>  <hbond:ASP:129>  (438) 
0

>  <hbond:TYR:150>  (438) 
0

>  <hbond:GLY:151>  (438) 
0

>  <hbond:TYR:161>  (438) 
1

>  <hydroph_interaction:TYR:130>  (438) 
0

>  <hydroph_interaction:PRO:131>  (438) 
0

>  <hydroph_interaction:ASP:129>  (438) 
0

>  <saltbridge:ASP:75>  (438) 
0

>  <saltbridge:ASP:83>  (438) 
0

>  <hydroph_interaction:ASN:152>  (438) 
0

>  <halogenbond:TYR:150>  (438) 
0

>  <hbond:ASP:83>  (438) 
0

>  <hydroph_interaction:VAL:155>  (438) 
1

>  <pication:TYR:161>  (438) 
0

>  <hbond:PRO:131>  (438) 
0

>  <hbond:LEU:128>  (438) 
0

>  <saltbridge:ASP:129>  (438) 
0

>  <hbond:THR:134>  (438) 
0

>  <pication:HIS:51>  (438) 
0

>  <hbond:SER:81>  (438) 
0

>  <hbond:GLY:159>  (438) 
0

>  <hydroph_interaction:PRO:101>  (438) 
0

>  <hydroph_interaction:THR:134>  (438) 
0

>  <hbond:GLY:82>  (438) 
0

>  <hydroph_interaction:GLU:104>  (438) 
0

>  <hydroph_interaction:VAL:36>  (438) 
0

>  <hydroph_interaction:MET:49>  (438) 
0

>  <halogenbond:GLU:104>  (438) 
0

>  <hydroph_interaction:LYS:107>  (438) 
0

$$$$
Z2079182017
     RDKit          3D

 44 48  0  0  0  0  0  0  0  0999 V2000
   -4.2320    4.7816  -19.9547 O   0  0  0  0  0  0  0  0  0  0  0  0
   -4.9551    5.8095  -19.8452 C   0  0  0  0  0  0  0  0  0  0  0  0
   -5.7044    6.2984  -21.0274 C   0  0  0  0  0  0  0  0  0  0  0  0
   -6.0830    5.4023  -22.0421 C   0  0  0  0  0  0  0  0  0  0  0  0
   -6.7849    5.8555  -23.1630 C   0  0  0  0  0  0  0  0  0  0  0  0
   -7.1259    7.2105  -23.2852 C   0  0  0  0  0  0  0  0  0  0  0  0
   -7.8571    7.7040  -24.4996 C   0  0  0  0  0  0  0  0  0  0  0  0
   -6.6614    8.3683  -25.7025 S   0  0  0  0  0  0  0  0  0  0  0  0
   -7.9175    8.7055  -26.9318 C   0  0  0  0  0  0  0  0  0  0  0  0
   -8.2812    7.8021  -27.8801 N   0  0  0  0  0  0  0  0  0  0  0  0
   -9.2346    8.4627  -28.5613 C   0  0  0  0  0  0  0  0  0  0  0  0
   -9.9630    8.0140  -29.6605 C   0  0  0  0  0  0  0  0  0  0  0  0
  -10.9162    8.8896  -30.2149 C   0  0  0  0  0  0  0  0  0  0  0  0
  -11.1139   10.1761  -29.6621 C   0  0  0  0  0  0  0  0  0  0  0  0
  -10.3554   10.6006  -28.5544 C   0  0  0  0  0  0  0  0  0  0  0  0
   -9.4234    9.7062  -28.0336 C   0  0  0  0  0  0  0  0  0  0  0  0
   -8.5939    9.8777  -26.9984 N   0  0  0  0  0  0  0  0  0  0  0  0
   -6.7281    8.1115  -22.2864 C   0  0  0  0  0  0  0  0  0  0  0  0
   -6.0180    7.6615  -21.1704 C   0  0  0  0  0  0  0  0  0  0  0  0
   -5.0157    6.4901  -18.5812 N   0  0  0  0  0  0  0  0  0  0  0  0
   -4.0327    6.3542  -17.4977 C   0  0  0  0  0  0  0  0  0  0  0  0
   -4.6772    7.0407  -16.2596 C   0  0  0  0  0  0  0  0  0  0  0  0
   -5.9749    7.4627  -16.7503 N   0  0  0  0  0  0  0  0  0  0  0  0
   -7.1314    7.4805  -16.1130 N   0  0  0  0  0  0  0  0  0  0  0  0
   -8.0796    7.2300  -17.0467 C   0  0  0  0  0  0  0  0  0  0  0  0
   -7.4821    6.9487  -18.2717 C   0  0  0  0  0  0  0  0  0  0  0  0
   -6.1413    7.1300  -18.0107 C   0  0  0  0  0  0  0  0  0  0  0  0
   -5.8429    4.3496  -21.9652 H   0  0  0  0  0  0  0  0  0  0  0  0
   -7.0647    5.1486  -23.9343 H   0  0  0  0  0  0  0  0  0  0  0  0
   -8.5741    8.5031  -24.2103 H   0  0  0  0  0  0  0  0  0  0  0  0
   -8.4354    6.8753  -24.9643 H   0  0  0  0  0  0  0  0  0  0  0  0
   -9.8024    7.0282  -30.0763 H   0  0  0  0  0  0  0  0  0  0  0  0
  -11.5004    8.5767  -31.0704 H   0  0  0  0  0  0  0  0  0  0  0  0
  -11.8491   10.8400  -30.0970 H   0  0  0  0  0  0  0  0  0  0  0  0
  -10.4929   11.5841  -28.1242 H   0  0  0  0  0  0  0  0  0  0  0  0
   -8.4915   10.7171  -26.3856 H   0  0  0  0  0  0  0  0  0  0  0  0
   -6.9585    9.1660  -22.3792 H   0  0  0  0  0  0  0  0  0  0  0  0
   -5.7026    8.3836  -20.4282 H   0  0  0  0  0  0  0  0  0  0  0  0
   -3.0831    6.8548  -17.7808 H   0  0  0  0  0  0  0  0  0  0  0  0
   -3.8475    5.2805  -17.2834 H   0  0  0  0  0  0  0  0  0  0  0  0
   -4.7941    6.3202  -15.4222 H   0  0  0  0  0  0  0  0  0  0  0  0
   -4.0868    7.9240  -15.9382 H   0  0  0  0  0  0  0  0  0  0  0  0
   -9.1356    7.1489  -16.8275 H   0  0  0  0  0  0  0  0  0  0  0  0
   -7.9484    6.5359  -19.1556 H   0  0  0  0  0  0  0  0  0  0  0  0
  1  2  2  0
  2  3  1  0
  3  4  2  0
  4  5  1  0
  5  6  2  0
  6  7  1  0
  7  8  1  0
  8  9  1  0
  9 10  2  0
 10 11  1  0
 11 12  2  0
 12 13  1  0
 13 14  2  0
 14 15  1  0
 15 16  2  0
 16 17  1  0
  6 18  1  0
 18 19  2  0
  2 20  1  0
 20 21  1  0
 21 22  1  0
 22 23  1  0
 23 24  1  0
 24 25  2  0
 25 26  1  0
 26 27  2  0
 19  3  1  0
 17  9  1  0
 16 11  1  0
 27 20  1  0
 27 23  1  0
  4 28  1  0
  5 29  1  0
  7 30  1  0
  7 31  1  0
 12 32  1  0
 13 33  1  0
 14 34  1  0
 15 35  1  0
 17 36  1  0
 18 37  1  0
 19 38  1  0
 21 39  1  0
 21 40  1  0
 22 41  1  0
 22 42  1  0
 25 43  1  0
 26 44  1  0
A    1
 O1 
A    2
 C1 
A    3
 C2 
A    4
 C3 
A    5
 C4 
A    6
 C5 
A    7
 C6 
A    8
 S1 
A    9
 C7 
A   10
 N1 
A   11
 C8 
A   12
 C9 
A   13
 C10
A   14
 C11
A   15
 C12
A   16
 C13
A   17
 N2 
A   18
 C14
A   19
 C15
A   20
 N3 
A   21
 C16
A   22
 C17
A   23
 N4 
A   24
 N5 
A   25
 C18
A   26
 C19
A   27
 C20
A   28
 H1 
A   29
 H2 
A   30
 H3 
A   31
 H4 
A   32
 H5 
A   33
 H6 
A   34
 H7 
A   35
 H8 
A   36
 H9 
A   37
 H10
A   38
 H11
A   39
 H12
A   40
 H13
A   41
 H14
A   42
 H15
A   43
 H16
A   44
 H17
M  END
>  <ref_pdb>  (439) 
x0051_0B

>  <ref_mols>  (439) 
x0846_1B,x0969_0B

>  <original SMILES>  (439) 
[H]c1nn2c(c1[H])N(C(=O)c1c([H])c([H])c(C([H])([H])Sc3nc4c([H])c([H])c([H])c([H])c4n3[H])c([H])c1[H])C([H])([H])C2([H])[H]

>  <index>  (439) 
785

>  <∆∆G>  (439) 
-6.945694

>  <∆G_bound>  (439) 
-6.539086

>  <∆G_unbound>  (439) 
0.406608

>  <comRMSD>  (439) 
0.987507

>  <N_constrained_atoms>  (439) 
28.0

>  <N_unconstrained_atoms>  (439) 
2.0

>  <runtime>  (439) 
48.153993

>  <LE>  (439) 
0.231523

>  <percent_hybrid>  (439) 
36.0

>  <dist>  (439) 
6.0

>  <ecfp4>  (439) 
0.247312

>  <daylight>  (439) 
0.382911

>  <topodist>  (439) 
4.0

>  <mces>  (439) 
30.0

>  <tdn>  (439) 
2.0

>  <tup>  (439) 
1.0

>  <rdn>  (439) 
0.0

>  <rup>  (439) 
0.0

>  <ldn>  (439) 
1.0

>  <lup>  (439) 
0.0

>  <mut>  (439) 
2.0

>  <maj>  (439) 
2.0

>  <min>  (439) 
0.0

>  <hyb>  (439) 
0.0

>  <sub>  (439) 
2.0

>  <query_index>  (439) 
45.0

>  <max_hit_Tanimoto>  (439) 
0.264574

>  <largest_ring>  (439) 
6

>  <N_interactions_kept>  (439) 
0.5

>  <N_interactions_lost>  (439) 
2.0

>  <interaction_uniqueness_metric>  (439) 
0.18165

>  <ad_hoc_penalty>  (439) 
-18.558514

>  <N_rotatable_bonds>  (439) 
4

>  <N_HA>  (439) 
27

>  <cluster>  (439) 
5498

>  <N_interactions>  (439) 
5

>  <Enamine>  (439) 
1

>  <Mcule>  (439) 
0

>  <N_PAINS>  (439) 
0

>  <UFF_Gibbs>  (439) 
113.28455

>  <strain_per_HA>  (439) 
3.776152

>  <saltbridge:HIS:51>  (439) 
0

>  <pistack:HIS:51>  (439) 
0

>  <hydroph_interaction:HIS:51>  (439) 
0

>  <hbond:ALA:132>  (439) 
0

>  <hbond:SER:135>  (439) 
0

>  <hydroph_interaction:TYR:150>  (439) 
0

>  <pistack:TYR:161>  (439) 
1

>  <hydroph_interaction:TYR:161>  (439) 
0

>  <hydroph_interaction:ASP:83>  (439) 
0

>  <hbond:TYR:130>  (439) 
1

>  <hydroph_interaction:ALA:132>  (439) 
0

>  <hbond:HIS:51>  (439) 
0

>  <hbond:ASP:129>  (439) 
1

>  <hbond:TYR:150>  (439) 
0

>  <hbond:GLY:151>  (439) 
0

>  <hbond:TYR:161>  (439) 
0

>  <hydroph_interaction:TYR:130>  (439) 
1

>  <hydroph_interaction:PRO:131>  (439) 
1

>  <hydroph_interaction:ASP:129>  (439) 
0

>  <saltbridge:ASP:75>  (439) 
0

>  <saltbridge:ASP:83>  (439) 
0

>  <hydroph_interaction:ASN:152>  (439) 
0

>  <halogenbond:TYR:150>  (439) 
0

>  <hbond:ASP:83>  (439) 
0

>  <hydroph_interaction:VAL:155>  (439) 
0

>  <pication:TYR:161>  (439) 
0

>  <hbond:PRO:131>  (439) 
0

>  <hbond:LEU:128>  (439) 
0

>  <saltbridge:ASP:129>  (439) 
0

>  <hbond:THR:134>  (439) 
0

>  <pication:HIS:51>  (439) 
0

>  <hbond:SER:81>  (439) 
0

>  <hbond:GLY:159>  (439) 
0

>  <hydroph_interaction:PRO:101>  (439) 
0

>  <hydroph_interaction:THR:134>  (439) 
0

>  <hbond:GLY:82>  (439) 
0

>  <hydroph_interaction:GLU:104>  (439) 
0

>  <hydroph_interaction:VAL:36>  (439) 
0

>  <hydroph_interaction:MET:49>  (439) 
0

>  <halogenbond:GLU:104>  (439) 
0

>  <hydroph_interaction:LYS:107>  (439) 
0

$$$$
FOTHZHJCNJAJNH-UHFFFAOYSA-N
     RDKit          3D

 30 31  0  0  0  0  0  0  0  0999 V2000
   -4.8004    5.8774  -17.1003 C   0  0  0  0  0  0  0  0  0  0  0  0
   -5.9709    5.3642  -16.4402 N   0  0  0  0  0  0  0  0  0  0  0  0
   -7.2549    5.2318  -17.0652 C   0  0  0  0  0  0  0  0  0  0  0  0
   -8.3751    5.9460  -16.5761 C   0  0  0  0  0  0  0  0  0  0  0  0
   -8.2416    6.8703  -15.3848 C   0  0  0  0  0  0  0  0  0  0  0  0
   -9.3922    7.6131  -15.1821 F   0  0  0  0  0  0  0  0  0  0  0  0
   -7.9963    6.1221  -14.2483 F   0  0  0  0  0  0  0  0  0  0  0  0
   -7.1927    7.7500  -15.5842 F   0  0  0  0  0  0  0  0  0  0  0  0
   -9.6233    5.7679  -17.2055 C   0  0  0  0  0  0  0  0  0  0  0  0
   -9.7523    4.9076  -18.2983 C   0  0  0  0  0  0  0  0  0  0  0  0
   -8.6465    4.1998  -18.7670 C   0  0  0  0  0  0  0  0  0  0  0  0
   -7.4061    4.3530  -18.1476 C   0  0  0  0  0  0  0  0  0  0  0  0
   -3.6689    5.6269  -16.6057 O   0  0  0  0  0  0  0  0  0  0  0  0
   -4.8643    6.7301  -18.3477 C   0  0  0  0  0  0  0  0  0  0  0  0
   -6.0986    7.4009  -18.4447 O   0  0  0  0  0  0  0  0  0  0  0  0
   -6.3971    7.4974  -19.8144 C   0  0  0  0  0  0  0  0  0  0  0  0
   -5.7456    6.3361  -20.5363 C   0  0  0  0  0  0  0  0  0  0  0  0
   -4.6323    5.9134  -19.6164 C   0  0  0  0  0  0  0  0  0  0  0  0
   -5.8800    5.0611  -15.4446 H   0  0  0  0  0  0  0  0  0  0  0  0
  -10.5040    6.2911  -16.8563 H   0  0  0  0  0  0  0  0  0  0  0  0
  -10.7152    4.7822  -18.7766 H   0  0  0  0  0  0  0  0  0  0  0  0
   -8.7523    3.5241  -19.6059 H   0  0  0  0  0  0  0  0  0  0  0  0
   -6.5633    3.7753  -18.5017 H   0  0  0  0  0  0  0  0  0  0  0  0
   -4.0672    7.5044  -18.2721 H   0  0  0  0  0  0  0  0  0  0  0  0
   -7.4984    7.4739  -19.9579 H   0  0  0  0  0  0  0  0  0  0  0  0
   -6.0069    8.4625  -20.2066 H   0  0  0  0  0  0  0  0  0  0  0  0
   -6.4757    5.5073  -20.6646 H   0  0  0  0  0  0  0  0  0  0  0  0
   -5.3599    6.6465  -21.5319 H   0  0  0  0  0  0  0  0  0  0  0  0
   -3.6444    6.1660  -20.0611 H   0  0  0  0  0  0  0  0  0  0  0  0
   -4.6674    4.8167  -19.4379 H   0  0  0  0  0  0  0  0  0  0  0  0
  1  2  1  0
  2  3  1  0
  3  4  2  0
  4  5  1  0
  5  6  1  0
  5  7  1  0
  5  8  1  0
  4  9  1  0
  9 10  2  0
 10 11  1  0
 11 12  2  0
  1 13  2  0
  1 14  1  0
 14 15  1  0
 15 16  1  0
 16 17  1  0
 17 18  1  0
 12  3  1  0
 18 14  1  0
  2 19  1  0
  9 20  1  0
 10 21  1  0
 11 22  1  0
 12 23  1  0
 14 24  1  0
 16 25  1  0
 16 26  1  0
 17 27  1  0
 17 28  1  0
 18 29  1  0
 18 30  1  0
A    1
 C1 
A    2
 N1 
A    3
 C2 
A    4
 C3 
A    5
 C4 
A    6
 F1 
A    7
 F2 
A    8
 F3 
A    9
 C5 
A   10
 C6 
A   11
 C7 
A   12
 C8 
A   13
 O1 
A   14
 C9 
A   15
 O2 
A   16
 C10
A   17
 C11
A   18
 C12
A   19
 H1 
A   20
 H2 
A   21
 H3 
A   22
 H4 
A   23
 H5 
A   24
 H6 
A   25
 H7 
A   26
 H8 
A   27
 H9 
A   28
 H10
A   29
 H11
A   30
 H12
M  END
>  <ref_pdb>  (440) 
x0051_0B

>  <ref_mols>  (440) 
x0229_0B,x0917_0B

>  <original SMILES>  (440) 
[H]c1c([H])c([H])c(C(F)(F)F)c(N([H])C(=O)C2([H])OC([H])([H])C([H])([H])C2([H])[H])c1[H]

>  <index>  (440) 
638

>  <∆∆G>  (440) 
-6.043506

>  <∆G_bound>  (440) 
-4.537732

>  <∆G_unbound>  (440) 
1.505774

>  <comRMSD>  (440) 
0.611815

>  <N_constrained_atoms>  (440) 
20.0

>  <N_unconstrained_atoms>  (440) 
0.0

>  <runtime>  (440) 
27.323306

>  <LE>  (440) 
0.302175

>  <percent_hybrid>  (440) 
45.0

>  <dist>  (440) 
3.0

>  <ecfp4>  (440) 
0.311475

>  <daylight>  (440) 
0.443243

>  <topodist>  (440) 
2.0

>  <mces>  (440) 
19.0

>  <tdn>  (440) 
1.0

>  <tup>  (440) 
0.0

>  <rdn>  (440) 
1.0

>  <rup>  (440) 
0.0

>  <ldn>  (440) 
0.0

>  <lup>  (440) 
0.0

>  <mut>  (440) 
1.0

>  <maj>  (440) 
1.0

>  <min>  (440) 
0.0

>  <hyb>  (440) 
0.0

>  <sub>  (440) 
2.0

>  <query_index>  (440) 
181.0

>  <max_hit_Tanimoto>  (440) 
0.353755

>  <largest_ring>  (440) 
6

>  <N_interactions_kept>  (440) 
2.0

>  <N_interactions_lost>  (440) 
2.0

>  <interaction_uniqueness_metric>  (440) 
0.053763

>  <ad_hoc_penalty>  (440) 
-18.533293

>  <N_rotatable_bonds>  (440) 
2

>  <N_HA>  (440) 
18

>  <cluster>  (440) 
5635

>  <N_interactions>  (440) 
5

>  <Enamine>  (440) 
0

>  <Mcule>  (440) 
1

>  <N_PAINS>  (440) 
0

>  <UFF_Gibbs>  (440) 
80.524683

>  <strain_per_HA>  (440) 
4.026234

>  <saltbridge:HIS:51>  (440) 
0

>  <pistack:HIS:51>  (440) 
0

>  <hydroph_interaction:HIS:51>  (440) 
0

>  <hbond:ALA:132>  (440) 
0

>  <hbond:SER:135>  (440) 
0

>  <hydroph_interaction:TYR:150>  (440) 
1

>  <pistack:TYR:161>  (440) 
0

>  <hydroph_interaction:TYR:161>  (440) 
3

>  <hydroph_interaction:ASP:83>  (440) 
0

>  <hbond:TYR:130>  (440) 
0

>  <hydroph_interaction:ALA:132>  (440) 
1

>  <hbond:HIS:51>  (440) 
0

>  <hbond:ASP:129>  (440) 
0

>  <hbond:TYR:150>  (440) 
0

>  <hbond:GLY:151>  (440) 
0

>  <hbond:TYR:161>  (440) 
0

>  <hydroph_interaction:TYR:130>  (440) 
0

>  <hydroph_interaction:PRO:131>  (440) 
0

>  <hydroph_interaction:ASP:129>  (440) 
0

>  <saltbridge:ASP:75>  (440) 
0

>  <saltbridge:ASP:83>  (440) 
0

>  <hydroph_interaction:ASN:152>  (440) 
0

>  <halogenbond:TYR:150>  (440) 
0

>  <hbond:ASP:83>  (440) 
0

>  <hydroph_interaction:VAL:155>  (440) 
0

>  <pication:TYR:161>  (440) 
0

>  <hbond:PRO:131>  (440) 
0

>  <hbond:LEU:128>  (440) 
0

>  <saltbridge:ASP:129>  (440) 
0

>  <hbond:THR:134>  (440) 
0

>  <pication:HIS:51>  (440) 
0

>  <hbond:SER:81>  (440) 
0

>  <hbond:GLY:159>  (440) 
0

>  <hydroph_interaction:PRO:101>  (440) 
0

>  <hydroph_interaction:THR:134>  (440) 
0

>  <hbond:GLY:82>  (440) 
0

>  <hydroph_interaction:GLU:104>  (440) 
0

>  <hydroph_interaction:VAL:36>  (440) 
0

>  <hydroph_interaction:MET:49>  (440) 
0

>  <halogenbond:GLU:104>  (440) 
0

>  <hydroph_interaction:LYS:107>  (440) 
0

$$$$
CSSB00009845419
     RDKit          3D

 24 26  0  0  0  0  0  0  0  0999 V2000
   -4.8756    5.9632  -19.6122 O   0  0  0  0  0  0  0  0  0  0  0  0
   -5.9493    5.5160  -19.1302 C   0  0  0  0  0  0  0  0  0  0  0  0
   -7.1581    5.4170  -19.8829 N   0  0  0  0  0  0  0  0  0  0  0  0
   -8.1285    4.9838  -18.9435 C   0  0  0  0  0  0  0  0  0  0  0  0
   -9.5121    4.9988  -19.1179 C   0  0  0  0  0  0  0  0  0  0  0  0
  -10.3275    4.8373  -17.9833 C   0  0  0  0  0  0  0  0  0  0  0  0
   -9.7518    4.7615  -16.6970 C   0  0  0  0  0  0  0  0  0  0  0  0
   -8.3517    4.7902  -16.5442 C   0  0  0  0  0  0  0  0  0  0  0  0
   -7.5708    4.7920  -17.6995 C   0  0  0  0  0  0  0  0  0  0  0  0
   -6.0980    4.9833  -17.7347 C   0  0  0  0  0  0  0  0  0  0  0  0
   -5.6965    5.9217  -16.5952 C   0  0  0  0  0  0  0  0  0  0  0  0
   -6.1766    5.3047  -15.2624 C   0  0  0  0  0  0  0  0  0  0  0  0
   -7.7142    5.0860  -15.2029 C   0  0  0  0  0  0  0  0  0  0  0  0
   -7.3294    5.7734  -20.8492 H   0  0  0  0  0  0  0  0  0  0  0  0
   -9.9478    5.1740  -20.0928 H   0  0  0  0  0  0  0  0  0  0  0  0
  -11.4044    4.8508  -18.0898 H   0  0  0  0  0  0  0  0  0  0  0  0
  -10.3940    4.7552  -15.8253 H   0  0  0  0  0  0  0  0  0  0  0  0
   -5.5821    4.0023  -17.6460 H   0  0  0  0  0  0  0  0  0  0  0  0
   -6.1541    6.9270  -16.7325 H   0  0  0  0  0  0  0  0  0  0  0  0
   -4.5913    6.0349  -16.5777 H   0  0  0  0  0  0  0  0  0  0  0  0
   -5.6679    4.3262  -15.1168 H   0  0  0  0  0  0  0  0  0  0  0  0
   -5.8671    5.9629  -14.4221 H   0  0  0  0  0  0  0  0  0  0  0  0
   -7.9440    4.2603  -14.4960 H   0  0  0  0  0  0  0  0  0  0  0  0
   -8.1790    6.0124  -14.8008 H   0  0  0  0  0  0  0  0  0  0  0  0
  1  2  2  0
  2  3  1  0
  3  4  1  0
  4  5  2  0
  5  6  1  0
  6  7  2  0
  7  8  1  0
  8  9  2  0
  9 10  1  0
 10 11  1  0
 11 12  1  0
 12 13  1  0
 10  2  1  0
  9  4  1  0
 13  8  1  0
  3 14  1  0
  5 15  1  0
  6 16  1  0
  7 17  1  0
 10 18  1  0
 11 19  1  0
 11 20  1  0
 12 21  1  0
 12 22  1  0
 13 23  1  0
 13 24  1  0
A    1
 O1 
A    2
 C1 
A    3
 N1 
A    4
 C2 
A    5
 C3 
A    6
 C4 
A    7
 C5 
A    8
 C6 
A    9
 C7 
A   10
 C8 
A   11
 C9 
A   12
 C10
A   13
 C11
A   14
 H1 
A   15
 H2 
A   16
 H3 
A   17
 H4 
A   18
 H5 
A   19
 H6 
A   20
 H7 
A   21
 H8 
A   22
 H9 
A   23
 H10
A   24
 H11
M  END
>  <ref_pdb>  (441) 
x0051_0B

>  <ref_mols>  (441) 
x0443_0B,x0455_0B

>  <original SMILES>  (441) 
[H]c1c([H])c2c3c(c1[H])C([H])([H])C([H])([H])C([H])([H])C3([H])C(=O)N2[H]

>  <index>  (441) 
372

>  <∆∆G>  (441) 
-5.746188

>  <∆G_bound>  (441) 
-5.623537

>  <∆G_unbound>  (441) 
0.122651

>  <comRMSD>  (441) 
0.431983

>  <N_constrained_atoms>  (441) 
14.0

>  <N_unconstrained_atoms>  (441) 
0.0

>  <runtime>  (441) 
19.154027

>  <LE>  (441) 
0.410442

>  <percent_hybrid>  (441) 
43.0

>  <dist>  (441) 
3.0

>  <ecfp4>  (441) 
0.306122

>  <daylight>  (441) 
0.372881

>  <topodist>  (441) 
0.0

>  <mces>  (441) 
15.0

>  <tdn>  (441) 
0.0

>  <tup>  (441) 
0.0

>  <rdn>  (441) 
0.0

>  <rup>  (441) 
0.0

>  <ldn>  (441) 
0.0

>  <lup>  (441) 
0.0

>  <mut>  (441) 
2.0

>  <maj>  (441) 
2.0

>  <min>  (441) 
0.0

>  <hyb>  (441) 
1.0

>  <sub>  (441) 
0.0

>  <query_index>  (441) 
244.0

>  <max_hit_Tanimoto>  (441) 
0.251348

>  <largest_ring>  (441) 
6

>  <N_interactions_kept>  (441) 
1.0

>  <N_interactions_lost>  (441) 
2.0

>  <interaction_uniqueness_metric>  (441) 
0.05615

>  <ad_hoc_penalty>  (441) 
-18.473665

>  <N_rotatable_bonds>  (441) 
0

>  <N_HA>  (441) 
13

>  <cluster>  (441) 
5877

>  <N_interactions>  (441) 
5

>  <Enamine>  (441) 
1

>  <Mcule>  (441) 
0

>  <N_PAINS>  (441) 
0

>  <UFF_Gibbs>  (441) 
111.149461

>  <strain_per_HA>  (441) 
7.939247

>  <saltbridge:HIS:51>  (441) 
0

>  <pistack:HIS:51>  (441) 
0

>  <hydroph_interaction:HIS:51>  (441) 
0

>  <hbond:ALA:132>  (441) 
0

>  <hbond:SER:135>  (441) 
0

>  <hydroph_interaction:TYR:150>  (441) 
1

>  <pistack:TYR:161>  (441) 
0

>  <hydroph_interaction:TYR:161>  (441) 
3

>  <hydroph_interaction:ASP:83>  (441) 
0

>  <hbond:TYR:130>  (441) 
1

>  <hydroph_interaction:ALA:132>  (441) 
0

>  <hbond:HIS:51>  (441) 
0

>  <hbond:ASP:129>  (441) 
0

>  <hbond:TYR:150>  (441) 
0

>  <hbond:GLY:151>  (441) 
0

>  <hbond:TYR:161>  (441) 
0

>  <hydroph_interaction:TYR:130>  (441) 
0

>  <hydroph_interaction:PRO:131>  (441) 
0

>  <hydroph_interaction:ASP:129>  (441) 
0

>  <saltbridge:ASP:75>  (441) 
0

>  <saltbridge:ASP:83>  (441) 
0

>  <hydroph_interaction:ASN:152>  (441) 
0

>  <halogenbond:TYR:150>  (441) 
0

>  <hbond:ASP:83>  (441) 
0

>  <hydroph_interaction:VAL:155>  (441) 
0

>  <pication:TYR:161>  (441) 
0

>  <hbond:PRO:131>  (441) 
0

>  <hbond:LEU:128>  (441) 
0

>  <saltbridge:ASP:129>  (441) 
0

>  <hbond:THR:134>  (441) 
0

>  <pication:HIS:51>  (441) 
0

>  <hbond:SER:81>  (441) 
0

>  <hbond:GLY:159>  (441) 
0

>  <hydroph_interaction:PRO:101>  (441) 
0

>  <hydroph_interaction:THR:134>  (441) 
0

>  <hbond:GLY:82>  (441) 
0

>  <hydroph_interaction:GLU:104>  (441) 
0

>  <hydroph_interaction:VAL:36>  (441) 
0

>  <hydroph_interaction:MET:49>  (441) 
0

>  <halogenbond:GLU:104>  (441) 
0

>  <hydroph_interaction:LYS:107>  (441) 
0

$$$$
Z5318864218
     RDKit          3D

 45 47  0  0  0  0  0  0  0  0999 V2000
   -4.0401    4.3130  -18.6311 C   0  0  0  0  0  0  0  0  0  0  0  0
   -4.8756    5.5688  -18.4080 C   0  0  0  0  0  0  0  0  0  0  0  0
   -6.2440    5.2131  -17.9053 C   0  0  0  0  0  0  0  0  0  0  0  0
   -7.2814    4.9142  -18.8002 C   0  0  0  0  0  0  0  0  0  0  0  0
   -8.5365    4.5635  -18.3004 C   0  0  0  0  0  0  0  0  0  0  0  0
   -8.7442    4.5017  -16.9217 C   0  0  0  0  0  0  0  0  0  0  0  0
   -7.6800    4.7815  -16.0532 C   0  0  0  0  0  0  0  0  0  0  0  0
   -7.8783    4.7516  -14.5682 C   0  0  0  0  0  0  0  0  0  0  0  0
   -8.4875    6.0137  -14.1312 N   0  0  0  0  0  0  0  0  0  0  0  0
   -8.9946    5.9410  -12.7520 C   0  0  0  0  0  0  0  0  0  0  0  0
   -7.8649    5.9438  -11.7093 C   0  0  0  0  0  0  0  0  0  0  0  0
   -8.4320    5.9656  -10.3219 C   0  0  0  0  0  0  0  0  0  0  0  0
   -8.8872    4.9000   -9.5718 C   0  0  0  0  0  0  0  0  0  0  0  0
   -8.9400    3.4507   -9.9574 C   0  0  0  0  0  0  0  0  0  0  0  0
   -9.2145    2.5791   -8.7217 C   0  0  0  0  0  0  0  0  0  0  0  0
  -10.3485    3.1641   -7.8633 C   0  0  0  0  0  0  0  0  0  0  0  0
   -9.9840    4.5697   -7.3574 C   0  0  0  0  0  0  0  0  0  0  0  0
   -9.4348    5.3814   -8.4417 N   0  0  0  0  0  0  0  0  0  0  0  0
   -9.3291    6.7007   -8.4131 N   0  0  0  0  0  0  0  0  0  0  0  0
   -8.7299    7.0840   -9.5606 C   0  0  0  0  0  0  0  0  0  0  0  0
   -6.4682    5.1339  -16.5645 N   0  0  0  0  0  0  0  0  0  0  0  0
   -3.0300    4.5978  -18.9936 H   0  0  0  0  0  0  0  0  0  0  0  0
   -4.5202    3.6604  -19.3916 H   0  0  0  0  0  0  0  0  0  0  0  0
   -3.9315    3.7478  -17.6807 H   0  0  0  0  0  0  0  0  0  0  0  0
   -4.9528    6.1362  -19.3610 H   0  0  0  0  0  0  0  0  0  0  0  0
   -4.3645    6.2214  -17.6673 H   0  0  0  0  0  0  0  0  0  0  0  0
   -7.1194    4.9550  -19.8702 H   0  0  0  0  0  0  0  0  0  0  0  0
   -9.3478    4.3402  -18.9812 H   0  0  0  0  0  0  0  0  0  0  0  0
   -9.7204    4.2369  -16.5345 H   0  0  0  0  0  0  0  0  0  0  0  0
   -6.8940    4.6025  -14.0723 H   0  0  0  0  0  0  0  0  0  0  0  0
   -8.5298    3.8871  -14.3095 H   0  0  0  0  0  0  0  0  0  0  0  0
   -7.7765    6.7799  -14.2011 H   0  0  0  0  0  0  0  0  0  0  0  0
   -9.6429    6.8273  -12.5779 H   0  0  0  0  0  0  0  0  0  0  0  0
   -9.6377    5.0425  -12.6219 H   0  0  0  0  0  0  0  0  0  0  0  0
   -7.2300    5.0413  -11.8229 H   0  0  0  0  0  0  0  0  0  0  0  0
   -7.2209    6.8382  -11.8532 H   0  0  0  0  0  0  0  0  0  0  0  0
   -9.7546    3.3076  -10.6991 H   0  0  0  0  0  0  0  0  0  0  0  0
   -7.9787    3.1436  -10.4210 H   0  0  0  0  0  0  0  0  0  0  0  0
   -9.4900    1.5539   -9.0502 H   0  0  0  0  0  0  0  0  0  0  0  0
   -8.2897    2.5040   -8.1080 H   0  0  0  0  0  0  0  0  0  0  0  0
  -10.5405    2.4976   -6.9951 H   0  0  0  0  0  0  0  0  0  0  0  0
  -11.2794    3.2182   -8.4695 H   0  0  0  0  0  0  0  0  0  0  0  0
  -10.8900    5.0609   -6.9421 H   0  0  0  0  0  0  0  0  0  0  0  0
   -9.2259    4.4874   -6.5491 H   0  0  0  0  0  0  0  0  0  0  0  0
   -8.5365    8.1132   -9.8321 H   0  0  0  0  0  0  0  0  0  0  0  0
  1  2  1  0
  2  3  1  0
  3  4  2  0
  4  5  1  0
  5  6  2  0
  6  7  1  0
  7  8  1  0
  8  9  1  0
  9 10  1  0
 10 11  1  0
 11 12  1  0
 12 13  2  0
 13 14  1  0
 14 15  1  0
 15 16  1  0
 16 17  1  0
 17 18  1  0
 18 19  1  0
 19 20  2  0
  7 21  2  0
 21  3  1  0
 20 12  1  0
 18 13  1  0
  1 22  1  0
  1 23  1  0
  1 24  1  0
  2 25  1  0
  2 26  1  0
  4 27  1  0
  5 28  1  0
  6 29  1  0
  8 30  1  0
  8 31  1  0
  9 32  1  0
 10 33  1  0
 10 34  1  0
 11 35  1  0
 11 36  1  0
 14 37  1  0
 14 38  1  0
 15 39  1  0
 15 40  1  0
 16 41  1  0
 16 42  1  0
 17 43  1  0
 17 44  1  0
 20 45  1  0
A    1
 C1 
A    2
 C2 
A    3
 C3 
A    4
 C4 
A    5
 C5 
A    6
 C6 
A    7
 C7 
A    8
 C8 
A    9
 N1 
A   10
 C9 
A   11
 C10
A   12
 C11
A   13
 C12
A   14
 C13
A   15
 C14
A   16
 C15
A   17
 C16
A   18
 N2 
A   19
 N3 
A   20
 C17
A   21
 N4 
A   22
 H1 
A   23
 H2 
A   24
 H3 
A   25
 H4 
A   26
 H5 
A   27
 H6 
A   28
 H7 
A   29
 H8 
A   30
 H9 
A   31
 H10
A   32
 H11
A   33
 H12
A   34
 H13
A   35
 H14
A   36
 H15
A   37
 H16
A   38
 H17
A   39
 H18
A   40
 H19
A   41
 H20
A   42
 H21
A   43
 H22
A   44
 H23
A   45
 H24
M  END
>  <ref_pdb>  (442) 
x0051_0B

>  <ref_mols>  (442) 
x0605_0B,x0969_1B

>  <original SMILES>  (442) 
[H]c1nn2c(c1C([H])([H])C([H])([H])N([H])C([H])([H])c1nc(C([H])([H])C([H])([H])[H])c([H])c([H])c1[H])C([H])([H])C([H])([H])C([H])([H])C2([H])[H]

>  <index>  (442) 
897

>  <∆∆G>  (442) 
-7.594199

>  <∆G_bound>  (442) 
-7.262147

>  <∆G_unbound>  (442) 
0.332052

>  <comRMSD>  (442) 
0.325295

>  <N_constrained_atoms>  (442) 
17.0

>  <N_unconstrained_atoms>  (442) 
5.0

>  <runtime>  (442) 
78.705388

>  <LE>  (442) 
0.345191

>  <percent_hybrid>  (442) 
42.0

>  <dist>  (442) 
5.0

>  <ecfp4>  (442) 
0.333333

>  <daylight>  (442) 
0.305263

>  <topodist>  (442) 
0.0

>  <mces>  (442) 
23.0

>  <tdn>  (442) 
0.0

>  <tup>  (442) 
0.0

>  <rdn>  (442) 
0.0

>  <rup>  (442) 
0.0

>  <ldn>  (442) 
0.0

>  <lup>  (442) 
0.0

>  <mut>  (442) 
3.0

>  <maj>  (442) 
3.0

>  <min>  (442) 
0.0

>  <hyb>  (442) 
2.0

>  <sub>  (442) 
0.0

>  <query_index>  (442) 
307.0

>  <max_hit_Tanimoto>  (442) 
0.372067

>  <largest_ring>  (442) 
6

>  <N_interactions_kept>  (442) 
2.0

>  <N_interactions_lost>  (442) 
1.0

>  <interaction_uniqueness_metric>  (442) 
0.138996

>  <ad_hoc_penalty>  (442) 
-18.446712

>  <N_rotatable_bonds>  (442) 
7

>  <N_HA>  (442) 
21

>  <cluster>  (442) 
5397

>  <N_interactions>  (442) 
5

>  <Enamine>  (442) 
1

>  <Mcule>  (442) 
0

>  <N_PAINS>  (442) 
0

>  <UFF_Gibbs>  (442) 
52.533188

>  <strain_per_HA>  (442) 
2.387872

>  <saltbridge:HIS:51>  (442) 
0

>  <pistack:HIS:51>  (442) 
1

>  <hydroph_interaction:HIS:51>  (442) 
0

>  <hbond:ALA:132>  (442) 
0

>  <hbond:SER:135>  (442) 
0

>  <hydroph_interaction:TYR:150>  (442) 
0

>  <pistack:TYR:161>  (442) 
1

>  <hydroph_interaction:TYR:161>  (442) 
2

>  <hydroph_interaction:ASP:83>  (442) 
1

>  <hbond:TYR:130>  (442) 
0

>  <hydroph_interaction:ALA:132>  (442) 
0

>  <hbond:HIS:51>  (442) 
0

>  <hbond:ASP:129>  (442) 
0

>  <hbond:TYR:150>  (442) 
0

>  <hbond:GLY:151>  (442) 
0

>  <hbond:TYR:161>  (442) 
0

>  <hydroph_interaction:TYR:130>  (442) 
0

>  <hydroph_interaction:PRO:131>  (442) 
0

>  <hydroph_interaction:ASP:129>  (442) 
0

>  <saltbridge:ASP:75>  (442) 
0

>  <saltbridge:ASP:83>  (442) 
0

>  <hydroph_interaction:ASN:152>  (442) 
0

>  <halogenbond:TYR:150>  (442) 
0

>  <hbond:ASP:83>  (442) 
0

>  <hydroph_interaction:VAL:155>  (442) 
0

>  <pication:TYR:161>  (442) 
0

>  <hbond:PRO:131>  (442) 
0

>  <hbond:LEU:128>  (442) 
0

>  <saltbridge:ASP:129>  (442) 
0

>  <hbond:THR:134>  (442) 
0

>  <pication:HIS:51>  (442) 
0

>  <hbond:SER:81>  (442) 
0

>  <hbond:GLY:159>  (442) 
0

>  <hydroph_interaction:PRO:101>  (442) 
0

>  <hydroph_interaction:THR:134>  (442) 
0

>  <hbond:GLY:82>  (442) 
0

>  <hydroph_interaction:GLU:104>  (442) 
0

>  <hydroph_interaction:VAL:36>  (442) 
0

>  <hydroph_interaction:MET:49>  (442) 
0

>  <halogenbond:GLU:104>  (442) 
0

>  <hydroph_interaction:LYS:107>  (442) 
0

$$$$
CSSB00010700526
     RDKit          3D

 24 25  0  0  0  0  0  0  0  0999 V2000
   -6.0618    6.4494  -19.9901 O   0  0  0  0  0  0  0  0  0  0  0  0
   -6.5763    5.1472  -20.0055 C   0  0  0  0  0  0  0  0  0  0  0  0
   -7.6437    5.0161  -18.9474 C   0  0  0  0  0  0  0  0  0  0  0  0
   -8.9846    4.9108  -19.3481 C   0  0  0  0  0  0  0  0  0  0  0  0
   -9.9983    4.7877  -18.4028 C   0  0  0  0  0  0  0  0  0  0  0  0
   -9.6937    4.8021  -17.0446 C   0  0  0  0  0  0  0  0  0  0  0  0
   -8.3661    4.9248  -16.6044 C   0  0  0  0  0  0  0  0  0  0  0  0
   -7.3231    5.0094  -17.5662 C   0  0  0  0  0  0  0  0  0  0  0  0
   -5.5844    5.0365  -17.0673 S   0  0  0  0  0  0  0  0  0  0  0  0
   -5.8570    6.0571  -15.5993 C   0  0  0  0  0  0  0  0  0  0  0  0
   -6.7108    5.2500  -14.6328 C   0  0  0  0  0  0  0  0  0  0  0  0
   -8.1617    5.1291  -15.1135 C   0  0  0  0  0  0  0  0  0  0  0  0
   -5.3434    6.4703  -20.6745 H   0  0  0  0  0  0  0  0  0  0  0  0
   -5.7648    4.4104  -19.8154 H   0  0  0  0  0  0  0  0  0  0  0  0
   -6.9889    4.9256  -21.0155 H   0  0  0  0  0  0  0  0  0  0  0  0
   -9.2489    4.9176  -20.3984 H   0  0  0  0  0  0  0  0  0  0  0  0
  -11.0286    4.7039  -18.7240 H   0  0  0  0  0  0  0  0  0  0  0  0
  -10.5041    4.7493  -16.3273 H   0  0  0  0  0  0  0  0  0  0  0  0
   -6.3461    7.0186  -15.8684 H   0  0  0  0  0  0  0  0  0  0  0  0
   -4.8734    6.2745  -15.1325 H   0  0  0  0  0  0  0  0  0  0  0  0
   -6.7015    5.7456  -13.6377 H   0  0  0  0  0  0  0  0  0  0  0  0
   -6.2741    4.2354  -14.4995 H   0  0  0  0  0  0  0  0  0  0  0  0
   -8.6932    6.0631  -14.8262 H   0  0  0  0  0  0  0  0  0  0  0  0
   -8.6465    4.2945  -14.5616 H   0  0  0  0  0  0  0  0  0  0  0  0
  1  2  1  0
  2  3  1  0
  3  4  2  0
  4  5  1  0
  5  6  2  0
  6  7  1  0
  7  8  2  0
  8  9  1  0
  9 10  1  0
 10 11  1  0
 11 12  1  0
  8  3  1  0
 12  7  1  0
  1 13  1  0
  2 14  1  0
  2 15  1  0
  4 16  1  0
  5 17  1  0
  6 18  1  0
 10 19  1  0
 10 20  1  0
 11 21  1  0
 11 22  1  0
 12 23  1  0
 12 24  1  0
A    1
 O1 
A    2
 C1 
A    3
 C2 
A    4
 C3 
A    5
 C4 
A    6
 C5 
A    7
 C6 
A    8
 C7 
A    9
 S1 
A   10
 C8 
A   11
 C9 
A   12
 C10
A   13
 H1 
A   14
 H2 
A   15
 H3 
A   16
 H4 
A   17
 H5 
A   18
 H6 
A   19
 H7 
A   20
 H8 
A   21
 H9 
A   22
 H10
A   23
 H11
A   24
 H12
M  END
>  <ref_pdb>  (443) 
x0051_0B

>  <ref_mols>  (443) 
x0455_0B,x0382_0B

>  <original SMILES>  (443) 
[H]OC([H])([H])c1c([H])c([H])c([H])c2c1SC([H])([H])C([H])([H])C2([H])[H]

>  <index>  (443) 
884

>  <∆∆G>  (443) 
-6.099028

>  <∆G_bound>  (443) 
-5.850943

>  <∆G_unbound>  (443) 
0.248085

>  <comRMSD>  (443) 
0.828433

>  <N_constrained_atoms>  (443) 
12.0

>  <N_unconstrained_atoms>  (443) 
1.0

>  <runtime>  (443) 
19.152496

>  <LE>  (443) 
0.469156

>  <percent_hybrid>  (443) 
29.0

>  <dist>  (443) 
2.0

>  <ecfp4>  (443) 
0.272727

>  <daylight>  (443) 
0.211429

>  <topodist>  (443) 
0.0

>  <mces>  (443) 
13.0

>  <tdn>  (443) 
0.0

>  <tup>  (443) 
0.0

>  <rdn>  (443) 
0.0

>  <rup>  (443) 
0.0

>  <ldn>  (443) 
0.0

>  <lup>  (443) 
0.0

>  <mut>  (443) 
2.0

>  <maj>  (443) 
2.0

>  <min>  (443) 
0.0

>  <hyb>  (443) 
0.0

>  <sub>  (443) 
0.0

>  <query_index>  (443) 
293.0

>  <max_hit_Tanimoto>  (443) 
0.157971

>  <largest_ring>  (443) 
6

>  <N_interactions_kept>  (443) 
0.0

>  <N_interactions_lost>  (443) 
1.5

>  <interaction_uniqueness_metric>  (443) 
0.031789

>  <ad_hoc_penalty>  (443) 
-18.442916

>  <N_rotatable_bonds>  (443) 
2

>  <N_HA>  (443) 
12

>  <cluster>  (443) 
5410

>  <N_interactions>  (443) 
4

>  <Enamine>  (443) 
1

>  <Mcule>  (443) 
0

>  <N_PAINS>  (443) 
0

>  <UFF_Gibbs>  (443) 
20.122861

>  <strain_per_HA>  (443) 
1.547912

>  <saltbridge:HIS:51>  (443) 
0

>  <pistack:HIS:51>  (443) 
0

>  <hydroph_interaction:HIS:51>  (443) 
0

>  <hbond:ALA:132>  (443) 
0

>  <hbond:SER:135>  (443) 
0

>  <hydroph_interaction:TYR:150>  (443) 
1

>  <pistack:TYR:161>  (443) 
0

>  <hydroph_interaction:TYR:161>  (443) 
3

>  <hydroph_interaction:ASP:83>  (443) 
0

>  <hbond:TYR:130>  (443) 
0

>  <hydroph_interaction:ALA:132>  (443) 
0

>  <hbond:HIS:51>  (443) 
0

>  <hbond:ASP:129>  (443) 
0

>  <hbond:TYR:150>  (443) 
0

>  <hbond:GLY:151>  (443) 
0

>  <hbond:TYR:161>  (443) 
0

>  <hydroph_interaction:TYR:130>  (443) 
0

>  <hydroph_interaction:PRO:131>  (443) 
0

>  <hydroph_interaction:ASP:129>  (443) 
0

>  <saltbridge:ASP:75>  (443) 
0

>  <saltbridge:ASP:83>  (443) 
0

>  <hydroph_interaction:ASN:152>  (443) 
0

>  <halogenbond:TYR:150>  (443) 
0

>  <hbond:ASP:83>  (443) 
0

>  <hydroph_interaction:VAL:155>  (443) 
0

>  <pication:TYR:161>  (443) 
0

>  <hbond:PRO:131>  (443) 
0

>  <hbond:LEU:128>  (443) 
0

>  <saltbridge:ASP:129>  (443) 
0

>  <hbond:THR:134>  (443) 
0

>  <pication:HIS:51>  (443) 
0

>  <hbond:SER:81>  (443) 
0

>  <hbond:GLY:159>  (443) 
0

>  <hydroph_interaction:PRO:101>  (443) 
0

>  <hydroph_interaction:THR:134>  (443) 
0

>  <hbond:GLY:82>  (443) 
0

>  <hydroph_interaction:GLU:104>  (443) 
0

>  <hydroph_interaction:VAL:36>  (443) 
0

>  <hydroph_interaction:MET:49>  (443) 
0

>  <halogenbond:GLU:104>  (443) 
0

>  <hydroph_interaction:LYS:107>  (443) 
0

$$$$
Z1541770349
     RDKit          3D

 31 32  0  0  0  0  0  0  0  0999 V2000
  -11.1550    5.0391  -18.6148 C   0  0  0  0  0  0  0  0  0  0  0  0
   -9.8314    5.0783  -17.9096 C   0  0  0  0  0  0  0  0  0  0  0  0
   -9.7771    5.0435  -16.5112 C   0  0  0  0  0  0  0  0  0  0  0  0
   -8.5505    5.1326  -15.8516 C   0  0  0  0  0  0  0  0  0  0  0  0
   -7.3555    5.2595  -16.5786 C   0  0  0  0  0  0  0  0  0  0  0  0
   -6.0472    5.3505  -15.8417 C   0  0  0  0  0  0  0  0  0  0  0  0
   -7.4010    5.3037  -17.9911 C   0  0  0  0  0  0  0  0  0  0  0  0
   -6.1950    5.4884  -18.7555 N   0  0  0  0  0  0  0  0  0  0  0  0
   -5.9276    4.8069  -19.9925 C   0  0  0  0  0  0  0  0  0  0  0  0
   -6.6896    3.8851  -20.3920 O   0  0  0  0  0  0  0  0  0  0  0  0
   -4.7777    5.1972  -20.8277 C   0  0  0  0  0  0  0  0  0  0  0  0
   -5.0091    5.5863  -22.1548 C   0  0  0  0  0  0  0  0  0  0  0  0
   -3.9373    5.9793  -22.9574 C   0  0  0  0  0  0  0  0  0  0  0  0
   -2.6743    5.9723  -22.4582 N   0  0  0  0  0  0  0  0  0  0  0  0
   -2.4141    5.5842  -21.1822 C   0  0  0  0  0  0  0  0  0  0  0  0
   -3.4554    5.1822  -20.3379 C   0  0  0  0  0  0  0  0  0  0  0  0
   -2.9401    4.4688  -18.4078 I   0  0  0  0  0  0  0  0  0  0  0  0
   -8.6462    5.2316  -18.6422 C   0  0  0  0  0  0  0  0  0  0  0  0
  -11.0520    4.5637  -19.6136 H   0  0  0  0  0  0  0  0  0  0  0  0
  -11.8942    4.4510  -18.0302 H   0  0  0  0  0  0  0  0  0  0  0  0
  -11.5355    6.0738  -18.7435 H   0  0  0  0  0  0  0  0  0  0  0  0
  -10.6863    4.9533  -15.9294 H   0  0  0  0  0  0  0  0  0  0  0  0
   -8.5355    5.1043  -14.7690 H   0  0  0  0  0  0  0  0  0  0  0  0
   -6.1742    5.1509  -14.7563 H   0  0  0  0  0  0  0  0  0  0  0  0
   -5.6192    6.3676  -15.9617 H   0  0  0  0  0  0  0  0  0  0  0  0
   -5.3357    4.5997  -16.2432 H   0  0  0  0  0  0  0  0  0  0  0  0
   -5.4828    6.1639  -18.3991 H   0  0  0  0  0  0  0  0  0  0  0  0
   -6.0137    5.6006  -22.5605 H   0  0  0  0  0  0  0  0  0  0  0  0
   -4.1100    6.2910  -23.9788 H   0  0  0  0  0  0  0  0  0  0  0  0
   -1.3921    5.5752  -20.8277 H   0  0  0  0  0  0  0  0  0  0  0  0
   -8.6979    5.3205  -19.7201 H   0  0  0  0  0  0  0  0  0  0  0  0
  1  2  1  0
  2  3  2  0
  3  4  1  0
  4  5  2  0
  5  6  1  0
  5  7  1  0
  7  8  1  0
  8  9  1  0
  9 10  2  0
  9 11  1  0
 11 12  2  0
 12 13  1  0
 13 14  2  0
 14 15  1  0
 15 16  2  0
 16 17  1  0
  7 18  2  0
 18  2  1  0
 16 11  1  0
  1 19  1  0
  1 20  1  0
  1 21  1  0
  3 22  1  0
  4 23  1  0
  6 24  1  0
  6 25  1  0
  6 26  1  0
  8 27  1  0
 12 28  1  0
 13 29  1  0
 15 30  1  0
 18 31  1  0
A    1
 C1 
A    2
 C2 
A    3
 C3 
A    4
 C4 
A    5
 C5 
A    6
 C6 
A    7
 C7 
A    8
 N1 
A    9
 C8 
A   10
 O1 
A   11
 C9 
A   12
 C10
A   13
 C11
A   14
 N2 
A   15
 C12
A   16
 C13
A   17
 I1 
A   18
 C14
A   19
 H1 
A   20
 H2 
A   21
 H3 
A   22
 H4 
A   23
 H5 
A   24
 H6 
A   25
 H7 
A   26
 H8 
A   27
 H9 
A   28
 H10
A   29
 H11
A   30
 H12
A   31
 H13
M  END
>  <ref_pdb>  (444) 
x0051_0B

>  <ref_mols>  (444) 
x0852_0B,x0605_0B

>  <original SMILES>  (444) 
[H]c1nc([H])c(I)c(C(=O)N([H])c2c([H])c(C([H])([H])[H])c([H])c([H])c2C([H])([H])[H])c1[H]

>  <index>  (444) 
647

>  <∆∆G>  (444) 
-7.734349

>  <∆G_bound>  (444) 
-7.646534

>  <∆G_unbound>  (444) 
0.087814

>  <comRMSD>  (444) 
0.827451

>  <N_constrained_atoms>  (444) 
21.0

>  <N_unconstrained_atoms>  (444) 
0.0

>  <runtime>  (444) 
30.892162

>  <LE>  (444) 
0.368302

>  <percent_hybrid>  (444) 
20.0

>  <dist>  (444) 
2.0

>  <ecfp4>  (444) 
0.413793

>  <daylight>  (444) 
0.666667

>  <topodist>  (444) 
1.0

>  <mces>  (444) 
19.0

>  <tdn>  (444) 
1.0

>  <tup>  (444) 
0.0

>  <rdn>  (444) 
0.0

>  <rup>  (444) 
0.0

>  <ldn>  (444) 
0.0

>  <lup>  (444) 
0.0

>  <mut>  (444) 
1.0

>  <maj>  (444) 
0.0

>  <min>  (444) 
1.0

>  <hyb>  (444) 
0.0

>  <sub>  (444) 
1.0

>  <query_index>  (444) 
176.0

>  <max_hit_Tanimoto>  (444) 
0.505319

>  <largest_ring>  (444) 
6

>  <N_interactions_kept>  (444) 
3.0

>  <N_interactions_lost>  (444) 
3.0

>  <interaction_uniqueness_metric>  (444) 
0.095402

>  <ad_hoc_penalty>  (444) 
-18.414958

>  <N_rotatable_bonds>  (444) 
4

>  <N_HA>  (444) 
18

>  <cluster>  (444) 
491

>  <N_interactions>  (444) 
7

>  <Enamine>  (444) 
1

>  <Mcule>  (444) 
0

>  <N_PAINS>  (444) 
0

>  <UFF_Gibbs>  (444) 
92.430495

>  <strain_per_HA>  (444) 
4.401452

>  <saltbridge:HIS:51>  (444) 
0

>  <pistack:HIS:51>  (444) 
0

>  <hydroph_interaction:HIS:51>  (444) 
0

>  <hbond:ALA:132>  (444) 
0

>  <hbond:SER:135>  (444) 
0

>  <hydroph_interaction:TYR:150>  (444) 
1

>  <pistack:TYR:161>  (444) 
0

>  <hydroph_interaction:TYR:161>  (444) 
4

>  <hydroph_interaction:ASP:83>  (444) 
0

>  <hbond:TYR:130>  (444) 
1

>  <hydroph_interaction:ALA:132>  (444) 
0

>  <hbond:HIS:51>  (444) 
0

>  <hbond:ASP:129>  (444) 
0

>  <hbond:TYR:150>  (444) 
0

>  <hbond:GLY:151>  (444) 
0

>  <hbond:TYR:161>  (444) 
0

>  <hydroph_interaction:TYR:130>  (444) 
0

>  <hydroph_interaction:PRO:131>  (444) 
0

>  <hydroph_interaction:ASP:129>  (444) 
1

>  <saltbridge:ASP:75>  (444) 
0

>  <saltbridge:ASP:83>  (444) 
0

>  <hydroph_interaction:ASN:152>  (444) 
0

>  <halogenbond:TYR:150>  (444) 
0

>  <hbond:ASP:83>  (444) 
0

>  <hydroph_interaction:VAL:155>  (444) 
0

>  <pication:TYR:161>  (444) 
0

>  <hbond:PRO:131>  (444) 
0

>  <hbond:LEU:128>  (444) 
0

>  <saltbridge:ASP:129>  (444) 
0

>  <hbond:THR:134>  (444) 
0

>  <pication:HIS:51>  (444) 
0

>  <hbond:SER:81>  (444) 
0

>  <hbond:GLY:159>  (444) 
0

>  <hydroph_interaction:PRO:101>  (444) 
0

>  <hydroph_interaction:THR:134>  (444) 
0

>  <hbond:GLY:82>  (444) 
0

>  <hydroph_interaction:GLU:104>  (444) 
0

>  <hydroph_interaction:VAL:36>  (444) 
0

>  <hydroph_interaction:MET:49>  (444) 
0

>  <halogenbond:GLU:104>  (444) 
0

>  <hydroph_interaction:LYS:107>  (444) 
0

$$$$
Z3205060865
     RDKit          3D

 54 56  0  0  0  0  0  0  0  0999 V2000
   -2.4549    7.0495  -21.3369 C   0  0  0  0  0  0  0  0  0  0  0  0
   -3.7708    6.4059  -21.4762 N   0  0  0  0  0  0  0  0  0  0  0  0
   -3.6706    5.2965  -22.4404 C   0  0  0  0  0  0  0  0  0  0  0  0
   -4.2435    5.9254  -20.1593 C   0  0  0  0  0  0  0  0  0  0  0  0
   -5.7660    5.8044  -20.1393 C   0  0  0  0  0  0  0  0  0  0  0  0
   -6.1980    5.4816  -18.8193 O   0  0  0  0  0  0  0  0  0  0  0  0
   -7.5377    5.3016  -18.4451 C   0  0  0  0  0  0  0  0  0  0  0  0
   -8.6028    5.4636  -19.3517 C   0  0  0  0  0  0  0  0  0  0  0  0
   -9.9211    5.2782  -18.9275 C   0  0  0  0  0  0  0  0  0  0  0  0
  -10.1906    4.9239  -17.6036 C   0  0  0  0  0  0  0  0  0  0  0  0
   -9.1385    4.7446  -16.6923 C   0  0  0  0  0  0  0  0  0  0  0  0
   -9.4228    4.3697  -15.2611 C   0  0  0  0  0  0  0  0  0  0  0  0
   -9.3887    5.5762  -14.3548 C   0  0  0  0  0  0  0  0  0  0  0  0
   -9.8249    6.6804  -14.7817 O   0  0  0  0  0  0  0  0  0  0  0  0
   -8.9491    5.4884  -12.9890 N   0  0  0  0  0  0  0  0  0  0  0  0
   -8.4279    4.2566  -12.3951 C   0  0  0  0  0  0  0  0  0  0  0  0
   -8.0708    4.4667  -10.9531 C   0  0  0  0  0  0  0  0  0  0  0  0
   -8.6056    3.8536   -9.8369 C   0  0  0  0  0  0  0  0  0  0  0  0
   -9.7364    2.8713   -9.7668 C   0  0  0  0  0  0  0  0  0  0  0  0
   -9.7862    2.2057   -8.3819 C   0  0  0  0  0  0  0  0  0  0  0  0
   -9.6130    3.2355   -7.2551 C   0  0  0  0  0  0  0  0  0  0  0  0
   -8.2555    3.9455   -7.3699 C   0  0  0  0  0  0  0  0  0  0  0  0
   -8.0121    4.3706   -8.7467 N   0  0  0  0  0  0  0  0  0  0  0  0
   -7.0950    5.2555   -9.1062 N   0  0  0  0  0  0  0  0  0  0  0  0
   -7.1151    5.3356  -10.4531 C   0  0  0  0  0  0  0  0  0  0  0  0
   -7.8159    4.9482  -17.1186 C   0  0  0  0  0  0  0  0  0  0  0  0
   -2.0856    7.3952  -22.3268 H   0  0  0  0  0  0  0  0  0  0  0  0
   -2.5384    7.9499  -20.6933 H   0  0  0  0  0  0  0  0  0  0  0  0
   -1.7102    6.3525  -20.8925 H   0  0  0  0  0  0  0  0  0  0  0  0
   -4.6635    4.8336  -22.6082 H   0  0  0  0  0  0  0  0  0  0  0  0
   -2.9597    4.5161  -22.0886 H   0  0  0  0  0  0  0  0  0  0  0  0
   -3.3276    5.6758  -23.4272 H   0  0  0  0  0  0  0  0  0  0  0  0
   -3.7818    4.9492  -19.8914 H   0  0  0  0  0  0  0  0  0  0  0  0
   -3.9684    6.6490  -19.3595 H   0  0  0  0  0  0  0  0  0  0  0  0
   -6.2127    6.7729  -20.4513 H   0  0  0  0  0  0  0  0  0  0  0  0
   -6.0940    5.0048  -20.8345 H   0  0  0  0  0  0  0  0  0  0  0  0
   -8.4235    5.7362  -20.3831 H   0  0  0  0  0  0  0  0  0  0  0  0
  -10.7368    5.4089  -19.6276 H   0  0  0  0  0  0  0  0  0  0  0  0
  -11.2181    4.7878  -17.2901 H   0  0  0  0  0  0  0  0  0  0  0  0
   -8.6740    3.6143  -14.9477 H   0  0  0  0  0  0  0  0  0  0  0  0
  -10.4214    3.8899  -15.1749 H   0  0  0  0  0  0  0  0  0  0  0  0
   -9.0099    6.3545  -12.4069 H   0  0  0  0  0  0  0  0  0  0  0  0
   -9.1898    3.4547  -12.4861 H   0  0  0  0  0  0  0  0  0  0  0  0
   -7.5122    3.9414  -12.9383 H   0  0  0  0  0  0  0  0  0  0  0  0
   -9.6113    2.0895  -10.5429 H   0  0  0  0  0  0  0  0  0  0  0  0
  -10.6881    3.4100   -9.9553 H   0  0  0  0  0  0  0  0  0  0  0  0
   -8.9805    1.4428   -8.3086 H   0  0  0  0  0  0  0  0  0  0  0  0
  -10.7593    1.6850   -8.2607 H   0  0  0  0  0  0  0  0  0  0  0  0
   -9.6804    2.7251   -6.2701 H   0  0  0  0  0  0  0  0  0  0  0  0
  -10.4310    3.9871   -7.3134 H   0  0  0  0  0  0  0  0  0  0  0  0
   -7.4470    3.2498   -7.0588 H   0  0  0  0  0  0  0  0  0  0  0  0
   -8.2385    4.8273   -6.6957 H   0  0  0  0  0  0  0  0  0  0  0  0
   -6.4800    5.9909  -11.0338 H   0  0  0  0  0  0  0  0  0  0  0  0
   -6.9981    4.8282  -16.4179 H   0  0  0  0  0  0  0  0  0  0  0  0
  1  2  1  0
  2  3  1  0
  2  4  1  0
  4  5  1  0
  5  6  1  0
  6  7  1  0
  7  8  2  0
  8  9  1  0
  9 10  2  0
 10 11  1  0
 11 12  1  0
 12 13  1  0
 13 14  2  0
 13 15  1  0
 15 16  1  0
 16 17  1  0
 17 18  2  0
 18 19  1  0
 19 20  1  0
 20 21  1  0
 21 22  1  0
 22 23  1  0
 23 24  1  0
 24 25  2  0
 11 26  2  0
 26  7  1  0
 25 17  1  0
 23 18  1  0
  1 27  1  0
  1 28  1  0
  1 29  1  0
  3 30  1  0
  3 31  1  0
  3 32  1  0
  4 33  1  0
  4 34  1  0
  5 35  1  0
  5 36  1  0
  8 37  1  0
  9 38  1  0
 10 39  1  0
 12 40  1  0
 12 41  1  0
 15 42  1  0
 16 43  1  0
 16 44  1  0
 19 45  1  0
 19 46  1  0
 20 47  1  0
 20 48  1  0
 21 49  1  0
 21 50  1  0
 22 51  1  0
 22 52  1  0
 25 53  1  0
 26 54  1  0
A    1
 C1 
A    2
 N1 
A    3
 C2 
A    4
 C3 
A    5
 C4 
A    6
 O1 
A    7
 C5 
A    8
 C6 
A    9
 C7 
A   10
 C8 
A   11
 C9 
A   12
 C10
A   13
 C11
A   14
 O2 
A   15
 N2 
A   16
 C12
A   17
 C13
A   18
 C14
A   19
 C15
A   20
 C16
A   21
 C17
A   22
 C18
A   23
 N3 
A   24
 N4 
A   25
 C19
A   26
 C20
A   27
 H1 
A   28
 H2 
A   29
 H3 
A   30
 H4 
A   31
 H5 
A   32
 H6 
A   33
 H7 
A   34
 H8 
A   35
 H9 
A   36
 H10
A   37
 H11
A   38
 H12
A   39
 H13
A   40
 H14
A   41
 H15
A   42
 H16
A   43
 H17
A   44
 H18
A   45
 H19
A   46
 H20
A   47
 H21
A   48
 H22
A   49
 H23
A   50
 H24
A   51
 H25
A   52
 H26
A   53
 H27
A   54
 H28
M  END
>  <ref_pdb>  (445) 
x0051_0B

>  <ref_mols>  (445) 
x0969_1B,x0904_0B

>  <original SMILES>  (445) 
[H]c1nn2c(c1C([H])([H])N([H])C(=O)C([H])([H])c1c([H])c([H])c([H])c(OC([H])([H])C([H])([H])N(C([H])([H])[H])C([H])([H])[H])c1[H])C([H])([H])C([H])([H])C([H])([H])C2([H])[H]

>  <index>  (445) 
681

>  <∆∆G>  (445) 
-9.819113

>  <∆G_bound>  (445) 
-9.298932

>  <∆G_unbound>  (445) 
0.520182

>  <comRMSD>  (445) 
0.617498

>  <N_constrained_atoms>  (445) 
24.0

>  <N_unconstrained_atoms>  (445) 
3.0

>  <runtime>  (445) 
86.886611

>  <LE>  (445) 
0.363671

>  <percent_hybrid>  (445) 
42.0

>  <dist>  (445) 
7.0

>  <ecfp4>  (445) 
0.410256

>  <daylight>  (445) 
0.372881

>  <topodist>  (445) 
2.0

>  <mces>  (445) 
27.0

>  <tdn>  (445) 
1.0

>  <tup>  (445) 
1.0

>  <rdn>  (445) 
0.0

>  <rup>  (445) 
0.0

>  <ldn>  (445) 
0.0

>  <lup>  (445) 
0.0

>  <mut>  (445) 
3.0

>  <maj>  (445) 
3.0

>  <min>  (445) 
0.0

>  <hyb>  (445) 
2.0

>  <sub>  (445) 
0.0

>  <query_index>  (445) 
111.0

>  <max_hit_Tanimoto>  (445) 
0.350823

>  <largest_ring>  (445) 
6

>  <N_interactions_kept>  (445) 
2.0

>  <N_interactions_lost>  (445) 
1.5

>  <interaction_uniqueness_metric>  (445) 
0.345148

>  <ad_hoc_penalty>  (445) 
-18.414357

>  <N_rotatable_bonds>  (445) 
10

>  <N_HA>  (445) 
26

>  <cluster>  (445) 
5594

>  <N_interactions>  (445) 
6

>  <Enamine>  (445) 
1

>  <Mcule>  (445) 
0

>  <N_PAINS>  (445) 
0

>  <UFF_Gibbs>  (445) 
178.112693

>  <strain_per_HA>  (445) 
6.596766

>  <saltbridge:HIS:51>  (445) 
0

>  <pistack:HIS:51>  (445) 
1

>  <hydroph_interaction:HIS:51>  (445) 
0

>  <hbond:ALA:132>  (445) 
0

>  <hbond:SER:135>  (445) 
0

>  <hydroph_interaction:TYR:150>  (445) 
1

>  <pistack:TYR:161>  (445) 
1

>  <hydroph_interaction:TYR:161>  (445) 
0

>  <hydroph_interaction:ASP:83>  (445) 
1

>  <hbond:TYR:130>  (445) 
0

>  <hydroph_interaction:ALA:132>  (445) 
0

>  <hbond:HIS:51>  (445) 
1

>  <hbond:ASP:129>  (445) 
0

>  <hbond:TYR:150>  (445) 
0

>  <hbond:GLY:151>  (445) 
0

>  <hbond:TYR:161>  (445) 
0

>  <hydroph_interaction:TYR:130>  (445) 
0

>  <hydroph_interaction:PRO:131>  (445) 
0

>  <hydroph_interaction:ASP:129>  (445) 
0

>  <saltbridge:ASP:75>  (445) 
0

>  <saltbridge:ASP:83>  (445) 
0

>  <hydroph_interaction:ASN:152>  (445) 
0

>  <halogenbond:TYR:150>  (445) 
0

>  <hbond:ASP:83>  (445) 
0

>  <hydroph_interaction:VAL:155>  (445) 
0

>  <pication:TYR:161>  (445) 
0

>  <hbond:PRO:131>  (445) 
0

>  <hbond:LEU:128>  (445) 
0

>  <saltbridge:ASP:129>  (445) 
1

>  <hbond:THR:134>  (445) 
0

>  <pication:HIS:51>  (445) 
0

>  <hbond:SER:81>  (445) 
0

>  <hbond:GLY:159>  (445) 
0

>  <hydroph_interaction:PRO:101>  (445) 
0

>  <hydroph_interaction:THR:134>  (445) 
0

>  <hbond:GLY:82>  (445) 
0

>  <hydroph_interaction:GLU:104>  (445) 
0

>  <hydroph_interaction:VAL:36>  (445) 
0

>  <hydroph_interaction:MET:49>  (445) 
0

>  <halogenbond:GLU:104>  (445) 
0

>  <hydroph_interaction:LYS:107>  (445) 
0

$$$$
MCULE-2261082668
     RDKit          3D

 19 19  0  0  0  0  0  0  0  0999 V2000
   -8.4326    4.3224  -19.7451 C   0  0  0  0  0  0  0  0  0  0  0  0
   -8.2098    4.9311  -18.3923 C   0  0  0  0  0  0  0  0  0  0  0  0
   -9.1411    4.7244  -17.3622 C   0  0  0  0  0  0  0  0  0  0  0  0
   -8.9588    5.3194  -16.1033 C   0  0  0  0  0  0  0  0  0  0  0  0
   -9.9214    5.0865  -15.0622 N   0  0  0  0  0  0  0  0  0  0  0  0
   -9.7651    5.6346  -13.7781 N   0  0  0  0  0  0  0  0  0  0  0  0
   -7.8378    6.1410  -15.8886 C   0  0  0  0  0  0  0  0  0  0  0  0
   -6.9194    6.3629  -16.9180 C   0  0  0  0  0  0  0  0  0  0  0  0
   -7.1058    5.7664  -18.1671 C   0  0  0  0  0  0  0  0  0  0  0  0
   -8.9610    3.3494  -19.6544 H   0  0  0  0  0  0  0  0  0  0  0  0
   -9.0453    5.0112  -20.3633 H   0  0  0  0  0  0  0  0  0  0  0  0
   -7.4641    4.1399  -20.2577 H   0  0  0  0  0  0  0  0  0  0  0  0
  -10.0078    4.0986  -17.5386 H   0  0  0  0  0  0  0  0  0  0  0  0
  -10.7750    4.5197  -15.2743 H   0  0  0  0  0  0  0  0  0  0  0  0
   -8.9770    5.1236  -13.3192 H   0  0  0  0  0  0  0  0  0  0  0  0
  -10.6250    5.4077  -13.2282 H   0  0  0  0  0  0  0  0  0  0  0  0
   -7.6740    6.6179  -14.9313 H   0  0  0  0  0  0  0  0  0  0  0  0
   -6.0629    7.0027  -16.7484 H   0  0  0  0  0  0  0  0  0  0  0  0
   -6.3902    5.9556  -18.9577 H   0  0  0  0  0  0  0  0  0  0  0  0
  1  2  1  0
  2  3  2  0
  3  4  1  0
  4  5  1  0
  5  6  1  0
  4  7  2  0
  7  8  1  0
  8  9  2  0
  9  2  1  0
  1 10  1  0
  1 11  1  0
  1 12  1  0
  3 13  1  0
  5 14  1  0
  6 15  1  0
  6 16  1  0
  7 17  1  0
  8 18  1  0
  9 19  1  0
A    1
 C1 
A    2
 C2 
A    3
 C3 
A    4
 C4 
A    5
 N1 
A    6
 N2 
A    7
 C5 
A    8
 C6 
A    9
 C7 
A   10
 H1 
A   11
 H2 
A   12
 H3 
A   13
 H4 
A   14
 H5 
A   15
 H6 
A   16
 H7 
A   17
 H8 
A   18
 H9 
A   19
 H10
M  END
>  <ref_pdb>  (446) 
x0051_0B

>  <ref_mols>  (446) 
x0589_0B,x0559_0B

>  <original SMILES>  (446) 
[H]c1c([H])c(N([H])N([H])[H])c([H])c(C([H])([H])[H])c1[H]

>  <index>  (446) 
1008

>  <∆∆G>  (446) 
-6.672915

>  <∆G_bound>  (446) 
-6.614764

>  <∆G_unbound>  (446) 
0.058151

>  <comRMSD>  (446) 
0.875939

>  <N_constrained_atoms>  (446) 
9.0

>  <N_unconstrained_atoms>  (446) 
2.0

>  <runtime>  (446) 
25.856214

>  <LE>  (446) 
0.606629

>  <percent_hybrid>  (446) 
34.0

>  <dist>  (446) 
2.0

>  <ecfp4>  (446) 
0.354839

>  <daylight>  (446) 
0.538462

>  <topodist>  (446) 
0.0

>  <mces>  (446) 
9.0

>  <tdn>  (446) 
0.0

>  <tup>  (446) 
0.0

>  <rdn>  (446) 
0.0

>  <rup>  (446) 
0.0

>  <ldn>  (446) 
0.0

>  <lup>  (446) 
0.0

>  <mut>  (446) 
1.0

>  <maj>  (446) 
1.0

>  <min>  (446) 
0.0

>  <hyb>  (446) 
1.0

>  <sub>  (446) 
0.0

>  <query_index>  (446) 
367.0

>  <max_hit_Tanimoto>  (446) 
0.061947

>  <largest_ring>  (446) 
6

>  <N_interactions_kept>  (446) 
1.0

>  <N_interactions_lost>  (446) 
2.5

>  <interaction_uniqueness_metric>  (446) 
0.179442

>  <ad_hoc_penalty>  (446) 
-18.365575

>  <N_rotatable_bonds>  (446) 
3

>  <N_HA>  (446) 
9

>  <cluster>  (446) 
5293

>  <N_interactions>  (446) 
6

>  <Enamine>  (446) 
0

>  <Mcule>  (446) 
1

>  <N_PAINS>  (446) 
0

>  <UFF_Gibbs>  (446) 
23.143626

>  <strain_per_HA>  (446) 
2.103966

>  <saltbridge:HIS:51>  (446) 
0

>  <pistack:HIS:51>  (446) 
0

>  <hydroph_interaction:HIS:51>  (446) 
0

>  <hbond:ALA:132>  (446) 
0

>  <hbond:SER:135>  (446) 
2

>  <hydroph_interaction:TYR:150>  (446) 
1

>  <pistack:TYR:161>  (446) 
1

>  <hydroph_interaction:TYR:161>  (446) 
1

>  <hydroph_interaction:ASP:83>  (446) 
0

>  <hbond:TYR:130>  (446) 
0

>  <hydroph_interaction:ALA:132>  (446) 
0

>  <hbond:HIS:51>  (446) 
1

>  <hbond:ASP:129>  (446) 
0

>  <hbond:TYR:150>  (446) 
0

>  <hbond:GLY:151>  (446) 
0

>  <hbond:TYR:161>  (446) 
0

>  <hydroph_interaction:TYR:130>  (446) 
0

>  <hydroph_interaction:PRO:131>  (446) 
0

>  <hydroph_interaction:ASP:129>  (446) 
0

>  <saltbridge:ASP:75>  (446) 
0

>  <saltbridge:ASP:83>  (446) 
0

>  <hydroph_interaction:ASN:152>  (446) 
0

>  <halogenbond:TYR:150>  (446) 
0

>  <hbond:ASP:83>  (446) 
0

>  <hydroph_interaction:VAL:155>  (446) 
0

>  <pication:TYR:161>  (446) 
0

>  <hbond:PRO:131>  (446) 
0

>  <hbond:LEU:128>  (446) 
0

>  <saltbridge:ASP:129>  (446) 
0

>  <hbond:THR:134>  (446) 
0

>  <pication:HIS:51>  (446) 
0

>  <hbond:SER:81>  (446) 
0

>  <hbond:GLY:159>  (446) 
0

>  <hydroph_interaction:PRO:101>  (446) 
0

>  <hydroph_interaction:THR:134>  (446) 
0

>  <hbond:GLY:82>  (446) 
0

>  <hydroph_interaction:GLU:104>  (446) 
0

>  <hydroph_interaction:VAL:36>  (446) 
0

>  <hydroph_interaction:MET:49>  (446) 
0

>  <halogenbond:GLU:104>  (446) 
0

>  <hydroph_interaction:LYS:107>  (446) 
0

$$$$
XMWFGPFHGHTRHG-UHFFFAOYSA-N
     RDKit          3D

 34 35  0  0  0  0  0  0  0  0999 V2000
   -5.3267    5.5150  -17.3981 N   0  0  0  0  0  0  0  0  0  0  0  0
   -3.9260    5.0283  -17.5798 C   0  0  0  0  0  0  0  0  0  0  0  0
   -2.9341    6.1374  -17.9831 C   0  0  0  0  0  0  0  0  0  0  0  0
   -3.4326    4.2852  -16.3210 C   0  0  0  0  0  0  0  0  0  0  0  0
   -4.3519    3.1138  -15.9545 C   0  0  0  0  0  0  0  0  0  0  0  0
   -3.8200    2.3887  -14.7955 C   0  0  0  0  0  0  0  0  0  0  0  0
   -3.4007    1.8166  -13.8811 N   0  0  0  0  0  0  0  0  0  0  0  0
   -6.1107    5.5112  -18.6742 C   0  0  0  0  0  0  0  0  0  0  0  0
   -6.6092    4.0839  -18.9587 C   0  0  0  0  0  0  0  0  0  0  0  0
   -7.3193    6.4271  -18.6220 C   0  0  0  0  0  0  0  0  0  0  0  0
   -7.6669    7.1182  -17.4781 C   0  0  0  0  0  0  0  0  0  0  0  0
   -9.0563    8.0163  -17.7619 S   0  0  0  0  0  0  0  0  0  0  0  0
   -9.2265    7.5465  -19.3716 C   0  0  0  0  0  0  0  0  0  0  0  0
   -8.1891    6.6779  -19.6949 C   0  0  0  0  0  0  0  0  0  0  0  0
   -6.8681    7.0652  -16.2282 C   0  0  0  0  0  0  0  0  0  0  0  0
   -5.4178    6.7743  -16.6133 C   0  0  0  0  0  0  0  0  0  0  0  0
   -3.8849    4.2853  -18.4048 H   0  0  0  0  0  0  0  0  0  0  0  0
   -2.7379    6.8312  -17.1384 H   0  0  0  0  0  0  0  0  0  0  0  0
   -3.3253    6.7143  -18.8468 H   0  0  0  0  0  0  0  0  0  0  0  0
   -1.9651    5.6847  -18.2840 H   0  0  0  0  0  0  0  0  0  0  0  0
   -3.3581    4.9836  -15.4602 H   0  0  0  0  0  0  0  0  0  0  0  0
   -2.4105    3.8899  -16.5176 H   0  0  0  0  0  0  0  0  0  0  0  0
   -5.3670    3.4859  -15.7007 H   0  0  0  0  0  0  0  0  0  0  0  0
   -4.4310    2.4093  -16.8096 H   0  0  0  0  0  0  0  0  0  0  0  0
   -5.4722    5.8468  -19.5212 H   0  0  0  0  0  0  0  0  0  0  0  0
   -5.7694    3.3714  -19.0763 H   0  0  0  0  0  0  0  0  0  0  0  0
   -7.2530    3.7305  -18.1245 H   0  0  0  0  0  0  0  0  0  0  0  0
   -7.1950    4.0522  -19.9016 H   0  0  0  0  0  0  0  0  0  0  0  0
  -10.0086    7.8694  -20.0452 H   0  0  0  0  0  0  0  0  0  0  0  0
   -8.0718    6.2399  -20.6772 H   0  0  0  0  0  0  0  0  0  0  0  0
   -6.9303    8.0373  -15.6940 H   0  0  0  0  0  0  0  0  0  0  0  0
   -7.2587    6.2581  -15.5724 H   0  0  0  0  0  0  0  0  0  0  0  0
   -5.0250    7.6327  -17.2036 H   0  0  0  0  0  0  0  0  0  0  0  0
   -4.8293    6.6967  -15.6759 H   0  0  0  0  0  0  0  0  0  0  0  0
  1  2  1  0
  2  3  1  0
  2  4  1  0
  4  5  1  0
  5  6  1  0
  6  7  3  0
  1  8  1  0
  8  9  1  0
  8 10  1  0
 10 11  2  0
 11 12  1  0
 12 13  1  0
 13 14  2  0
 11 15  1  0
 15 16  1  0
 16  1  1  0
 14 10  1  0
  2 17  1  0
  3 18  1  0
  3 19  1  0
  3 20  1  0
  4 21  1  0
  4 22  1  0
  5 23  1  0
  5 24  1  0
  8 25  1  0
  9 26  1  0
  9 27  1  0
  9 28  1  0
 13 29  1  0
 14 30  1  0
 15 31  1  0
 15 32  1  0
 16 33  1  0
 16 34  1  0
A    1
 N1 
A    2
 C1 
A    3
 C2 
A    4
 C3 
A    5
 C4 
A    6
 C5 
A    7
 N2 
A    8
 C6 
A    9
 C7 
A   10
 C8 
A   11
 C9 
A   12
 S1 
A   13
 C10
A   14
 C11
A   15
 C12
A   16
 C13
A   17
 H1 
A   18
 H2 
A   19
 H3 
A   20
 H4 
A   21
 H5 
A   22
 H6 
A   23
 H7 
A   24
 H8 
A   25
 H9 
A   26
 H10
A   27
 H11
A   28
 H12
A   29
 H13
A   30
 H14
A   31
 H15
A   32
 H16
A   33
 H17
A   34
 H18
M  END
>  <ref_pdb>  (447) 
x0051_0B

>  <ref_mols>  (447) 
x0472_0B,x0386_0B

>  <original SMILES>  (447) 
[H]c1sc2c(c1[H])C([H])(C([H])([H])[H])N(C([H])(C([H])([H])[H])C([H])([H])C([H])([H])C#N)C([H])([H])C2([H])[H]

>  <index>  (447) 
473

>  <∆∆G>  (447) 
-6.830667

>  <∆G_bound>  (447) 
-6.972473

>  <∆G_unbound>  (447) 
-0.141806

>  <comRMSD>  (447) 
0.394657

>  <N_constrained_atoms>  (447) 
14.0

>  <N_unconstrained_atoms>  (447) 
2.0

>  <runtime>  (447) 
26.098632

>  <LE>  (447) 
0.426917

>  <percent_hybrid>  (447) 
13.0

>  <dist>  (447) 
4.0

>  <ecfp4>  (447) 
0.461538

>  <daylight>  (447) 
0.666667

>  <topodist>  (447) 
2.0

>  <mces>  (447) 
15.0

>  <tdn>  (447) 
0.0

>  <tup>  (447) 
0.0

>  <rdn>  (447) 
0.0

>  <rup>  (447) 
0.0

>  <ldn>  (447) 
0.0

>  <lup>  (447) 
2.0

>  <mut>  (447) 
1.0

>  <maj>  (447) 
1.0

>  <min>  (447) 
0.0

>  <hyb>  (447) 
1.0

>  <sub>  (447) 
0.0

>  <query_index>  (447) 
75.0

>  <max_hit_Tanimoto>  (447) 
0.655222

>  <largest_ring>  (447) 
6

>  <N_interactions_kept>  (447) 
2.0

>  <N_interactions_lost>  (447) 
1.0

>  <interaction_uniqueness_metric>  (447) 
0.153242

>  <ad_hoc_penalty>  (447) 
-18.357702

>  <N_rotatable_bonds>  (447) 
5

>  <N_HA>  (447) 
16

>  <cluster>  (447) 
5788

>  <N_interactions>  (447) 
5

>  <Enamine>  (447) 
0

>  <Mcule>  (447) 
1

>  <N_PAINS>  (447) 
0

>  <UFF_Gibbs>  (447) 
122.469674

>  <strain_per_HA>  (447) 
7.654355

>  <saltbridge:HIS:51>  (447) 
0

>  <pistack:HIS:51>  (447) 
0

>  <hydroph_interaction:HIS:51>  (447) 
0

>  <hbond:ALA:132>  (447) 
0

>  <hbond:SER:135>  (447) 
0

>  <hydroph_interaction:TYR:150>  (447) 
0

>  <pistack:TYR:161>  (447) 
0

>  <hydroph_interaction:TYR:161>  (447) 
2

>  <hydroph_interaction:ASP:83>  (447) 
0

>  <hbond:TYR:130>  (447) 
0

>  <hydroph_interaction:ALA:132>  (447) 
1

>  <hbond:HIS:51>  (447) 
0

>  <hbond:ASP:129>  (447) 
0

>  <hbond:TYR:150>  (447) 
0

>  <hbond:GLY:151>  (447) 
0

>  <hbond:TYR:161>  (447) 
0

>  <hydroph_interaction:TYR:130>  (447) 
0

>  <hydroph_interaction:PRO:131>  (447) 
0

>  <hydroph_interaction:ASP:129>  (447) 
0

>  <saltbridge:ASP:75>  (447) 
0

>  <saltbridge:ASP:83>  (447) 
0

>  <hydroph_interaction:ASN:152>  (447) 
0

>  <halogenbond:TYR:150>  (447) 
0

>  <hbond:ASP:83>  (447) 
0

>  <hydroph_interaction:VAL:155>  (447) 
1

>  <pication:TYR:161>  (447) 
1

>  <hbond:PRO:131>  (447) 
0

>  <hbond:LEU:128>  (447) 
0

>  <saltbridge:ASP:129>  (447) 
0

>  <hbond:THR:134>  (447) 
0

>  <pication:HIS:51>  (447) 
0

>  <hbond:SER:81>  (447) 
0

>  <hbond:GLY:159>  (447) 
0

>  <hydroph_interaction:PRO:101>  (447) 
0

>  <hydroph_interaction:THR:134>  (447) 
0

>  <hbond:GLY:82>  (447) 
0

>  <hydroph_interaction:GLU:104>  (447) 
0

>  <hydroph_interaction:VAL:36>  (447) 
0

>  <hydroph_interaction:MET:49>  (447) 
0

>  <halogenbond:GLU:104>  (447) 
0

>  <hydroph_interaction:LYS:107>  (447) 
0

$$$$
PV-006922484195
     RDKit          3D

 47 50  0  0  0  0  0  0  0  0999 V2000
   -7.4801    8.7547  -13.3819 O   0  0  0  0  0  0  0  0  0  0  0  0
   -8.7951    8.0573  -13.6051 S   0  0  0  0  0  6  0  0  0  0  0  0
   -9.9010    9.0737  -13.5488 O   0  0  0  0  0  0  0  0  0  0  0  0
   -8.7863    7.3001  -15.1713 N   0  0  0  0  0  0  0  0  0  0  0  0
   -7.6952    6.3247  -15.2439 C   0  0  0  0  0  0  0  0  0  0  0  0
   -7.7468    5.6020  -16.5624 C   0  0  0  0  0  0  0  0  0  0  0  0
   -8.7317    4.6172  -16.7905 C   0  0  0  0  0  0  0  0  0  0  0  0
   -8.7894    3.9356  -18.0204 C   0  0  0  0  0  0  0  0  0  0  0  0
   -7.8697    4.2274  -19.0409 C   0  0  0  0  0  0  0  0  0  0  0  0
   -6.9053    5.2136  -18.8202 C   0  0  0  0  0  0  0  0  0  0  0  0
   -6.8550    5.8870  -17.6073 C   0  0  0  0  0  0  0  0  0  0  0  0
   -5.5902    6.9975  -17.6588 S   0  0  0  0  0  0  0  0  0  0  0  0
   -5.0977    6.6260  -19.2332 C   0  0  0  0  0  0  0  0  0  0  0  0
   -5.9238    5.6210  -19.7339 C   0  0  0  0  0  0  0  0  0  0  0  0
   -9.0631    6.8510  -12.3475 C   0  0  0  0  0  0  0  0  0  0  0  0
   -8.2730    6.8319  -11.1925 C   0  0  0  0  0  0  0  0  0  0  0  0
   -8.4794    5.8554  -10.2127 C   0  0  0  0  0  0  0  0  0  0  0  0
   -9.4800    4.8819  -10.3762 C   0  0  0  0  0  0  0  0  0  0  0  0
   -9.6933    3.8834   -9.3587 N   0  0  0  0  0  0  0  0  0  0  0  0
  -11.0542    3.4583   -9.0136 C   0  0  0  0  0  0  0  0  0  0  0  0
  -11.1127    3.0826   -7.5330 C   0  0  0  0  0  0  0  0  0  0  0  0
  -10.0907    2.0703   -7.2309 N   0  0  0  0  0  0  0  0  0  0  0  0
   -8.7471    2.6137   -7.4710 C   0  0  0  0  0  0  0  0  0  0  0  0
   -8.5814    3.0152   -8.9411 C   0  0  0  0  0  0  0  0  0  0  0  0
  -10.2794    4.9134  -11.5322 C   0  0  0  0  0  0  0  0  0  0  0  0
  -10.0695    5.8887  -12.5119 C   0  0  0  0  0  0  0  0  0  0  0  0
   -8.5948    8.0536  -15.8715 H   0  0  0  0  0  0  0  0  0  0  0  0
   -6.7141    6.8292  -15.1055 H   0  0  0  0  0  0  0  0  0  0  0  0
   -7.7981    5.5703  -14.4325 H   0  0  0  0  0  0  0  0  0  0  0  0
   -9.4537    4.3764  -16.0161 H   0  0  0  0  0  0  0  0  0  0  0  0
   -9.5486    3.1794  -18.1789 H   0  0  0  0  0  0  0  0  0  0  0  0
   -7.9139    3.6979  -19.9845 H   0  0  0  0  0  0  0  0  0  0  0  0
   -4.2678    7.0820  -19.7621 H   0  0  0  0  0  0  0  0  0  0  0  0
   -5.8116    5.1991  -20.7230 H   0  0  0  0  0  0  0  0  0  0  0  0
   -7.5026    7.5764  -11.0421 H   0  0  0  0  0  0  0  0  0  0  0  0
   -7.8734    5.8687   -9.3183 H   0  0  0  0  0  0  0  0  0  0  0  0
  -11.7841    4.2765   -9.2091 H   0  0  0  0  0  0  0  0  0  0  0  0
  -11.3322    2.5774   -9.6335 H   0  0  0  0  0  0  0  0  0  0  0  0
  -10.9578    3.9917   -6.9065 H   0  0  0  0  0  0  0  0  0  0  0  0
  -12.1213    2.6731   -7.3022 H   0  0  0  0  0  0  0  0  0  0  0  0
  -10.1649    1.8378   -6.2135 H   0  0  0  0  0  0  0  0  0  0  0  0
   -7.9909    1.8389   -7.2227 H   0  0  0  0  0  0  0  0  0  0  0  0
   -8.5600    3.4942   -6.8183 H   0  0  0  0  0  0  0  0  0  0  0  0
   -7.6015    3.5275   -9.0650 H   0  0  0  0  0  0  0  0  0  0  0  0
   -8.5738    2.1010   -9.5758 H   0  0  0  0  0  0  0  0  0  0  0  0
  -11.0541    4.1742  -11.6837 H   0  0  0  0  0  0  0  0  0  0  0  0
  -10.6830    5.8899  -13.4015 H   0  0  0  0  0  0  0  0  0  0  0  0
  1  2  2  0
  2  3  2  0
  2  4  1  0
  4  5  1  0
  5  6  1  0
  6  7  2  0
  7  8  1  0
  8  9  2  0
  9 10  1  0
 10 11  2  0
 11 12  1  0
 12 13  1  0
 13 14  2  0
  2 15  1  0
 15 16  2  0
 16 17  1  0
 17 18  2  0
 18 19  1  0
 19 20  1  0
 20 21  1  0
 21 22  1  0
 22 23  1  0
 23 24  1  0
 18 25  1  0
 25 26  2  0
 11  6  1  0
 14 10  1  0
 26 15  1  0
 24 19  1  0
  4 27  1  0
  5 28  1  0
  5 29  1  0
  7 30  1  0
  8 31  1  0
  9 32  1  0
 13 33  1  0
 14 34  1  0
 16 35  1  0
 17 36  1  0
 20 37  1  0
 20 38  1  0
 21 39  1  0
 21 40  1  0
 22 41  1  0
 23 42  1  0
 23 43  1  0
 24 44  1  0
 24 45  1  0
 25 46  1  0
 26 47  1  0
A    1
 O1 
A    2
 S1 
A    3
 O2 
A    4
 N1 
A    5
 C1 
A    6
 C2 
A    7
 C3 
A    8
 C4 
A    9
 C5 
A   10
 C6 
A   11
 C7 
A   12
 S2 
A   13
 C8 
A   14
 C9 
A   15
 C10
A   16
 C11
A   17
 C12
A   18
 C13
A   19
 N2 
A   20
 C14
A   21
 C15
A   22
 N3 
A   23
 C16
A   24
 C17
A   25
 C18
A   26
 C19
A   27
 H1 
A   28
 H2 
A   29
 H3 
A   30
 H4 
A   31
 H5 
A   32
 H6 
A   33
 H7 
A   34
 H8 
A   35
 H9 
A   36
 H10
A   37
 H11
A   38
 H12
A   39
 H13
A   40
 H14
A   41
 H15
A   42
 H16
A   43
 H17
A   44
 H18
A   45
 H19
A   46
 H20
A   47
 H21
M  END
>  <ref_pdb>  (448) 
x0051_0B

>  <ref_mols>  (448) 
x0490_0B,x0404_0B

>  <original SMILES>  (448) 
[H]c1sc2c(C([H])([H])N([H])S(=O)(=O)c3c([H])c([H])c(N4C([H])([H])C([H])([H])N([H])C([H])([H])C4([H])[H])c([H])c3[H])c([H])c([H])c([H])c2c1[H]

>  <index>  (448) 
627

>  <∆∆G>  (448) 
-9.965283

>  <∆G_bound>  (448) 
-9.619494

>  <∆G_unbound>  (448) 
0.345788

>  <comRMSD>  (448) 
0.768738

>  <N_constrained_atoms>  (448) 
25.0

>  <N_unconstrained_atoms>  (448) 
1.0

>  <runtime>  (448) 
66.123185

>  <LE>  (448) 
0.38328

>  <percent_hybrid>  (448) 
36.0

>  <dist>  (448) 
7.0

>  <ecfp4>  (448) 
0.320513

>  <daylight>  (448) 
0.270916

>  <topodist>  (448) 
2.0

>  <mces>  (448) 
29.0

>  <tdn>  (448) 
2.0

>  <tup>  (448) 
0.0

>  <rdn>  (448) 
0.0

>  <rup>  (448) 
0.0

>  <ldn>  (448) 
0.0

>  <lup>  (448) 
0.0

>  <mut>  (448) 
4.0

>  <maj>  (448) 
4.0

>  <min>  (448) 
0.0

>  <hyb>  (448) 
1.0

>  <sub>  (448) 
0.0

>  <query_index>  (448) 
10.0

>  <max_hit_Tanimoto>  (448) 
0.369536

>  <largest_ring>  (448) 
6

>  <N_interactions_kept>  (448) 
0.0

>  <N_interactions_lost>  (448) 
4.5

>  <interaction_uniqueness_metric>  (448) 
0.257608

>  <ad_hoc_penalty>  (448) 
-18.337481

>  <N_rotatable_bonds>  (448) 
5

>  <N_HA>  (448) 
26

>  <cluster>  (448) 
5646

>  <N_interactions>  (448) 
9

>  <Enamine>  (448) 
1

>  <Mcule>  (448) 
0

>  <N_PAINS>  (448) 
0

>  <UFF_Gibbs>  (448) 
171.081856

>  <strain_per_HA>  (448) 
6.580071

>  <saltbridge:HIS:51>  (448) 
0

>  <pistack:HIS:51>  (448) 
1

>  <hydroph_interaction:HIS:51>  (448) 
1

>  <hbond:ALA:132>  (448) 
0

>  <hbond:SER:135>  (448) 
0

>  <hydroph_interaction:TYR:150>  (448) 
1

>  <pistack:TYR:161>  (448) 
1

>  <hydroph_interaction:TYR:161>  (448) 
3

>  <hydroph_interaction:ASP:83>  (448) 
0

>  <hbond:TYR:130>  (448) 
0

>  <hydroph_interaction:ALA:132>  (448) 
1

>  <hbond:HIS:51>  (448) 
0

>  <hbond:ASP:129>  (448) 
0

>  <hbond:TYR:150>  (448) 
0

>  <hbond:GLY:151>  (448) 
0

>  <hbond:TYR:161>  (448) 
0

>  <hydroph_interaction:TYR:130>  (448) 
0

>  <hydroph_interaction:PRO:131>  (448) 
0

>  <hydroph_interaction:ASP:129>  (448) 
0

>  <saltbridge:ASP:75>  (448) 
0

>  <saltbridge:ASP:83>  (448) 
0

>  <hydroph_interaction:ASN:152>  (448) 
0

>  <halogenbond:TYR:150>  (448) 
0

>  <hbond:ASP:83>  (448) 
0

>  <hydroph_interaction:VAL:155>  (448) 
0

>  <pication:TYR:161>  (448) 
0

>  <hbond:PRO:131>  (448) 
0

>  <hbond:LEU:128>  (448) 
0

>  <saltbridge:ASP:129>  (448) 
0

>  <hbond:THR:134>  (448) 
0

>  <pication:HIS:51>  (448) 
0

>  <hbond:SER:81>  (448) 
1

>  <hbond:GLY:159>  (448) 
0

>  <hydroph_interaction:PRO:101>  (448) 
0

>  <hydroph_interaction:THR:134>  (448) 
0

>  <hbond:GLY:82>  (448) 
0

>  <hydroph_interaction:GLU:104>  (448) 
0

>  <hydroph_interaction:VAL:36>  (448) 
0

>  <hydroph_interaction:MET:49>  (448) 
0

>  <halogenbond:GLU:104>  (448) 
0

>  <hydroph_interaction:LYS:107>  (448) 
0

$$$$
CSSS00011471442
     RDKit          3D

 25 26  0  0  0  0  0  0  0  0999 V2000
   -2.5395    5.6304  -20.0430 C   0  0  0  0  0  0  0  0  0  0  0  0
   -3.9487    5.4544  -19.5586 C   0  0  0  0  0  0  0  0  0  0  0  0
   -5.0106    5.4520  -20.4682 C   0  0  0  0  0  0  0  0  0  0  0  0
   -6.3251    5.3327  -20.0169 C   0  0  0  0  0  0  0  0  0  0  0  0
   -6.6115    5.2247  -18.6433 C   0  0  0  0  0  0  0  0  0  0  0  0
   -8.0320    5.1298  -18.2161 C   0  0  0  0  0  0  0  0  0  0  0  0
   -8.5142    5.6105  -17.0519 N   0  0  0  0  0  0  0  0  0  0  0  0
   -9.8153    5.3756  -17.0262 N   0  0  0  0  0  0  0  0  0  0  0  0
  -10.1858    4.7553  -18.1589 C   0  0  0  0  0  0  0  0  0  0  0  0
   -9.0722    4.5825  -18.9513 C   0  0  0  0  0  0  0  0  0  0  0  0
   -5.5349    5.2233  -17.7159 C   0  0  0  0  0  0  0  0  0  0  0  0
   -5.7562    5.0798  -16.2322 C   0  0  0  0  0  0  0  0  0  0  0  0
   -4.2165    5.3587  -18.1873 C   0  0  0  0  0  0  0  0  0  0  0  0
   -1.8267    5.1038  -19.3731 H   0  0  0  0  0  0  0  0  0  0  0  0
   -2.2880    6.7114  -20.0616 H   0  0  0  0  0  0  0  0  0  0  0  0
   -2.4200    5.2130  -21.0656 H   0  0  0  0  0  0  0  0  0  0  0  0
   -4.8222    5.5502  -21.5304 H   0  0  0  0  0  0  0  0  0  0  0  0
   -7.1231    5.3516  -20.7482 H   0  0  0  0  0  0  0  0  0  0  0  0
  -10.4448    5.6415  -16.2372 H   0  0  0  0  0  0  0  0  0  0  0  0
  -11.1971    4.4500  -18.3926 H   0  0  0  0  0  0  0  0  0  0  0  0
   -9.0295    4.1125  -19.9248 H   0  0  0  0  0  0  0  0  0  0  0  0
   -6.4526    4.2397  -16.0271 H   0  0  0  0  0  0  0  0  0  0  0  0
   -4.8079    4.8583  -15.6974 H   0  0  0  0  0  0  0  0  0  0  0  0
   -6.1713    6.0239  -15.8222 H   0  0  0  0  0  0  0  0  0  0  0  0
   -3.3913    5.3813  -17.4849 H   0  0  0  0  0  0  0  0  0  0  0  0
  1  2  1  0
  2  3  2  0
  3  4  1  0
  4  5  2  0
  5  6  1  0
  6  7  2  0
  7  8  1  0
  8  9  1  0
  9 10  2  0
  5 11  1  0
 11 12  1  0
 11 13  2  0
 13  2  1  0
 10  6  1  0
  1 14  1  0
  1 15  1  0
  1 16  1  0
  3 17  1  0
  4 18  1  0
  8 19  1  0
  9 20  1  0
 10 21  1  0
 12 22  1  0
 12 23  1  0
 12 24  1  0
 13 25  1  0
A    1
 C1 
A    2
 C2 
A    3
 C3 
A    4
 C4 
A    5
 C5 
A    6
 C6 
A    7
 N1 
A    8
 N2 
A    9
 C7 
A   10
 C8 
A   11
 C9 
A   12
 C10
A   13
 C11
A   14
 H1 
A   15
 H2 
A   16
 H3 
A   17
 H4 
A   18
 H5 
A   19
 H6 
A   20
 H7 
A   21
 H8 
A   22
 H9 
A   23
 H10
A   24
 H11
A   25
 H12
M  END
>  <ref_pdb>  (449) 
x0051_0B

>  <ref_mols>  (449) 
x0680_0B,x0386_0B

>  <original SMILES>  (449) 
[H]c1c([H])c(C([H])([H])[H])c([H])c(C([H])([H])[H])c1-c1nn([H])c([H])c1[H]

>  <index>  (449) 
894

>  <∆∆G>  (449) 
-6.975277

>  <∆G_bound>  (449) 
-7.17432

>  <∆G_unbound>  (449) 
-0.199043

>  <comRMSD>  (449) 
0.5454

>  <N_constrained_atoms>  (449) 
13.0

>  <N_unconstrained_atoms>  (449) 
1.0

>  <runtime>  (449) 
26.65661

>  <LE>  (449) 
0.498234

>  <percent_hybrid>  (449) 
25.0

>  <dist>  (449) 
4.0

>  <ecfp4>  (449) 
0.211538

>  <daylight>  (449) 
0.17931

>  <topodist>  (449) 
1.0

>  <mces>  (449) 
13.0

>  <tdn>  (449) 
0.0

>  <tup>  (449) 
1.0

>  <rdn>  (449) 
0.0

>  <rup>  (449) 
0.0

>  <ldn>  (449) 
0.0

>  <lup>  (449) 
0.0

>  <mut>  (449) 
3.0

>  <maj>  (449) 
3.0

>  <min>  (449) 
0.0

>  <hyb>  (449) 
0.0

>  <sub>  (449) 
1.0

>  <query_index>  (449) 
296.0

>  <max_hit_Tanimoto>  (449) 
0.116554

>  <largest_ring>  (449) 
6

>  <N_interactions_kept>  (449) 
2.0

>  <N_interactions_lost>  (449) 
2.0

>  <interaction_uniqueness_metric>  (449) 
0.044868

>  <ad_hoc_penalty>  (449) 
-18.324448

>  <N_rotatable_bonds>  (449) 
3

>  <N_HA>  (449) 
13

>  <cluster>  (449) 
5400

>  <N_interactions>  (449) 
5

>  <Enamine>  (449) 
1

>  <Mcule>  (449) 
0

>  <N_PAINS>  (449) 
0

>  <UFF_Gibbs>  (449) 
24.014057

>  <strain_per_HA>  (449) 
1.71529

>  <saltbridge:HIS:51>  (449) 
0

>  <pistack:HIS:51>  (449) 
0

>  <hydroph_interaction:HIS:51>  (449) 
0

>  <hbond:ALA:132>  (449) 
0

>  <hbond:SER:135>  (449) 
0

>  <hydroph_interaction:TYR:150>  (449) 
1

>  <pistack:TYR:161>  (449) 
1

>  <hydroph_interaction:TYR:161>  (449) 
3

>  <hydroph_interaction:ASP:83>  (449) 
0

>  <hbond:TYR:130>  (449) 
0

>  <hydroph_interaction:ALA:132>  (449) 
0

>  <hbond:HIS:51>  (449) 
0

>  <hbond:ASP:129>  (449) 
0

>  <hbond:TYR:150>  (449) 
0

>  <hbond:GLY:151>  (449) 
0

>  <hbond:TYR:161>  (449) 
0

>  <hydroph_interaction:TYR:130>  (449) 
0

>  <hydroph_interaction:PRO:131>  (449) 
0

>  <hydroph_interaction:ASP:129>  (449) 
0

>  <saltbridge:ASP:75>  (449) 
0

>  <saltbridge:ASP:83>  (449) 
0

>  <hydroph_interaction:ASN:152>  (449) 
0

>  <halogenbond:TYR:150>  (449) 
0

>  <hbond:ASP:83>  (449) 
0

>  <hydroph_interaction:VAL:155>  (449) 
0

>  <pication:TYR:161>  (449) 
0

>  <hbond:PRO:131>  (449) 
0

>  <hbond:LEU:128>  (449) 
0

>  <saltbridge:ASP:129>  (449) 
0

>  <hbond:THR:134>  (449) 
0

>  <pication:HIS:51>  (449) 
0

>  <hbond:SER:81>  (449) 
0

>  <hbond:GLY:159>  (449) 
0

>  <hydroph_interaction:PRO:101>  (449) 
0

>  <hydroph_interaction:THR:134>  (449) 
0

>  <hbond:GLY:82>  (449) 
0

>  <hydroph_interaction:GLU:104>  (449) 
0

>  <hydroph_interaction:VAL:36>  (449) 
0

>  <hydroph_interaction:MET:49>  (449) 
0

>  <halogenbond:GLU:104>  (449) 
0

>  <hydroph_interaction:LYS:107>  (449) 
0

$$$$
Z3550931212
     RDKit          3D

 39 41  0  0  0  0  0  0  0  0999 V2000
   -6.8753    4.7567   -8.8127 C   0  0  0  0  0  0  0  0  0  0  0  0
   -6.9734    5.0778  -10.2291 N   0  0  0  0  0  0  0  0  0  0  0  0
   -7.6907    4.4150  -11.1515 C   0  0  0  0  0  0  0  0  0  0  0  0
   -7.4148    5.0346  -12.3483 C   0  0  0  0  0  0  0  0  0  0  0  0
   -7.9680    4.6787  -13.6223 N   0  0  0  0  0  0  0  0  0  0  0  0
   -7.5815    5.3091  -14.8559 C   0  0  0  0  0  0  0  0  0  0  0  0
   -6.5563    6.0434  -14.8911 O   0  0  0  0  0  0  0  0  0  0  0  0
   -8.3548    5.0853  -16.1021 C   0  0  0  0  0  0  0  0  0  0  0  0
   -9.7136    4.7267  -16.0561 C   0  0  0  0  0  0  0  0  0  0  0  0
  -10.4315    4.5263  -17.2367 C   0  0  0  0  0  0  0  0  0  0  0  0
   -9.8076    4.6868  -18.4746 C   0  0  0  0  0  0  0  0  0  0  0  0
   -8.4600    5.0553  -18.5487 C   0  0  0  0  0  0  0  0  0  0  0  0
   -7.8705    5.2143  -19.8500 N   0  0  0  0  0  0  0  0  0  0  0  0
   -6.3826    5.6450  -20.1338 S   0  0  0  0  0  6  0  0  0  0  0  0
   -5.4122    4.6610  -19.5415 O   0  0  0  0  0  0  0  0  0  0  0  0
   -6.1006    5.8486  -21.8666 C   0  0  0  0  0  0  0  0  0  0  0  0
   -5.4380    7.2160  -22.0067 C   0  0  0  0  0  0  0  0  0  0  0  0
   -5.9537    8.1232  -20.8826 C   0  0  0  0  0  0  0  0  0  0  0  0
   -6.0511    7.3000  -19.6012 C   0  0  0  0  0  0  0  0  0  0  0  0
   -7.7365    5.2561  -17.3552 C   0  0  0  0  0  0  0  0  0  0  0  0
   -6.5433    6.0409  -12.1321 N   0  0  0  0  0  0  0  0  0  0  0  0
   -6.2866    6.0371  -10.8311 N   0  0  0  0  0  0  0  0  0  0  0  0
   -7.8782    4.4975   -8.4124 H   0  0  0  0  0  0  0  0  0  0  0  0
   -6.1896    3.8949   -8.6737 H   0  0  0  0  0  0  0  0  0  0  0  0
   -6.4814    5.6299   -8.2508 H   0  0  0  0  0  0  0  0  0  0  0  0
   -8.3372    3.5664  -10.9680 H   0  0  0  0  0  0  0  0  0  0  0  0
   -8.6560    3.8935  -13.6446 H   0  0  0  0  0  0  0  0  0  0  0  0
  -10.2328    4.6235  -15.1127 H   0  0  0  0  0  0  0  0  0  0  0  0
  -11.4778    4.2523  -17.1920 H   0  0  0  0  0  0  0  0  0  0  0  0
  -10.3773    4.5297  -19.3821 H   0  0  0  0  0  0  0  0  0  0  0  0
   -7.0732    5.8400  -22.4035 H   0  0  0  0  0  0  0  0  0  0  0  0
   -5.4453    5.0431  -22.2605 H   0  0  0  0  0  0  0  0  0  0  0  0
   -5.6566    7.6596  -23.0018 H   0  0  0  0  0  0  0  0  0  0  0  0
   -4.3363    7.1015  -21.9029 H   0  0  0  0  0  0  0  0  0  0  0  0
   -6.9654    8.4970  -21.1549 H   0  0  0  0  0  0  0  0  0  0  0  0
   -5.2799    8.9953  -20.7404 H   0  0  0  0  0  0  0  0  0  0  0  0
   -5.0834    7.3243  -19.0561 H   0  0  0  0  0  0  0  0  0  0  0  0
   -6.8622    7.6809  -18.9452 H   0  0  0  0  0  0  0  0  0  0  0  0
   -6.6928    5.5349  -17.3914 H   0  0  0  0  0  0  0  0  0  0  0  0
  1  2  1  0
  2  3  1  0
  3  4  2  0
  4  5  1  0
  5  6  1  0
  6  7  2  0
  6  8  1  0
  8  9  2  0
  9 10  1  0
 10 11  2  0
 11 12  1  0
 12 13  1  0
 13 14  2  0
 14 15  2  0
 14 16  1  0
 16 17  1  0
 17 18  1  0
 18 19  1  0
 12 20  2  0
  4 21  1  0
 21 22  2  0
 22  2  1  0
 20  8  1  0
 19 14  1  0
  1 23  1  0
  1 24  1  0
  1 25  1  0
  3 26  1  0
  5 27  1  0
  9 28  1  0
 10 29  1  0
 11 30  1  0
 16 31  1  0
 16 32  1  0
 17 33  1  0
 17 34  1  0
 18 35  1  0
 18 36  1  0
 19 37  1  0
 19 38  1  0
 20 39  1  0
A    1
 C1 
A    2
 N1 
A    3
 C2 
A    4
 C3 
A    5
 N2 
A    6
 C4 
A    7
 O1 
A    8
 C5 
A    9
 C6 
A   10
 C7 
A   11
 C8 
A   12
 C9 
A   13
 N3 
A   14
 S1 
A   15
 O2 
A   16
 C10
A   17
 C11
A   18
 C12
A   19
 C13
A   20
 C14
A   21
 N4 
A   22
 N5 
A   23
 H1 
A   24
 H2 
A   25
 H3 
A   26
 H4 
A   27
 H5 
A   28
 H6 
A   29
 H7 
A   30
 H8 
A   31
 H9 
A   32
 H10
A   33
 H11
A   34
 H12
A   35
 H13
A   36
 H14
A   37
 H15
A   38
 H16
A   39
 H17
M  END
>  <ref_pdb>  (450) 
x0051_0B

>  <ref_mols>  (450) 
x1098_0B,x0229_0B

>  <original SMILES>  (450) 
[H]c1c([H])c(N=S2(=O)C([H])([H])C([H])([H])C([H])([H])C2([H])[H])c([H])c(C(=O)N([H])c2nnn(C([H])([H])[H])c2[H])c1[H]

>  <index>  (450) 
972

>  <∆∆G>  (450) 
-7.147353

>  <∆G_bound>  (450) 
-6.562448

>  <∆G_unbound>  (450) 
0.584905

>  <comRMSD>  (450) 
0.397362

>  <N_constrained_atoms>  (450) 
24.0

>  <N_unconstrained_atoms>  (450) 
0.0

>  <runtime>  (450) 
67.171217

>  <LE>  (450) 
0.297806

>  <percent_hybrid>  (450) 
42.0

>  <dist>  (450) 
8.0

>  <ecfp4>  (450) 
0.255814

>  <daylight>  (450) 
0.299663

>  <topodist>  (450) 
3.0

>  <mces>  (450) 
24.0

>  <tdn>  (450) 
2.0

>  <tup>  (450) 
0.0

>  <rdn>  (450) 
1.0

>  <rup>  (450) 
0.0

>  <ldn>  (450) 
0.0

>  <lup>  (450) 
0.0

>  <mut>  (450) 
5.0

>  <maj>  (450) 
5.0

>  <min>  (450) 
0.0

>  <hyb>  (450) 
0.0

>  <sub>  (450) 
1.0

>  <query_index>  (450) 
28.0

>  <max_hit_Tanimoto>  (450) 
0.346491

>  <largest_ring>  (450) 
6

>  <N_interactions_kept>  (450) 
1.5

>  <N_interactions_lost>  (450) 
4.0

>  <interaction_uniqueness_metric>  (450) 
0.453982

>  <ad_hoc_penalty>  (450) 
-18.318239

>  <N_rotatable_bonds>  (450) 
4

>  <N_HA>  (450) 
22

>  <cluster>  (450) 
5327

>  <N_interactions>  (450) 
8

>  <Enamine>  (450) 
1

>  <Mcule>  (450) 
0

>  <N_PAINS>  (450) 
0

>  <UFF_Gibbs>  (450) 
128.398893

>  <strain_per_HA>  (450) 
5.349954

>  <saltbridge:HIS:51>  (450) 
0

>  <pistack:HIS:51>  (450) 
1

>  <hydroph_interaction:HIS:51>  (450) 
0

>  <hbond:ALA:132>  (450) 
0

>  <hbond:SER:135>  (450) 
0

>  <hydroph_interaction:TYR:150>  (450) 
1

>  <pistack:TYR:161>  (450) 
1

>  <hydroph_interaction:TYR:161>  (450) 
0

>  <hydroph_interaction:ASP:83>  (450) 
0

>  <hbond:TYR:130>  (450) 
1

>  <hydroph_interaction:ALA:132>  (450) 
0

>  <hbond:HIS:51>  (450) 
0

>  <hbond:ASP:129>  (450) 
0

>  <hbond:TYR:150>  (450) 
0

>  <hbond:GLY:151>  (450) 
1

>  <hbond:TYR:161>  (450) 
1

>  <hydroph_interaction:TYR:130>  (450) 
0

>  <hydroph_interaction:PRO:131>  (450) 
0

>  <hydroph_interaction:ASP:129>  (450) 
0

>  <saltbridge:ASP:75>  (450) 
0

>  <saltbridge:ASP:83>  (450) 
1

>  <hydroph_interaction:ASN:152>  (450) 
0

>  <halogenbond:TYR:150>  (450) 
0

>  <hbond:ASP:83>  (450) 
0

>  <hydroph_interaction:VAL:155>  (450) 
0

>  <pication:TYR:161>  (450) 
0

>  <hbond:PRO:131>  (450) 
0

>  <hbond:LEU:128>  (450) 
0

>  <saltbridge:ASP:129>  (450) 
0

>  <hbond:THR:134>  (450) 
0

>  <pication:HIS:51>  (450) 
1

>  <hbond:SER:81>  (450) 
0

>  <hbond:GLY:159>  (450) 
0

>  <hydroph_interaction:PRO:101>  (450) 
0

>  <hydroph_interaction:THR:134>  (450) 
0

>  <hbond:GLY:82>  (450) 
0

>  <hydroph_interaction:GLU:104>  (450) 
0

>  <hydroph_interaction:VAL:36>  (450) 
0

>  <hydroph_interaction:MET:49>  (450) 
0

>  <halogenbond:GLU:104>  (450) 
0

>  <hydroph_interaction:LYS:107>  (450) 
0

$$$$
MCULE-2302017117
     RDKit          3D

 43 45  0  0  0  0  0  0  0  0999 V2000
   -8.6249    5.9957  -14.1333 C   0  0  0  0  0  0  0  0  0  0  0  0
   -8.6904    5.5022  -12.7362 C   0  0  0  0  0  0  0  0  0  0  0  0
   -9.2231    6.3189  -11.7226 C   0  0  0  0  0  0  0  0  0  0  0  0
   -9.2950    5.8633  -10.4013 C   0  0  0  0  0  0  0  0  0  0  0  0
  -10.0636    7.0067   -9.0696 Br  0  0  0  0  0  0  0  0  0  0  0  0
   -8.8371    4.5752  -10.0771 C   0  0  0  0  0  0  0  0  0  0  0  0
   -8.8981    4.0988   -8.7250 N   0  0  0  0  0  0  0  0  0  0  0  0
   -9.6665    2.8919   -8.4170 C   0  0  0  0  0  0  0  0  0  0  0  0
  -10.0799    2.9130   -6.9422 C   0  0  0  0  0  0  0  0  0  0  0  0
   -8.9563    3.1278   -6.1079 O   0  0  0  0  0  0  0  0  0  0  0  0
   -8.4191    4.4158   -6.3470 C   0  0  0  0  0  0  0  0  0  0  0  0
   -7.8694    4.5201   -7.7729 C   0  0  0  0  0  0  0  0  0  0  0  0
   -8.3219    3.7515  -11.0870 C   0  0  0  0  0  0  0  0  0  0  0  0
   -8.2495    4.2087  -12.4050 C   0  0  0  0  0  0  0  0  0  0  0  0
   -9.3517    6.9661  -14.4829 O   0  0  0  0  0  0  0  0  0  0  0  0
   -7.7149    5.4121  -15.0812 N   0  0  0  0  0  0  0  0  0  0  0  0
   -7.8454    5.5847  -16.5049 C   0  0  0  0  0  0  0  0  0  0  0  0
   -9.1185    5.5568  -17.1039 C   0  0  0  0  0  0  0  0  0  0  0  0
   -9.2571    5.6881  -18.4899 C   0  0  0  0  0  0  0  0  0  0  0  0
  -10.5653    5.6578  -19.0902 C   0  0  0  0  0  0  0  0  0  0  0  0
  -11.6170    5.6335  -19.5726 N   0  0  0  0  0  0  0  0  0  0  0  0
   -8.1230    5.8362  -19.2924 C   0  0  0  0  0  0  0  0  0  0  0  0
   -6.8528    5.8530  -18.7137 C   0  0  0  0  0  0  0  0  0  0  0  0
   -6.6994    5.7334  -17.3220 C   0  0  0  0  0  0  0  0  0  0  0  0
   -5.3170    5.7561  -16.7279 C   0  0  0  0  0  0  0  0  0  0  0  0
   -9.5803    7.3148  -11.9541 H   0  0  0  0  0  0  0  0  0  0  0  0
   -9.0406    1.9948   -8.6147 H   0  0  0  0  0  0  0  0  0  0  0  0
  -10.5775    2.8419   -9.0526 H   0  0  0  0  0  0  0  0  0  0  0  0
  -10.5297    1.9312   -6.6844 H   0  0  0  0  0  0  0  0  0  0  0  0
  -10.8623    3.6871   -6.7690 H   0  0  0  0  0  0  0  0  0  0  0  0
   -7.5884    4.5912   -5.6314 H   0  0  0  0  0  0  0  0  0  0  0  0
   -9.1805    5.2085   -6.1651 H   0  0  0  0  0  0  0  0  0  0  0  0
   -6.9812    3.8603   -7.8787 H   0  0  0  0  0  0  0  0  0  0  0  0
   -7.5566    5.5682   -7.9709 H   0  0  0  0  0  0  0  0  0  0  0  0
   -7.9724    2.7545  -10.8502 H   0  0  0  0  0  0  0  0  0  0  0  0
   -7.8662    3.5389  -13.1633 H   0  0  0  0  0  0  0  0  0  0  0  0
   -6.8731    4.9156  -14.7140 H   0  0  0  0  0  0  0  0  0  0  0  0
  -10.0013    5.4096  -16.4932 H   0  0  0  0  0  0  0  0  0  0  0  0
   -8.2199    5.9331  -20.3672 H   0  0  0  0  0  0  0  0  0  0  0  0
   -5.9870    5.9623  -19.3552 H   0  0  0  0  0  0  0  0  0  0  0  0
   -4.5598    6.0881  -17.4698 H   0  0  0  0  0  0  0  0  0  0  0  0
   -5.2817    6.4615  -15.8709 H   0  0  0  0  0  0  0  0  0  0  0  0
   -5.0445    4.7379  -16.3798 H   0  0  0  0  0  0  0  0  0  0  0  0
  1  2  1  0
  2  3  2  0
  3  4  1  0
  4  5  1  0
  4  6  2  0
  6  7  1  0
  7  8  1  0
  8  9  1  0
  9 10  1  0
 10 11  1  0
 11 12  1  0
  6 13  1  0
 13 14  2  0
  1 15  2  0
  1 16  1  0
 16 17  1  0
 17 18  2  0
 18 19  1  0
 19 20  1  0
 20 21  3  0
 19 22  2  0
 22 23  1  0
 23 24  2  0
 24 25  1  0
  2 14  1  0
 12  7  1  0
 17 24  1  0
  3 26  1  0
  8 27  1  0
  8 28  1  0
  9 29  1  0
  9 30  1  0
 11 31  1  0
 11 32  1  0
 12 33  1  0
 12 34  1  0
 13 35  1  0
 14 36  1  0
 16 37  1  0
 18 38  1  0
 22 39  1  0
 23 40  1  0
 25 41  1  0
 25 42  1  0
 25 43  1  0
A    1
 C1 
A    2
 C2 
A    3
 C3 
A    4
 C4 
A    5
BR1 
A    6
 C5 
A    7
 N1 
A    8
 C6 
A    9
 C7 
A   10
 O1 
A   11
 C8 
A   12
 C9 
A   13
 C10
A   14
 C11
A   15
 O2 
A   16
 N2 
A   17
 C12
A   18
 C13
A   19
 C14
A   20
 C15
A   21
 N3 
A   22
 C16
A   23
 C17
A   24
 C18
A   25
 C19
A   26
 H1 
A   27
 H2 
A   28
 H3 
A   29
 H4 
A   30
 H5 
A   31
 H6 
A   32
 H7 
A   33
 H8 
A   34
 H9 
A   35
 H10
A   36
 H11
A   37
 H12
A   38
 H13
A   39
 H14
A   40
 H15
A   41
 H16
A   42
 H17
A   43
 H18
M  END
>  <ref_pdb>  (451) 
x0051_0B

>  <ref_mols>  (451) 
x0553_0B,x0404_0B

>  <original SMILES>  (451) 
[H]c1c([H])c(C([H])([H])[H])c(N([H])C(=O)c2c([H])c([H])c(N3C([H])([H])C([H])([H])OC([H])([H])C3([H])[H])c(Br)c2[H])c([H])c1C#N

>  <index>  (451) 
360

>  <∆∆G>  (451) 
-6.7817

>  <∆G_bound>  (451) 
-6.280129

>  <∆G_unbound>  (451) 
0.501571

>  <comRMSD>  (451) 
0.591642

>  <N_constrained_atoms>  (451) 
24.0

>  <N_unconstrained_atoms>  (451) 
1.0

>  <runtime>  (451) 
83.886667

>  <LE>  (451) 
0.271268

>  <percent_hybrid>  (451) 
38.0

>  <dist>  (451) 
6.0

>  <ecfp4>  (451) 
0.308642

>  <daylight>  (451) 
0.226852

>  <topodist>  (451) 
3.0

>  <mces>  (451) 
26.0

>  <tdn>  (451) 
1.0

>  <tup>  (451) 
1.0

>  <rdn>  (451) 
0.0

>  <rup>  (451) 
0.0

>  <ldn>  (451) 
1.0

>  <lup>  (451) 
0.0

>  <mut>  (451) 
2.0

>  <maj>  (451) 
2.0

>  <min>  (451) 
0.0

>  <hyb>  (451) 
1.0

>  <sub>  (451) 
1.0

>  <query_index>  (451) 
112.0

>  <max_hit_Tanimoto>  (451) 
0.224138

>  <largest_ring>  (451) 
6

>  <N_interactions_kept>  (451) 
1.5

>  <N_interactions_lost>  (451) 
2.0

>  <interaction_uniqueness_metric>  (451) 
0.368339

>  <ad_hoc_penalty>  (451) 
-18.292117

>  <N_rotatable_bonds>  (451) 
4

>  <N_HA>  (451) 
25

>  <cluster>  (451) 
5889

>  <N_interactions>  (451) 
6

>  <Enamine>  (451) 
0

>  <Mcule>  (451) 
1

>  <N_PAINS>  (451) 
0

>  <UFF_Gibbs>  (451) 
298.597708

>  <strain_per_HA>  (451) 
11.943908

>  <saltbridge:HIS:51>  (451) 
0

>  <pistack:HIS:51>  (451) 
1

>  <hydroph_interaction:HIS:51>  (451) 
0

>  <hbond:ALA:132>  (451) 
0

>  <hbond:SER:135>  (451) 
0

>  <hydroph_interaction:TYR:150>  (451) 
0

>  <pistack:TYR:161>  (451) 
1

>  <hydroph_interaction:TYR:161>  (451) 
1

>  <hydroph_interaction:ASP:83>  (451) 
0

>  <hbond:TYR:130>  (451) 
0

>  <hydroph_interaction:ALA:132>  (451) 
1

>  <hbond:HIS:51>  (451) 
0

>  <hbond:ASP:129>  (451) 
0

>  <hbond:TYR:150>  (451) 
0

>  <hbond:GLY:151>  (451) 
0

>  <hbond:TYR:161>  (451) 
0

>  <hydroph_interaction:TYR:130>  (451) 
0

>  <hydroph_interaction:PRO:131>  (451) 
0

>  <hydroph_interaction:ASP:129>  (451) 
0

>  <saltbridge:ASP:75>  (451) 
0

>  <saltbridge:ASP:83>  (451) 
0

>  <hydroph_interaction:ASN:152>  (451) 
0

>  <halogenbond:TYR:150>  (451) 
0

>  <hbond:ASP:83>  (451) 
0

>  <hydroph_interaction:VAL:155>  (451) 
0

>  <pication:TYR:161>  (451) 
0

>  <hbond:PRO:131>  (451) 
1

>  <hbond:LEU:128>  (451) 
0

>  <saltbridge:ASP:129>  (451) 
0

>  <hbond:THR:134>  (451) 
1

>  <pication:HIS:51>  (451) 
0

>  <hbond:SER:81>  (451) 
0

>  <hbond:GLY:159>  (451) 
0

>  <hydroph_interaction:PRO:101>  (451) 
0

>  <hydroph_interaction:THR:134>  (451) 
0

>  <hbond:GLY:82>  (451) 
0

>  <hydroph_interaction:GLU:104>  (451) 
0

>  <hydroph_interaction:VAL:36>  (451) 
0

>  <hydroph_interaction:MET:49>  (451) 
0

>  <halogenbond:GLU:104>  (451) 
0

>  <hydroph_interaction:LYS:107>  (451) 
0

$$$$
CSSB03437231633
     RDKit          3D

 20 21  0  0  0  0  0  0  0  0999 V2000
  -10.1345    4.2426  -17.3106 C   0  0  0  0  0  0  0  0  0  0  0  0
   -8.7178    4.7379  -17.2863 C   0  0  0  0  0  0  0  0  0  0  0  0
   -8.0033    4.9455  -18.4714 C   0  0  0  0  0  0  0  0  0  0  0  0
   -8.5018    4.7155  -20.0613 S   0  0  0  0  0  0  0  0  0  0  0  0
   -7.0427    5.2001  -20.7627 C   0  0  0  0  0  0  0  0  0  0  0  0
   -6.1488    5.5477  -19.7526 C   0  0  0  0  0  0  0  0  0  0  0  0
   -6.6940    5.4025  -18.4718 C   0  0  0  0  0  0  0  0  0  0  0  0
   -6.0399    5.6733  -17.2686 C   0  0  0  0  0  0  0  0  0  0  0  0
   -6.7286    5.4756  -16.0565 C   0  0  0  0  0  0  0  0  0  0  0  0
   -6.0774    5.7467  -14.8127 N   0  0  0  0  0  0  0  0  0  0  0  0
   -8.0618    5.0098  -16.0692 C   0  0  0  0  0  0  0  0  0  0  0  0
  -10.1752    3.2519  -17.8101 H   0  0  0  0  0  0  0  0  0  0  0  0
  -10.5447    4.1355  -16.2840 H   0  0  0  0  0  0  0  0  0  0  0  0
  -10.7712    4.9595  -17.8703 H   0  0  0  0  0  0  0  0  0  0  0  0
   -6.8343    5.2355  -21.8234 H   0  0  0  0  0  0  0  0  0  0  0  0
   -5.1408    5.8928  -19.9436 H   0  0  0  0  0  0  0  0  0  0  0  0
   -5.0171    6.0302  -17.2698 H   0  0  0  0  0  0  0  0  0  0  0  0
   -5.0918    6.0916  -14.7893 H   0  0  0  0  0  0  0  0  0  0  0  0
   -6.5758    5.6047  -13.9059 H   0  0  0  0  0  0  0  0  0  0  0  0
   -8.5822    4.8612  -15.1309 H   0  0  0  0  0  0  0  0  0  0  0  0
  1  2  1  0
  2  3  2  0
  3  4  1  0
  4  5  1  0
  5  6  2  0
  6  7  1  0
  7  8  2  0
  8  9  1  0
  9 10  1  0
  9 11  2  0
 11  2  1  0
  7  3  1  0
  1 12  1  0
  1 13  1  0
  1 14  1  0
  5 15  1  0
  6 16  1  0
  8 17  1  0
 10 18  1  0
 10 19  1  0
 11 20  1  0
A    1
 C1 
A    2
 C2 
A    3
 C3 
A    4
 S1 
A    5
 C4 
A    6
 C5 
A    7
 C6 
A    8
 C7 
A    9
 C8 
A   10
 N1 
A   11
 C9 
A   12
 H1 
A   13
 H2 
A   14
 H3 
A   15
 H4 
A   16
 H5 
A   17
 H6 
A   18
 H7 
A   19
 H8 
A   20
 H9 
M  END
>  <ref_pdb>  (452) 
x0051_0B

>  <ref_mols>  (452) 
x0605_0B,x0386_0B

>  <original SMILES>  (452) 
[H]c1sc2c(C([H])([H])[H])c([H])c(N([H])[H])c([H])c2c1[H]

>  <index>  (452) 
742

>  <∆∆G>  (452) 
-6.643481

>  <∆G_bound>  (452) 
-6.683791

>  <∆G_unbound>  (452) 
-0.04031

>  <comRMSD>  (452) 
0.819638

>  <N_constrained_atoms>  (452) 
11.0

>  <N_unconstrained_atoms>  (452) 
1.0

>  <runtime>  (452) 
27.400256

>  <LE>  (452) 
0.553623

>  <percent_hybrid>  (452) 
34.0

>  <dist>  (452) 
2.0

>  <ecfp4>  (452) 
0.275

>  <daylight>  (452) 
0.313433

>  <topodist>  (452) 
2.0

>  <mces>  (452) 
10.0

>  <tdn>  (452) 
0.0

>  <tup>  (452) 
1.0

>  <rdn>  (452) 
0.0

>  <rup>  (452) 
1.0

>  <ldn>  (452) 
0.0

>  <lup>  (452) 
0.0

>  <mut>  (452) 
0.0

>  <maj>  (452) 
0.0

>  <min>  (452) 
0.0

>  <hyb>  (452) 
0.0

>  <sub>  (452) 
2.0

>  <query_index>  (452) 
312.0

>  <max_hit_Tanimoto>  (452) 
0.097363

>  <largest_ring>  (452) 
6

>  <N_interactions_kept>  (452) 
1.5

>  <N_interactions_lost>  (452) 
1.0

>  <interaction_uniqueness_metric>  (452) 
0.027887

>  <ad_hoc_penalty>  (452) 
-18.241754

>  <N_rotatable_bonds>  (452) 
2

>  <N_HA>  (452) 
11

>  <cluster>  (452) 
5540

>  <N_interactions>  (452) 
3

>  <Enamine>  (452) 
1

>  <Mcule>  (452) 
0

>  <N_PAINS>  (452) 
0

>  <UFF_Gibbs>  (452) 
36.525581

>  <strain_per_HA>  (452) 
3.043798

>  <saltbridge:HIS:51>  (452) 
0

>  <pistack:HIS:51>  (452) 
0

>  <hydroph_interaction:HIS:51>  (452) 
0

>  <hbond:ALA:132>  (452) 
0

>  <hbond:SER:135>  (452) 
0

>  <hydroph_interaction:TYR:150>  (452) 
0

>  <pistack:TYR:161>  (452) 
2

>  <hydroph_interaction:TYR:161>  (452) 
1

>  <hydroph_interaction:ASP:83>  (452) 
0

>  <hbond:TYR:130>  (452) 
0

>  <hydroph_interaction:ALA:132>  (452) 
0

>  <hbond:HIS:51>  (452) 
0

>  <hbond:ASP:129>  (452) 
0

>  <hbond:TYR:150>  (452) 
0

>  <hbond:GLY:151>  (452) 
0

>  <hbond:TYR:161>  (452) 
0

>  <hydroph_interaction:TYR:130>  (452) 
0

>  <hydroph_interaction:PRO:131>  (452) 
0

>  <hydroph_interaction:ASP:129>  (452) 
0

>  <saltbridge:ASP:75>  (452) 
0

>  <saltbridge:ASP:83>  (452) 
0

>  <hydroph_interaction:ASN:152>  (452) 
0

>  <halogenbond:TYR:150>  (452) 
0

>  <hbond:ASP:83>  (452) 
0

>  <hydroph_interaction:VAL:155>  (452) 
0

>  <pication:TYR:161>  (452) 
0

>  <hbond:PRO:131>  (452) 
0

>  <hbond:LEU:128>  (452) 
0

>  <saltbridge:ASP:129>  (452) 
0

>  <hbond:THR:134>  (452) 
0

>  <pication:HIS:51>  (452) 
0

>  <hbond:SER:81>  (452) 
0

>  <hbond:GLY:159>  (452) 
0

>  <hydroph_interaction:PRO:101>  (452) 
0

>  <hydroph_interaction:THR:134>  (452) 
0

>  <hbond:GLY:82>  (452) 
0

>  <hydroph_interaction:GLU:104>  (452) 
0

>  <hydroph_interaction:VAL:36>  (452) 
0

>  <hydroph_interaction:MET:49>  (452) 
0

>  <halogenbond:GLU:104>  (452) 
0

>  <hydroph_interaction:LYS:107>  (452) 
0

$$$$
MCULE-9389694740
     RDKit          3D

 43 45  0  0  0  0  0  0  0  0999 V2000
   -8.7264    6.0846  -14.6690 C   0  0  0  0  0  0  0  0  0  0  0  0
   -8.8856    5.7368  -13.2366 C   0  0  0  0  0  0  0  0  0  0  0  0
   -8.8999    6.7453  -12.2575 C   0  0  0  0  0  0  0  0  0  0  0  0
   -9.0103    6.4190  -10.9026 C   0  0  0  0  0  0  0  0  0  0  0  0
   -9.0939    5.0771  -10.4967 C   0  0  0  0  0  0  0  0  0  0  0  0
   -9.1801    4.7458   -9.0962 N   0  0  0  0  0  0  0  0  0  0  0  0
  -10.0369    3.6400   -8.6566 C   0  0  0  0  0  0  0  0  0  0  0  0
  -10.5483    3.8911   -7.2314 C   0  0  0  0  0  0  0  0  0  0  0  0
   -9.4670    4.2491   -6.2925 N   0  0  0  0  0  0  0  0  0  0  0  0
   -8.6206    3.0982   -5.9326 C   0  0  0  0  0  0  0  0  0  0  0  0
   -8.6854    5.4067   -6.7700 C   0  0  0  0  0  0  0  0  0  0  0  0
   -8.1248    5.2017   -8.1842 C   0  0  0  0  0  0  0  0  0  0  0  0
   -9.0862    4.0683  -11.4755 C   0  0  0  0  0  0  0  0  0  0  0  0
   -8.9815    4.3940  -12.8304 C   0  0  0  0  0  0  0  0  0  0  0  0
   -8.2474    7.2069  -14.9905 O   0  0  0  0  0  0  0  0  0  0  0  0
   -9.1355    5.1686  -15.6949 N   0  0  0  0  0  0  0  0  0  0  0  0
   -8.4833    5.0846  -16.9714 C   0  0  0  0  0  0  0  0  0  0  0  0
   -7.2173    5.5453  -17.2767 C   0  0  0  0  0  0  0  0  0  0  0  0
   -7.0175    5.1402  -18.5831 C   0  0  0  0  0  0  0  0  0  0  0  0
   -8.1024    4.4719  -19.0269 N   0  0  0  0  0  0  0  0  0  0  0  0
   -8.9850    4.4379  -18.0412 N   0  0  0  0  0  0  0  0  0  0  0  0
  -10.2946    3.8026  -18.1453 C   0  0  0  0  0  0  0  0  0  0  0  0
   -8.8316    7.7894  -12.5386 H   0  0  0  0  0  0  0  0  0  0  0  0
   -9.0392    7.2157  -10.1709 H   0  0  0  0  0  0  0  0  0  0  0  0
   -9.4709    2.6849   -8.7015 H   0  0  0  0  0  0  0  0  0  0  0  0
  -10.9168    3.5473   -9.3305 H   0  0  0  0  0  0  0  0  0  0  0  0
  -11.0937    2.9932   -6.8677 H   0  0  0  0  0  0  0  0  0  0  0  0
  -11.2886    4.7218   -7.2594 H   0  0  0  0  0  0  0  0  0  0  0  0
   -7.8918    3.3943   -5.1487 H   0  0  0  0  0  0  0  0  0  0  0  0
   -9.2461    2.2852   -5.5078 H   0  0  0  0  0  0  0  0  0  0  0  0
   -8.0644    2.7007   -6.8063 H   0  0  0  0  0  0  0  0  0  0  0  0
   -9.3389    6.3053   -6.7698 H   0  0  0  0  0  0  0  0  0  0  0  0
   -7.8502    5.6230   -6.0705 H   0  0  0  0  0  0  0  0  0  0  0  0
   -7.3015    4.4561   -8.1697 H   0  0  0  0  0  0  0  0  0  0  0  0
   -7.6885    6.1636   -8.5277 H   0  0  0  0  0  0  0  0  0  0  0  0
   -9.1340    3.0259  -11.1898 H   0  0  0  0  0  0  0  0  0  0  0  0
   -8.9465    3.5905  -13.5545 H   0  0  0  0  0  0  0  0  0  0  0  0
   -9.9394    4.5308  -15.4995 H   0  0  0  0  0  0  0  0  0  0  0  0
   -6.5183    6.0671  -16.6367 H   0  0  0  0  0  0  0  0  0  0  0  0
   -6.1252    5.3099  -19.1714 H   0  0  0  0  0  0  0  0  0  0  0  0
  -10.3917    3.0072  -17.3749 H   0  0  0  0  0  0  0  0  0  0  0  0
  -10.4180    3.3406  -19.1482 H   0  0  0  0  0  0  0  0  0  0  0  0
  -11.0928    4.5618  -17.9997 H   0  0  0  0  0  0  0  0  0  0  0  0
  1  2  1  0
  2  3  2  0
  3  4  1  0
  4  5  2  0
  5  6  1  0
  6  7  1  0
  7  8  1  0
  8  9  1  0
  9 10  1  0
  9 11  1  0
 11 12  1  0
  5 13  1  0
 13 14  2  0
  1 15  2  0
  1 16  1  0
 16 17  1  0
 17 18  2  0
 18 19  1  0
 19 20  2  0
 20 21  1  0
 21 22  1  0
  2 14  1  0
 12  6  1  0
 21 17  1  0
  3 23  1  0
  4 24  1  0
  7 25  1  0
  7 26  1  0
  8 27  1  0
  8 28  1  0
 10 29  1  0
 10 30  1  0
 10 31  1  0
 11 32  1  0
 11 33  1  0
 12 34  1  0
 12 35  1  0
 13 36  1  0
 14 37  1  0
 16 38  1  0
 18 39  1  0
 19 40  1  0
 22 41  1  0
 22 42  1  0
 22 43  1  0
A    1
 C1 
A    2
 C2 
A    3
 C3 
A    4
 C4 
A    5
 C5 
A    6
 N1 
A    7
 C6 
A    8
 C7 
A    9
 N2 
A   10
 C8 
A   11
 C9 
A   12
 C10
A   13
 C11
A   14
 C12
A   15
 O1 
A   16
 N3 
A   17
 C13
A   18
 C14
A   19
 C15
A   20
 N4 
A   21
 N5 
A   22
 C16
A   23
 H1 
A   24
 H2 
A   25
 H3 
A   26
 H4 
A   27
 H5 
A   28
 H6 
A   29
 H7 
A   30
 H8 
A   31
 H9 
A   32
 H10
A   33
 H11
A   34
 H12
A   35
 H13
A   36
 H14
A   37
 H15
A   38
 H16
A   39
 H17
A   40
 H18
A   41
 H19
A   42
 H20
A   43
 H21
M  END
>  <ref_pdb>  (453) 
x0051_0B

>  <ref_mols>  (453) 
x0386_0B,x0404_0B

>  <original SMILES>  (453) 
[H]c1nn(C([H])([H])[H])c(N([H])C(=O)c2c([H])c([H])c(N3C([H])([H])C([H])([H])N(C([H])([H])[H])C([H])([H])C3([H])[H])c([H])c2[H])c1[H]

>  <index>  (453) 
588

>  <∆∆G>  (453) 
-5.593604

>  <∆G_bound>  (453) 
-5.29564

>  <∆G_unbound>  (453) 
0.297964

>  <comRMSD>  (453) 
0.833545

>  <N_constrained_atoms>  (453) 
21.0

>  <N_unconstrained_atoms>  (453) 
2.0

>  <runtime>  (453) 
80.985561

>  <LE>  (453) 
0.2432

>  <percent_hybrid>  (453) 
29.0

>  <dist>  (453) 
8.0

>  <ecfp4>  (453) 
0.233766

>  <daylight>  (453) 
0.205645

>  <topodist>  (453) 
4.0

>  <mces>  (453) 
23.0

>  <tdn>  (453) 
2.0

>  <tup>  (453) 
1.0

>  <rdn>  (453) 
0.0

>  <rup>  (453) 
0.0

>  <ldn>  (453) 
1.0

>  <lup>  (453) 
0.0

>  <mut>  (453) 
3.0

>  <maj>  (453) 
3.0

>  <min>  (453) 
0.0

>  <hyb>  (453) 
1.0

>  <sub>  (453) 
2.0

>  <query_index>  (453) 
109.0

>  <max_hit_Tanimoto>  (453) 
0.296987

>  <largest_ring>  (453) 
6

>  <N_interactions_kept>  (453) 
2.0

>  <N_interactions_lost>  (453) 
1.5

>  <interaction_uniqueness_metric>  (453) 
0.248636

>  <ad_hoc_penalty>  (453) 
-18.237496

>  <N_rotatable_bonds>  (453) 
5

>  <N_HA>  (453) 
22

>  <cluster>  (453) 
5680

>  <N_interactions>  (453) 
6

>  <Enamine>  (453) 
0

>  <Mcule>  (453) 
1

>  <N_PAINS>  (453) 
0

>  <UFF_Gibbs>  (453) 
161.299624

>  <strain_per_HA>  (453) 
7.013027

>  <saltbridge:HIS:51>  (453) 
0

>  <pistack:HIS:51>  (453) 
1

>  <hydroph_interaction:HIS:51>  (453) 
1

>  <hbond:ALA:132>  (453) 
0

>  <hbond:SER:135>  (453) 
2

>  <hydroph_interaction:TYR:150>  (453) 
0

>  <pistack:TYR:161>  (453) 
1

>  <hydroph_interaction:TYR:161>  (453) 
0

>  <hydroph_interaction:ASP:83>  (453) 
0

>  <hbond:TYR:130>  (453) 
0

>  <hydroph_interaction:ALA:132>  (453) 
0

>  <hbond:HIS:51>  (453) 
0

>  <hbond:ASP:129>  (453) 
0

>  <hbond:TYR:150>  (453) 
0

>  <hbond:GLY:151>  (453) 
0

>  <hbond:TYR:161>  (453) 
0

>  <hydroph_interaction:TYR:130>  (453) 
0

>  <hydroph_interaction:PRO:131>  (453) 
0

>  <hydroph_interaction:ASP:129>  (453) 
0

>  <saltbridge:ASP:75>  (453) 
1

>  <saltbridge:ASP:83>  (453) 
0

>  <hydroph_interaction:ASN:152>  (453) 
0

>  <halogenbond:TYR:150>  (453) 
0

>  <hbond:ASP:83>  (453) 
0

>  <hydroph_interaction:VAL:155>  (453) 
0

>  <pication:TYR:161>  (453) 
0

>  <hbond:PRO:131>  (453) 
0

>  <hbond:LEU:128>  (453) 
0

>  <saltbridge:ASP:129>  (453) 
0

>  <hbond:THR:134>  (453) 
0

>  <pication:HIS:51>  (453) 
0

>  <hbond:SER:81>  (453) 
0

>  <hbond:GLY:159>  (453) 
0

>  <hydroph_interaction:PRO:101>  (453) 
0

>  <hydroph_interaction:THR:134>  (453) 
0

>  <hbond:GLY:82>  (453) 
0

>  <hydroph_interaction:GLU:104>  (453) 
0

>  <hydroph_interaction:VAL:36>  (453) 
0

>  <hydroph_interaction:MET:49>  (453) 
0

>  <halogenbond:GLU:104>  (453) 
0

>  <hydroph_interaction:LYS:107>  (453) 
0

$$$$
CSSS00000073669
     RDKit          3D

 20 21  0  0  0  0  0  0  0  0999 V2000
  -10.4994    4.5242  -15.7855 O   0  0  0  0  0  0  0  0  0  0  0  0
   -9.5465    4.8054  -16.7633 C   0  0  0  0  0  0  0  0  0  0  0  0
   -9.9326    4.8727  -18.1108 C   0  0  0  0  0  0  0  0  0  0  0  0
   -8.9837    5.1550  -19.1077 C   0  0  0  0  0  0  0  0  0  0  0  0
   -7.6406    5.3724  -18.7641 C   0  0  0  0  0  0  0  0  0  0  0  0
   -6.4591    5.7250  -20.0150 Cl  0  0  0  0  0  0  0  0  0  0  0  0
   -7.2712    5.3017  -17.4148 C   0  0  0  0  0  0  0  0  0  0  0  0
   -8.1987    5.0256  -16.4388 C   0  0  0  0  0  0  0  0  0  0  0  0
   -7.5882    5.0001  -15.0871 C   0  0  0  0  0  0  0  0  0  0  0  0
   -6.1000    5.3063  -15.3359 C   0  0  0  0  0  0  0  0  0  0  0  0
   -5.9134    5.4990  -16.8517 C   0  0  0  0  0  0  0  0  0  0  0  0
  -10.2601    4.4672  -14.8031 H   0  0  0  0  0  0  0  0  0  0  0  0
  -10.9663    4.7065  -18.3862 H   0  0  0  0  0  0  0  0  0  0  0  0
   -9.2940    5.2042  -20.1436 H   0  0  0  0  0  0  0  0  0  0  0  0
   -8.0497    5.7792  -14.4427 H   0  0  0  0  0  0  0  0  0  0  0  0
   -7.7137    3.9958  -14.6281 H   0  0  0  0  0  0  0  0  0  0  0  0
   -5.8022    6.2296  -14.7924 H   0  0  0  0  0  0  0  0  0  0  0  0
   -5.4696    4.4640  -14.9758 H   0  0  0  0  0  0  0  0  0  0  0  0
   -5.5489    6.5240  -17.0789 H   0  0  0  0  0  0  0  0  0  0  0  0
   -5.2130    4.7411  -17.2642 H   0  0  0  0  0  0  0  0  0  0  0  0
  1  2  1  0
  2  3  2  0
  3  4  1  0
  4  5  2  0
  5  6  1  0
  5  7  1  0
  7  8  2  0
  8  9  1  0
  9 10  1  0
 10 11  1  0
  8  2  1  0
 11  7  1  0
  1 12  1  0
  3 13  1  0
  4 14  1  0
  9 15  1  0
  9 16  1  0
 10 17  1  0
 10 18  1  0
 11 19  1  0
 11 20  1  0
A    1
 O1 
A    2
 C1 
A    3
 C2 
A    4
 C3 
A    5
 C4 
A    6
CL1 
A    7
 C5 
A    8
 C6 
A    9
 C7 
A   10
 C8 
A   11
 C9 
A   12
 H1 
A   13
 H2 
A   14
 H3 
A   15
 H4 
A   16
 H5 
A   17
 H6 
A   18
 H7 
A   19
 H8 
A   20
 H9 
M  END
>  <ref_pdb>  (454) 
x0051_0B

>  <ref_mols>  (454) 
x0455_0B,x0382_0B

>  <original SMILES>  (454) 
[H]Oc1c([H])c([H])c(Cl)c2c1C([H])([H])C([H])([H])C2([H])[H]

>  <index>  (454) 
725

>  <∆∆G>  (454) 
-5.485707

>  <∆G_bound>  (454) 
-5.373197

>  <∆G_unbound>  (454) 
0.112511

>  <comRMSD>  (454) 
0.667057

>  <N_constrained_atoms>  (454) 
11.0

>  <N_unconstrained_atoms>  (454) 
1.0

>  <runtime>  (454) 
18.461996

>  <LE>  (454) 
0.457142

>  <percent_hybrid>  (454) 
20.0

>  <dist>  (454) 
4.0

>  <ecfp4>  (454) 
0.152174

>  <daylight>  (454) 
0.155689

>  <topodist>  (454) 
3.0

>  <mces>  (454) 
11.0

>  <tdn>  (454) 
0.0

>  <tup>  (454) 
1.0

>  <rdn>  (454) 
0.0

>  <rup>  (454) 
0.0

>  <ldn>  (454) 
2.0

>  <lup>  (454) 
0.0

>  <mut>  (454) 
1.0

>  <maj>  (454) 
1.0

>  <min>  (454) 
0.0

>  <hyb>  (454) 
0.0

>  <sub>  (454) 
0.0

>  <query_index>  (454) 
293.0

>  <max_hit_Tanimoto>  (454) 
0.156018

>  <largest_ring>  (454) 
6

>  <N_interactions_kept>  (454) 
0.0

>  <N_interactions_lost>  (454) 
1.5

>  <interaction_uniqueness_metric>  (454) 
0.085884

>  <ad_hoc_penalty>  (454) 
-18.226822

>  <N_rotatable_bonds>  (454) 
1

>  <N_HA>  (454) 
11

>  <cluster>  (454) 
5556

>  <N_interactions>  (454) 
4

>  <Enamine>  (454) 
1

>  <Mcule>  (454) 
0

>  <N_PAINS>  (454) 
0

>  <UFF_Gibbs>  (454) 
45.648034

>  <strain_per_HA>  (454) 
3.804003

>  <saltbridge:HIS:51>  (454) 
0

>  <pistack:HIS:51>  (454) 
0

>  <hydroph_interaction:HIS:51>  (454) 
0

>  <hbond:ALA:132>  (454) 
0

>  <hbond:SER:135>  (454) 
1

>  <hydroph_interaction:TYR:150>  (454) 
1

>  <pistack:TYR:161>  (454) 
1

>  <hydroph_interaction:TYR:161>  (454) 
1

>  <hydroph_interaction:ASP:83>  (454) 
0

>  <hbond:TYR:130>  (454) 
0

>  <hydroph_interaction:ALA:132>  (454) 
0

>  <hbond:HIS:51>  (454) 
0

>  <hbond:ASP:129>  (454) 
0

>  <hbond:TYR:150>  (454) 
0

>  <hbond:GLY:151>  (454) 
0

>  <hbond:TYR:161>  (454) 
0

>  <hydroph_interaction:TYR:130>  (454) 
0

>  <hydroph_interaction:PRO:131>  (454) 
0

>  <hydroph_interaction:ASP:129>  (454) 
0

>  <saltbridge:ASP:75>  (454) 
0

>  <saltbridge:ASP:83>  (454) 
0

>  <hydroph_interaction:ASN:152>  (454) 
0

>  <halogenbond:TYR:150>  (454) 
0

>  <hbond:ASP:83>  (454) 
0

>  <hydroph_interaction:VAL:155>  (454) 
0

>  <pication:TYR:161>  (454) 
0

>  <hbond:PRO:131>  (454) 
0

>  <hbond:LEU:128>  (454) 
0

>  <saltbridge:ASP:129>  (454) 
0

>  <hbond:THR:134>  (454) 
0

>  <pication:HIS:51>  (454) 
0

>  <hbond:SER:81>  (454) 
0

>  <hbond:GLY:159>  (454) 
0

>  <hydroph_interaction:PRO:101>  (454) 
0

>  <hydroph_interaction:THR:134>  (454) 
0

>  <hbond:GLY:82>  (454) 
0

>  <hydroph_interaction:GLU:104>  (454) 
0

>  <hydroph_interaction:VAL:36>  (454) 
0

>  <hydroph_interaction:MET:49>  (454) 
0

>  <halogenbond:GLU:104>  (454) 
0

>  <hydroph_interaction:LYS:107>  (454) 
0

$$$$
CSCS03437706422
     RDKit          3D

 20 21  0  0  0  0  0  0  0  0999 V2000
  -10.1528    5.0156  -15.5906 N   0  0  0  0  0  0  0  0  0  0  0  0
   -9.5034    5.2945  -16.8276 C   0  0  0  0  0  0  0  0  0  0  0  0
   -8.1946    5.0537  -17.0463 N   0  0  0  0  0  0  0  0  0  0  0  0
   -7.8203    5.4111  -18.3061 C   0  0  0  0  0  0  0  0  0  0  0  0
   -8.8516    5.9318  -19.0930 C   0  0  0  0  0  0  0  0  0  0  0  0
  -10.2610    5.9512  -18.1731 S   0  0  0  0  0  0  0  0  0  0  0  0
   -6.4333    5.2252  -18.7989 C   0  0  0  0  0  0  0  0  0  0  0  0
   -6.2227    4.8398  -20.1373 C   0  0  0  0  0  0  0  0  0  0  0  0
   -4.9299    4.6373  -20.6257 C   0  0  0  0  0  0  0  0  0  0  0  0
   -3.8295    4.8178  -19.7886 C   0  0  0  0  0  0  0  0  0  0  0  0
   -4.0182    5.2052  -18.4613 C   0  0  0  0  0  0  0  0  0  0  0  0
   -5.3092    5.4115  -17.9578 C   0  0  0  0  0  0  0  0  0  0  0  0
   -5.4567    5.9655  -16.2921 Cl  0  0  0  0  0  0  0  0  0  0  0  0
   -9.6155    4.6058  -14.7949 H   0  0  0  0  0  0  0  0  0  0  0  0
  -11.1695    5.2196  -15.4709 H   0  0  0  0  0  0  0  0  0  0  0  0
   -8.7655    6.2792  -20.1139 H   0  0  0  0  0  0  0  0  0  0  0  0
   -7.0601    4.6743  -20.8034 H   0  0  0  0  0  0  0  0  0  0  0  0
   -4.7818    4.3355  -21.6546 H   0  0  0  0  0  0  0  0  0  0  0  0
   -2.8286    4.6610  -20.1695 H   0  0  0  0  0  0  0  0  0  0  0  0
   -3.1558    5.3536  -17.8236 H   0  0  0  0  0  0  0  0  0  0  0  0
  1  2  1  0
  2  3  2  0
  3  4  1  0
  4  5  2  0
  5  6  1  0
  4  7  1  0
  7  8  2  0
  8  9  1  0
  9 10  2  0
 10 11  1  0
 11 12  2  0
 12 13  1  0
  6  2  1  0
 12  7  1  0
  1 14  1  0
  1 15  1  0
  5 16  1  0
  8 17  1  0
  9 18  1  0
 10 19  1  0
 11 20  1  0
A    1
 N1 
A    2
 C1 
A    3
 N2 
A    4
 C2 
A    5
 C3 
A    6
 S1 
A    7
 C4 
A    8
 C5 
A    9
 C6 
A   10
 C7 
A   11
 C8 
A   12
 C9 
A   13
CL1 
A   14
 H1 
A   15
 H2 
A   16
 H3 
A   17
 H4 
A   18
 H5 
A   19
 H6 
A   20
 H7 
M  END
>  <ref_pdb>  (455) 
x0051_0B

>  <ref_mols>  (455) 
x0680_0B,x0386_0B

>  <original SMILES>  (455) 
[H]c1sc(N([H])[H])nc1-c1c([H])c([H])c([H])c([H])c1Cl

>  <index>  (455) 
812

>  <∆∆G>  (455) 
-6.144385

>  <∆G_bound>  (455) 
-5.90076

>  <∆G_unbound>  (455) 
0.243626

>  <comRMSD>  (455) 
0.57395

>  <N_constrained_atoms>  (455) 
12.0

>  <N_unconstrained_atoms>  (455) 
1.0

>  <runtime>  (455) 
27.429028

>  <LE>  (455) 
0.472645

>  <percent_hybrid>  (455) 
17.0

>  <dist>  (455) 
4.0

>  <ecfp4>  (455) 
0.145455

>  <daylight>  (455) 
0.166667

>  <topodist>  (455) 
1.0

>  <mces>  (455) 
13.0

>  <tdn>  (455) 
0.0

>  <tup>  (455) 
1.0

>  <rdn>  (455) 
0.0

>  <rup>  (455) 
0.0

>  <ldn>  (455) 
0.0

>  <lup>  (455) 
0.0

>  <mut>  (455) 
3.0

>  <maj>  (455) 
2.0

>  <min>  (455) 
1.0

>  <hyb>  (455) 
0.0

>  <sub>  (455) 
1.0

>  <query_index>  (455) 
296.0

>  <max_hit_Tanimoto>  (455) 
0.11756

>  <largest_ring>  (455) 
6

>  <N_interactions_kept>  (455) 
2.5

>  <N_interactions_lost>  (455) 
1.5

>  <interaction_uniqueness_metric>  (455) 
0.090198

>  <ad_hoc_penalty>  (455) 
-18.178703

>  <N_rotatable_bonds>  (455) 
2

>  <N_HA>  (455) 
13

>  <cluster>  (455) 
5474

>  <N_interactions>  (455) 
4

>  <Enamine>  (455) 
1

>  <Mcule>  (455) 
0

>  <N_PAINS>  (455) 
0

>  <UFF_Gibbs>  (455) 
39.987769

>  <strain_per_HA>  (455) 
3.075982

>  <saltbridge:HIS:51>  (455) 
0

>  <pistack:HIS:51>  (455) 
0

>  <hydroph_interaction:HIS:51>  (455) 
0

>  <hbond:ALA:132>  (455) 
0

>  <hbond:SER:135>  (455) 
2

>  <hydroph_interaction:TYR:150>  (455) 
0

>  <pistack:TYR:161>  (455) 
1

>  <hydroph_interaction:TYR:161>  (455) 
1

>  <hydroph_interaction:ASP:83>  (455) 
0

>  <hbond:TYR:130>  (455) 
0

>  <hydroph_interaction:ALA:132>  (455) 
0

>  <hbond:HIS:51>  (455) 
0

>  <hbond:ASP:129>  (455) 
0

>  <hbond:TYR:150>  (455) 
0

>  <hbond:GLY:151>  (455) 
0

>  <hbond:TYR:161>  (455) 
0

>  <hydroph_interaction:TYR:130>  (455) 
0

>  <hydroph_interaction:PRO:131>  (455) 
0

>  <hydroph_interaction:ASP:129>  (455) 
0

>  <saltbridge:ASP:75>  (455) 
0

>  <saltbridge:ASP:83>  (455) 
0

>  <hydroph_interaction:ASN:152>  (455) 
0

>  <halogenbond:TYR:150>  (455) 
0

>  <hbond:ASP:83>  (455) 
0

>  <hydroph_interaction:VAL:155>  (455) 
0

>  <pication:TYR:161>  (455) 
0

>  <hbond:PRO:131>  (455) 
0

>  <hbond:LEU:128>  (455) 
0

>  <saltbridge:ASP:129>  (455) 
0

>  <hbond:THR:134>  (455) 
0

>  <pication:HIS:51>  (455) 
0

>  <hbond:SER:81>  (455) 
0

>  <hbond:GLY:159>  (455) 
0

>  <hydroph_interaction:PRO:101>  (455) 
0

>  <hydroph_interaction:THR:134>  (455) 
0

>  <hbond:GLY:82>  (455) 
0

>  <hydroph_interaction:GLU:104>  (455) 
0

>  <hydroph_interaction:VAL:36>  (455) 
0

>  <hydroph_interaction:MET:49>  (455) 
0

>  <halogenbond:GLU:104>  (455) 
0

>  <hydroph_interaction:LYS:107>  (455) 
0

$$$$
MCULE-4825135232
     RDKit          3D

 52 55  0  0  0  0  0  0  0  0999 V2000
   -6.1372    5.8893  -18.7254 C   0  0  0  0  0  0  0  0  0  0  0  0
   -4.9396    5.4216  -18.3040 N   0  0  0  0  0  0  0  0  0  0  0  0
   -4.6860    4.2953  -17.4041 C   0  0  0  0  0  0  0  0  0  0  0  0
   -4.8474    2.9757  -18.1488 C   0  0  0  0  0  0  0  0  0  0  0  0
   -3.9742    6.0253  -18.9798 N   0  0  0  0  0  0  0  0  0  0  0  0
   -4.5474    6.9008  -19.8287 C   0  0  0  0  0  0  0  0  0  0  0  0
   -5.9213    6.8356  -19.7064 C   0  0  0  0  0  0  0  0  0  0  0  0
   -7.4623    5.4298  -18.2664 C   0  0  0  0  0  0  0  0  0  0  0  0
   -7.8019    5.4729  -16.9045 C   0  0  0  0  0  0  0  0  0  0  0  0
   -9.0726    5.0499  -16.4710 C   0  0  0  0  0  0  0  0  0  0  0  0
   -9.4304    5.0498  -15.0774 N   0  0  0  0  0  0  0  0  0  0  0  0
   -8.8934    5.9689  -14.1107 C   0  0  0  0  0  0  0  0  0  0  0  0
   -8.8966    5.6380  -12.6643 C   0  0  0  0  0  0  0  0  0  0  0  0
   -8.7459    6.6547  -11.7047 C   0  0  0  0  0  0  0  0  0  0  0  0
   -8.7429    6.3502  -10.3405 C   0  0  0  0  0  0  0  0  0  0  0  0
   -8.8811    5.0229   -9.9071 C   0  0  0  0  0  0  0  0  0  0  0  0
   -8.8844    4.7159   -8.4994 N   0  0  0  0  0  0  0  0  0  0  0  0
   -9.7965    3.7007   -7.9644 C   0  0  0  0  0  0  0  0  0  0  0  0
  -10.1238    4.0220   -6.5027 C   0  0  0  0  0  0  0  0  0  0  0  0
   -8.9391    4.2011   -5.7494 O   0  0  0  0  0  0  0  0  0  0  0  0
   -8.2401    5.3392   -6.2188 C   0  0  0  0  0  0  0  0  0  0  0  0
   -7.7565    5.1255   -7.6563 C   0  0  0  0  0  0  0  0  0  0  0  0
   -9.0264    4.0049  -10.8633 C   0  0  0  0  0  0  0  0  0  0  0  0
   -9.0291    4.3078  -12.2277 C   0  0  0  0  0  0  0  0  0  0  0  0
   -8.4546    7.0894  -14.4903 O   0  0  0  0  0  0  0  0  0  0  0  0
   -9.9905    4.5672  -17.4163 C   0  0  0  0  0  0  0  0  0  0  0  0
   -9.6626    4.5427  -18.7740 C   0  0  0  0  0  0  0  0  0  0  0  0
   -8.4074    4.9810  -19.2002 C   0  0  0  0  0  0  0  0  0  0  0  0
   -5.3738    4.3189  -16.5367 H   0  0  0  0  0  0  0  0  0  0  0  0
   -3.6496    4.3631  -17.0079 H   0  0  0  0  0  0  0  0  0  0  0  0
   -5.8835    2.8750  -18.5348 H   0  0  0  0  0  0  0  0  0  0  0  0
   -4.6376    2.1305  -17.4602 H   0  0  0  0  0  0  0  0  0  0  0  0
   -4.1347    2.9301  -18.9992 H   0  0  0  0  0  0  0  0  0  0  0  0
   -3.9982    7.5342  -20.5115 H   0  0  0  0  0  0  0  0  0  0  0  0
   -6.6606    7.3980  -20.2608 H   0  0  0  0  0  0  0  0  0  0  0  0
   -7.0769    5.8367  -16.1882 H   0  0  0  0  0  0  0  0  0  0  0  0
  -10.1998    4.4122  -14.7706 H   0  0  0  0  0  0  0  0  0  0  0  0
   -8.6431    7.6893  -12.0077 H   0  0  0  0  0  0  0  0  0  0  0  0
   -8.6512    7.1539   -9.6218 H   0  0  0  0  0  0  0  0  0  0  0  0
   -9.3134    2.7017   -8.0254 H   0  0  0  0  0  0  0  0  0  0  0  0
  -10.7415    3.6804   -8.5502 H   0  0  0  0  0  0  0  0  0  0  0  0
  -10.7793    4.9204   -6.4397 H   0  0  0  0  0  0  0  0  0  0  0  0
  -10.6927    3.1719   -6.0702 H   0  0  0  0  0  0  0  0  0  0  0  0
   -8.8719    6.2543   -6.1531 H   0  0  0  0  0  0  0  0  0  0  0  0
   -7.3567    5.5053   -5.5668 H   0  0  0  0  0  0  0  0  0  0  0  0
   -7.2939    6.0643   -8.0272 H   0  0  0  0  0  0  0  0  0  0  0  0
   -6.9832    4.3273   -7.6713 H   0  0  0  0  0  0  0  0  0  0  0  0
   -9.1195    2.9715  -10.5547 H   0  0  0  0  0  0  0  0  0  0  0  0
   -9.1153    3.4949  -12.9367 H   0  0  0  0  0  0  0  0  0  0  0  0
  -10.9667    4.2211  -17.1007 H   0  0  0  0  0  0  0  0  0  0  0  0
  -10.3825    4.1814  -19.4975 H   0  0  0  0  0  0  0  0  0  0  0  0
   -8.1652    4.9523  -20.2553 H   0  0  0  0  0  0  0  0  0  0  0  0
  1  2  1  0
  2  3  1  0
  3  4  1  0
  2  5  1  0
  5  6  2  0
  6  7  1  0
  1  8  1  0
  8  9  2  0
  9 10  1  0
 10 11  1  0
 11 12  1  0
 12 13  1  0
 13 14  2  0
 14 15  1  0
 15 16  2  0
 16 17  1  0
 17 18  1  0
 18 19  1  0
 19 20  1  0
 20 21  1  0
 21 22  1  0
 16 23  1  0
 23 24  2  0
 12 25  2  0
 10 26  2  0
 26 27  1  0
 27 28  2  0
  1  7  2  0
  8 28  1  0
 13 24  1  0
 22 17  1  0
  3 29  1  0
  3 30  1  0
  4 31  1  0
  4 32  1  0
  4 33  1  0
  6 34  1  0
  7 35  1  0
  9 36  1  0
 11 37  1  0
 14 38  1  0
 15 39  1  0
 18 40  1  0
 18 41  1  0
 19 42  1  0
 19 43  1  0
 21 44  1  0
 21 45  1  0
 22 46  1  0
 22 47  1  0
 23 48  1  0
 24 49  1  0
 26 50  1  0
 27 51  1  0
 28 52  1  0
A    1
 C1 
A    2
 N1 
A    3
 C2 
A    4
 C3 
A    5
 N2 
A    6
 C4 
A    7
 C5 
A    8
 C6 
A    9
 C7 
A   10
 C8 
A   11
 N3 
A   12
 C9 
A   13
 C10
A   14
 C11
A   15
 C12
A   16
 C13
A   17
 N4 
A   18
 C14
A   19
 C15
A   20
 O1 
A   21
 C16
A   22
 C17
A   23
 C18
A   24
 C19
A   25
 O2 
A   26
 C20
A   27
 C21
A   28
 C22
A   29
 H1 
A   30
 H2 
A   31
 H3 
A   32
 H4 
A   33
 H5 
A   34
 H6 
A   35
 H7 
A   36
 H8 
A   37
 H9 
A   38
 H10
A   39
 H11
A   40
 H12
A   41
 H13
A   42
 H14
A   43
 H15
A   44
 H16
A   45
 H17
A   46
 H18
A   47
 H19
A   48
 H20
A   49
 H21
A   50
 H22
A   51
 H23
A   52
 H24
M  END
>  <ref_pdb>  (456) 
x0051_0B

>  <ref_mols>  (456) 
x0490_0B,x0404_0B

>  <original SMILES>  (456) 
[H]c1nn(C([H])([H])C([H])([H])[H])c(-c2c([H])c([H])c([H])c(N([H])C(=O)c3c([H])c([H])c(N4C([H])([H])C([H])([H])OC([H])([H])C4([H])[H])c([H])c3[H])c2[H])c1[H]

>  <index>  (456) 
155

>  <∆∆G>  (456) 
-9.324655

>  <∆G_bound>  (456) 
-9.484521

>  <∆G_unbound>  (456) 
-0.159865

>  <comRMSD>  (456) 
0.828546

>  <N_constrained_atoms>  (456) 
26.0

>  <N_unconstrained_atoms>  (456) 
2.0

>  <runtime>  (456) 
106.000954

>  <LE>  (456) 
0.333023

>  <percent_hybrid>  (456) 
43.0

>  <dist>  (456) 
10.0

>  <ecfp4>  (456) 
0.255814

>  <daylight>  (456) 
0.191919

>  <topodist>  (456) 
4.0

>  <mces>  (456) 
29.0

>  <tdn>  (456) 
1.0

>  <tup>  (456) 
0.0

>  <rdn>  (456) 
1.0

>  <rup>  (456) 
1.0

>  <ldn>  (456) 
0.0

>  <lup>  (456) 
1.0

>  <mut>  (456) 
5.0

>  <maj>  (456) 
5.0

>  <min>  (456) 
0.0

>  <hyb>  (456) 
1.0

>  <sub>  (456) 
1.0

>  <query_index>  (456) 
10.0

>  <max_hit_Tanimoto>  (456) 
0.220395

>  <largest_ring>  (456) 
6

>  <N_interactions_kept>  (456) 
2.0

>  <N_interactions_lost>  (456) 
2.5

>  <interaction_uniqueness_metric>  (456) 
0.19325

>  <ad_hoc_penalty>  (456) 
-18.142904

>  <N_rotatable_bonds>  (456) 
6

>  <N_HA>  (456) 
28

>  <cluster>  (456) 
6077

>  <N_interactions>  (456) 
8

>  <Enamine>  (456) 
0

>  <Mcule>  (456) 
1

>  <N_PAINS>  (456) 
0

>  <UFF_Gibbs>  (456) 
423.261043

>  <strain_per_HA>  (456) 
15.116466

>  <saltbridge:HIS:51>  (456) 
0

>  <pistack:HIS:51>  (456) 
1

>  <hydroph_interaction:HIS:51>  (456) 
1

>  <hbond:ALA:132>  (456) 
0

>  <hbond:SER:135>  (456) 
0

>  <hydroph_interaction:TYR:150>  (456) 
1

>  <pistack:TYR:161>  (456) 
0

>  <hydroph_interaction:TYR:161>  (456) 
3

>  <hydroph_interaction:ASP:83>  (456) 
0

>  <hbond:TYR:130>  (456) 
0

>  <hydroph_interaction:ALA:132>  (456) 
1

>  <hbond:HIS:51>  (456) 
1

>  <hbond:ASP:129>  (456) 
0

>  <hbond:TYR:150>  (456) 
0

>  <hbond:GLY:151>  (456) 
0

>  <hbond:TYR:161>  (456) 
0

>  <hydroph_interaction:TYR:130>  (456) 
0

>  <hydroph_interaction:PRO:131>  (456) 
0

>  <hydroph_interaction:ASP:129>  (456) 
0

>  <saltbridge:ASP:75>  (456) 
0

>  <saltbridge:ASP:83>  (456) 
0

>  <hydroph_interaction:ASN:152>  (456) 
0

>  <halogenbond:TYR:150>  (456) 
0

>  <hbond:ASP:83>  (456) 
0

>  <hydroph_interaction:VAL:155>  (456) 
0

>  <pication:TYR:161>  (456) 
0

>  <hbond:PRO:131>  (456) 
0

>  <hbond:LEU:128>  (456) 
0

>  <saltbridge:ASP:129>  (456) 
0

>  <hbond:THR:134>  (456) 
0

>  <pication:HIS:51>  (456) 
0

>  <hbond:SER:81>  (456) 
0

>  <hbond:GLY:159>  (456) 
0

>  <hydroph_interaction:PRO:101>  (456) 
0

>  <hydroph_interaction:THR:134>  (456) 
0

>  <hbond:GLY:82>  (456) 
0

>  <hydroph_interaction:GLU:104>  (456) 
0

>  <hydroph_interaction:VAL:36>  (456) 
0

>  <hydroph_interaction:MET:49>  (456) 
0

>  <halogenbond:GLU:104>  (456) 
0

>  <hydroph_interaction:LYS:107>  (456) 
0

$$$$
PV-003852336284
     RDKit          3D

 36 37  0  0  0  0  0  0  0  0999 V2000
   -2.9038    6.0080  -15.2273 C   0  0  0  0  0  0  0  0  0  0  0  0
   -3.0255    5.1854  -16.5060 C   0  0  0  0  0  0  0  0  0  0  0  0
   -4.0048    5.8066  -17.4647 C   0  0  0  0  0  0  0  0  0  0  0  0
   -3.5817    6.6978  -18.2507 O   0  0  0  0  0  0  0  0  0  0  0  0
   -5.3950    5.4064  -17.5125 N   0  0  0  0  0  0  0  0  0  0  0  0
   -6.0745    5.0171  -16.2499 C   0  0  0  0  0  0  0  0  0  0  0  0
   -7.4861    4.4388  -16.4485 C   0  0  0  0  0  0  0  0  0  0  0  0
   -8.2114    5.2223  -17.4784 C   0  0  0  0  0  0  0  0  0  0  0  0
   -7.5859    5.7210  -18.5954 C   0  0  0  0  0  0  0  0  0  0  0  0
   -8.4672    6.3163  -19.5079 C   0  0  0  0  0  0  0  0  0  0  0  0
   -9.7934    6.2762  -19.0889 C   0  0  0  0  0  0  0  0  0  0  0  0
   -9.8654    5.4828  -17.6014 S   0  0  0  0  0  0  0  0  0  0  0  0
   -6.1134    5.5191  -18.8088 C   0  0  0  0  0  0  0  0  0  0  0  0
   -5.8787    4.2571  -19.6578 C   0  0  0  0  0  0  0  0  0  0  0  0
   -4.4732    4.1409  -20.0456 N   0  0  0  0  0  0  0  0  0  0  0  0
   -3.8892    4.8336  -21.1597 C   0  0  0  0  0  0  0  0  0  0  0  0
   -4.7276    5.5706  -22.1603 C   0  0  0  0  0  0  0  0  0  0  0  0
   -2.6399    4.7953  -21.3191 O   0  0  0  0  0  0  0  0  0  0  0  0
   -2.5836    7.0451  -15.4650 H   0  0  0  0  0  0  0  0  0  0  0  0
   -3.8713    6.0394  -14.6854 H   0  0  0  0  0  0  0  0  0  0  0  0
   -2.1441    5.5467  -14.5617 H   0  0  0  0  0  0  0  0  0  0  0  0
   -3.3154    4.1414  -16.2674 H   0  0  0  0  0  0  0  0  0  0  0  0
   -2.0271    5.1349  -16.9922 H   0  0  0  0  0  0  0  0  0  0  0  0
   -6.1470    5.9134  -15.5968 H   0  0  0  0  0  0  0  0  0  0  0  0
   -5.4831    4.2495  -15.7113 H   0  0  0  0  0  0  0  0  0  0  0  0
   -8.0427    4.4642  -15.4874 H   0  0  0  0  0  0  0  0  0  0  0  0
   -7.4138    3.3837  -16.7889 H   0  0  0  0  0  0  0  0  0  0  0  0
   -8.1544    6.7439  -20.4514 H   0  0  0  0  0  0  0  0  0  0  0  0
  -10.6386    6.6663  -19.6394 H   0  0  0  0  0  0  0  0  0  0  0  0
   -5.7515    6.4108  -19.3630 H   0  0  0  0  0  0  0  0  0  0  0  0
   -6.1640    3.3605  -19.0653 H   0  0  0  0  0  0  0  0  0  0  0  0
   -6.5227    4.2641  -20.5636 H   0  0  0  0  0  0  0  0  0  0  0  0
   -3.8537    3.5347  -19.4614 H   0  0  0  0  0  0  0  0  0  0  0  0
   -5.4109    4.8602  -22.6701 H   0  0  0  0  0  0  0  0  0  0  0  0
   -4.0833    6.0517  -22.9265 H   0  0  0  0  0  0  0  0  0  0  0  0
   -5.3219    6.3612  -21.6604 H   0  0  0  0  0  0  0  0  0  0  0  0
  1  2  1  0
  2  3  1  0
  3  4  2  0
  3  5  1  0
  5  6  1  0
  6  7  1  0
  7  8  1  0
  8  9  2  0
  9 10  1  0
 10 11  2  0
 11 12  1  0
  9 13  1  0
 13 14  1  0
 14 15  1  0
 15 16  1  0
 16 17  1  0
 16 18  2  0
 13  5  1  0
 12  8  1  0
  1 19  1  0
  1 20  1  0
  1 21  1  0
  2 22  1  0
  2 23  1  0
  6 24  1  0
  6 25  1  0
  7 26  1  0
  7 27  1  0
 10 28  1  0
 11 29  1  0
 13 30  1  0
 14 31  1  0
 14 32  1  0
 15 33  1  0
 17 34  1  0
 17 35  1  0
 17 36  1  0
A    1
 C1 
A    2
 C2 
A    3
 C3 
A    4
 O1 
A    5
 N1 
A    6
 C4 
A    7
 C5 
A    8
 C6 
A    9
 C7 
A   10
 C8 
A   11
 C9 
A   12
 S1 
A   13
 C10
A   14
 C11
A   15
 N2 
A   16
 C12
A   17
 C13
A   18
 O2 
A   19
 H1 
A   20
 H2 
A   21
 H3 
A   22
 H4 
A   23
 H5 
A   24
 H6 
A   25
 H7 
A   26
 H8 
A   27
 H9 
A   28
 H10
A   29
 H11
A   30
 H12
A   31
 H13
A   32
 H14
A   33
 H15
A   34
 H16
A   35
 H17
A   36
 H18
M  END
>  <ref_pdb>  (457) 
x0051_0B

>  <ref_mols>  (457) 
x0472_0B,x0904_0B

>  <original SMILES>  (457) 
[H]c1sc2c(c1[H])C([H])(C([H])([H])N([H])C(=O)C([H])([H])[H])N(C(=O)C([H])([H])C([H])([H])[H])C([H])([H])C2([H])[H]

>  <index>  (457) 
73

>  <∆∆G>  (457) 
-6.727995

>  <∆G_bound>  (457) 
-6.118317

>  <∆G_unbound>  (457) 
0.609678

>  <comRMSD>  (457) 
0.43059

>  <N_constrained_atoms>  (457) 
20.0

>  <N_unconstrained_atoms>  (457) 
0.0

>  <runtime>  (457) 
34.068666

>  <LE>  (457) 
0.3364

>  <percent_hybrid>  (457) 
50.0

>  <dist>  (457) 
8.0

>  <ecfp4>  (457) 
0.171053

>  <daylight>  (457) 
0.45098

>  <topodist>  (457) 
2.0

>  <mces>  (457) 
19.0

>  <tdn>  (457) 
1.0

>  <tup>  (457) 
0.0

>  <rdn>  (457) 
1.0

>  <rup>  (457) 
0.0

>  <ldn>  (457) 
0.0

>  <lup>  (457) 
0.0

>  <mut>  (457) 
5.0

>  <maj>  (457) 
5.0

>  <min>  (457) 
0.0

>  <hyb>  (457) 
1.0

>  <sub>  (457) 
1.0

>  <query_index>  (457) 
174.0

>  <max_hit_Tanimoto>  (457) 
0.519318

>  <largest_ring>  (457) 
6

>  <N_interactions_kept>  (457) 
3.5

>  <N_interactions_lost>  (457) 
0.5

>  <interaction_uniqueness_metric>  (457) 
0.108144

>  <ad_hoc_penalty>  (457) 
-18.134424

>  <N_rotatable_bonds>  (457) 
5

>  <N_HA>  (457) 
18

>  <cluster>  (457) 
6151

>  <N_interactions>  (457) 
6

>  <Enamine>  (457) 
1

>  <Mcule>  (457) 
0

>  <N_PAINS>  (457) 
0

>  <UFF_Gibbs>  (457) 
374.635029

>  <strain_per_HA>  (457) 
18.731751

>  <saltbridge:HIS:51>  (457) 
0

>  <pistack:HIS:51>  (457) 
0

>  <hydroph_interaction:HIS:51>  (457) 
0

>  <hbond:ALA:132>  (457) 
0

>  <hbond:SER:135>  (457) 
0

>  <hydroph_interaction:TYR:150>  (457) 
0

>  <pistack:TYR:161>  (457) 
0

>  <hydroph_interaction:TYR:161>  (457) 
3

>  <hydroph_interaction:ASP:83>  (457) 
0

>  <hbond:TYR:130>  (457) 
0

>  <hydroph_interaction:ALA:132>  (457) 
1

>  <hbond:HIS:51>  (457) 
0

>  <hbond:ASP:129>  (457) 
0

>  <hbond:TYR:150>  (457) 
0

>  <hbond:GLY:151>  (457) 
0

>  <hbond:TYR:161>  (457) 
0

>  <hydroph_interaction:TYR:130>  (457) 
0

>  <hydroph_interaction:PRO:131>  (457) 
0

>  <hydroph_interaction:ASP:129>  (457) 
1

>  <saltbridge:ASP:75>  (457) 
0

>  <saltbridge:ASP:83>  (457) 
0

>  <hydroph_interaction:ASN:152>  (457) 
0

>  <halogenbond:TYR:150>  (457) 
0

>  <hbond:ASP:83>  (457) 
0

>  <hydroph_interaction:VAL:155>  (457) 
1

>  <pication:TYR:161>  (457) 
0

>  <hbond:PRO:131>  (457) 
0

>  <hbond:LEU:128>  (457) 
0

>  <saltbridge:ASP:129>  (457) 
0

>  <hbond:THR:134>  (457) 
0

>  <pication:HIS:51>  (457) 
0

>  <hbond:SER:81>  (457) 
0

>  <hbond:GLY:159>  (457) 
0

>  <hydroph_interaction:PRO:101>  (457) 
0

>  <hydroph_interaction:THR:134>  (457) 
0

>  <hbond:GLY:82>  (457) 
0

>  <hydroph_interaction:GLU:104>  (457) 
0

>  <hydroph_interaction:VAL:36>  (457) 
0

>  <hydroph_interaction:MET:49>  (457) 
0

>  <halogenbond:GLU:104>  (457) 
0

>  <hydroph_interaction:LYS:107>  (457) 
0

$$$$
CSSB00135354094
     RDKit          3D

 26 27  0  0  0  0  0  0  0  0999 V2000
   -8.8030    5.7865  -12.8460 N   0  0  0  0  0  0  0  0  0  0  0  0
   -9.0176    5.2798  -14.2021 C   0  0  0  0  0  0  0  0  0  0  0  0
   -8.0872    5.9510  -15.2450 C   0  0  1  0  0  0  0  0  0  0  0  0
   -6.6015    5.7086  -14.8965 C   0  0  0  0  0  0  0  0  0  0  0  0
   -5.6898    6.1266  -16.0485 C   0  0  0  0  0  0  0  0  0  0  0  0
   -5.9644    5.2608  -17.2766 C   0  0  0  0  0  0  0  0  0  0  0  0
   -7.4317    5.2205  -17.6190 C   0  0  0  0  0  0  0  0  0  0  0  0
   -7.8220    4.8381  -18.9104 C   0  0  0  0  0  0  0  0  0  0  0  0
   -9.1737    4.7646  -19.2424 C   0  0  0  0  0  0  0  0  0  0  0  0
  -10.1303    5.0693  -18.2766 C   0  0  0  0  0  0  0  0  0  0  0  0
   -9.7429    5.4223  -17.0235 N   0  0  0  0  0  0  0  0  0  0  0  0
   -8.4321    5.4817  -16.6516 C   0  0  0  0  0  0  0  0  0  0  0  0
   -8.7590    6.8312  -12.8664 H   0  0  0  0  0  0  0  0  0  0  0  0
   -7.8925    5.4254  -12.4812 H   0  0  0  0  0  0  0  0  0  0  0  0
   -8.8679    4.1774  -14.2123 H   0  0  0  0  0  0  0  0  0  0  0  0
  -10.0789    5.4724  -14.4687 H   0  0  0  0  0  0  0  0  0  0  0  0
   -8.2700    7.0482  -15.2202 H   0  0  0  0  0  0  0  0  0  0  0  0
   -6.3246    6.3052  -14.0008 H   0  0  0  0  0  0  0  0  0  0  0  0
   -6.4289    4.6342  -14.6627 H   0  0  0  0  0  0  0  0  0  0  0  0
   -4.6278    6.0048  -15.7440 H   0  0  0  0  0  0  0  0  0  0  0  0
   -5.8585    7.1983  -16.2949 H   0  0  0  0  0  0  0  0  0  0  0  0
   -5.3843    5.6666  -18.1340 H   0  0  0  0  0  0  0  0  0  0  0  0
   -5.6144    4.2233  -17.0843 H   0  0  0  0  0  0  0  0  0  0  0  0
   -7.0780    4.6009  -19.6610 H   0  0  0  0  0  0  0  0  0  0  0  0
   -9.4770    4.4773  -20.2408 H   0  0  0  0  0  0  0  0  0  0  0  0
  -11.1829    5.0271  -18.5225 H   0  0  0  0  0  0  0  0  0  0  0  0
  1  2  1  0
  2  3  1  0
  3  4  1  0
  4  5  1  0
  5  6  1  0
  6  7  1  0
  7  8  2  0
  8  9  1  0
  9 10  2  0
 10 11  1  0
 11 12  2  0
 12  3  1  0
 12  7  1  0
  1 13  1  0
  1 14  1  0
  2 15  1  0
  2 16  1  0
  3 17  1  6
  4 18  1  0
  4 19  1  0
  5 20  1  0
  5 21  1  0
  6 22  1  0
  6 23  1  0
  8 24  1  0
  9 25  1  0
 10 26  1  0
A    1
 N1 
A    2
 C1 
A    3
 C2 
A    4
 C3 
A    5
 C4 
A    6
 C5 
A    7
 C6 
A    8
 C7 
A    9
 C8 
A   10
 C9 
A   11
 N2 
A   12
 C10
A   13
 H1 
A   14
 H2 
A   15
 H3 
A   16
 H4 
A   17
 H5 
A   18
 H6 
A   19
 H7 
A   20
 H8 
A   21
 H9 
A   22
 H10
A   23
 H11
A   24
 H12
A   25
 H13
A   26
 H14
M  END
>  <ref_pdb>  (458) 
x0051_0B

>  <ref_mols>  (458) 
x0455_0B,x0951_0B

>  <original SMILES>  (458) 
[H]c1nc2c(c([H])c1[H])C([H])([H])C([H])([H])C([H])([H])[C@]2([H])C([H])([H])N([H])[H]

>  <index>  (458) 
1006

>  <∆∆G>  (458) 
-5.172324

>  <∆G_bound>  (458) 
-5.046019

>  <∆G_unbound>  (458) 
0.126305

>  <comRMSD>  (458) 
0.703971

>  <N_constrained_atoms>  (458) 
14.0

>  <N_unconstrained_atoms>  (458) 
0.0

>  <runtime>  (458) 
19.246094

>  <LE>  (458) 
0.369452

>  <percent_hybrid>  (458) 
34.0

>  <dist>  (458) 
2.0

>  <ecfp4>  (458) 
0.3125

>  <daylight>  (458) 
0.384146

>  <topodist>  (458) 
1.0

>  <mces>  (458) 
13.0

>  <tdn>  (458) 
1.0

>  <tup>  (458) 
0.0

>  <rdn>  (458) 
0.0

>  <rup>  (458) 
0.0

>  <ldn>  (458) 
0.0

>  <lup>  (458) 
0.0

>  <mut>  (458) 
1.0

>  <maj>  (458) 
1.0

>  <min>  (458) 
0.0

>  <hyb>  (458) 
0.0

>  <sub>  (458) 
1.0

>  <query_index>  (458) 
288.0

>  <max_hit_Tanimoto>  (458) 
0.289813

>  <largest_ring>  (458) 
6

>  <N_interactions_kept>  (458) 
1.0

>  <N_interactions_lost>  (458) 
1.5

>  <interaction_uniqueness_metric>  (458) 
0.102525

>  <ad_hoc_penalty>  (458) 
-18.112502

>  <N_rotatable_bonds>  (458) 
2

>  <N_HA>  (458) 
12

>  <cluster>  (458) 
5295

>  <N_interactions>  (458) 
4

>  <Enamine>  (458) 
1

>  <Mcule>  (458) 
0

>  <N_PAINS>  (458) 
0

>  <UFF_Gibbs>  (458) 
21.626932

>  <strain_per_HA>  (458) 
1.544781

>  <saltbridge:HIS:51>  (458) 
0

>  <pistack:HIS:51>  (458) 
0

>  <hydroph_interaction:HIS:51>  (458) 
0

>  <hbond:ALA:132>  (458) 
0

>  <hbond:SER:135>  (458) 
0

>  <hydroph_interaction:TYR:150>  (458) 
1

>  <pistack:TYR:161>  (458) 
0

>  <hydroph_interaction:TYR:161>  (458) 
2

>  <hydroph_interaction:ASP:83>  (458) 
0

>  <hbond:TYR:130>  (458) 
0

>  <hydroph_interaction:ALA:132>  (458) 
0

>  <hbond:HIS:51>  (458) 
1

>  <hbond:ASP:129>  (458) 
0

>  <hbond:TYR:150>  (458) 
0

>  <hbond:GLY:151>  (458) 
0

>  <hbond:TYR:161>  (458) 
0

>  <hydroph_interaction:TYR:130>  (458) 
0

>  <hydroph_interaction:PRO:131>  (458) 
0

>  <hydroph_interaction:ASP:129>  (458) 
0

>  <saltbridge:ASP:75>  (458) 
0

>  <saltbridge:ASP:83>  (458) 
0

>  <hydroph_interaction:ASN:152>  (458) 
0

>  <halogenbond:TYR:150>  (458) 
0

>  <hbond:ASP:83>  (458) 
0

>  <hydroph_interaction:VAL:155>  (458) 
0

>  <pication:TYR:161>  (458) 
0

>  <hbond:PRO:131>  (458) 
0

>  <hbond:LEU:128>  (458) 
0

>  <saltbridge:ASP:129>  (458) 
0

>  <hbond:THR:134>  (458) 
0

>  <pication:HIS:51>  (458) 
0

>  <hbond:SER:81>  (458) 
0

>  <hbond:GLY:159>  (458) 
0

>  <hydroph_interaction:PRO:101>  (458) 
0

>  <hydroph_interaction:THR:134>  (458) 
0

>  <hbond:GLY:82>  (458) 
0

>  <hydroph_interaction:GLU:104>  (458) 
0

>  <hydroph_interaction:VAL:36>  (458) 
0

>  <hydroph_interaction:MET:49>  (458) 
0

>  <halogenbond:GLU:104>  (458) 
0

>  <hydroph_interaction:LYS:107>  (458) 
0

$$$$
Z2368492972
     RDKit          3D

 36 38  0  0  0  0  0  0  0  0999 V2000
   -7.4466    4.8192  -15.3168 C   0  0  0  0  0  0  0  0  0  0  0  0
   -7.8967    4.8749  -16.7546 C   0  0  0  0  0  0  0  0  0  0  0  0
   -7.1623    5.5193  -17.8034 C   0  0  0  0  0  0  0  0  0  0  0  0
   -5.8972    6.1646  -17.6558 C   0  0  0  0  0  0  0  0  0  0  0  0
   -5.1839    6.2229  -16.4107 N   0  0  0  0  0  0  0  0  0  0  0  0
   -5.2515    7.5045  -15.6915 C   0  0  0  0  0  0  0  0  0  0  0  0
   -4.3119    7.5173  -14.4769 C   0  0  0  0  0  0  0  0  0  0  0  0
   -4.2791    6.2014  -13.8316 N   0  0  0  0  0  0  0  0  0  0  0  0
   -3.7054    5.1632  -14.7084 C   0  0  0  0  0  0  0  0  0  0  0  0
   -3.9702    5.4015  -16.2200 C   0  0  1  0  0  0  0  0  0  0  0  0
   -4.0190    4.0625  -16.9795 C   0  0  0  0  0  0  0  0  0  0  0  0
   -5.3073    6.7418  -18.7369 N   0  0  0  0  0  0  0  0  0  0  0  0
   -5.8790    6.7278  -19.9618 C   0  0  0  0  0  0  0  0  0  0  0  0
   -7.0730    6.1219  -20.1421 N   0  0  0  0  0  0  0  0  0  0  0  0
   -7.7233    5.5235  -19.1126 C   0  0  0  0  0  0  0  0  0  0  0  0
   -8.9528    4.9138  -19.3676 C   0  0  0  0  0  0  0  0  0  0  0  0
   -9.6540    4.2925  -18.3434 C   0  0  0  0  0  0  0  0  0  0  0  0
   -9.1359    4.2750  -17.0528 C   0  0  0  0  0  0  0  0  0  0  0  0
   -6.4532    4.3465  -15.2332 H   0  0  0  0  0  0  0  0  0  0  0  0
   -8.1304    4.2052  -14.6929 H   0  0  0  0  0  0  0  0  0  0  0  0
   -7.4456    5.8338  -14.8783 H   0  0  0  0  0  0  0  0  0  0  0  0
   -4.9677    8.3366  -16.3727 H   0  0  0  0  0  0  0  0  0  0  0  0
   -6.2913    7.6919  -15.3539 H   0  0  0  0  0  0  0  0  0  0  0  0
   -4.6601    8.2786  -13.7461 H   0  0  0  0  0  0  0  0  0  0  0  0
   -3.2843    7.8051  -14.7924 H   0  0  0  0  0  0  0  0  0  0  0  0
   -5.2571    5.9307  -13.5735 H   0  0  0  0  0  0  0  0  0  0  0  0
   -2.6079    5.1205  -14.5380 H   0  0  0  0  0  0  0  0  0  0  0  0
   -4.1090    4.1742  -14.3950 H   0  0  0  0  0  0  0  0  0  0  0  0
   -3.1073    5.9730  -16.6308 H   0  0  0  0  0  0  0  0  0  0  0  0
   -4.9118    3.4698  -16.6945 H   0  0  0  0  0  0  0  0  0  0  0  0
   -4.0399    4.2381  -18.0756 H   0  0  0  0  0  0  0  0  0  0  0  0
   -3.1097    3.4656  -16.7534 H   0  0  0  0  0  0  0  0  0  0  0  0
   -5.3792    7.1980  -20.7973 H   0  0  0  0  0  0  0  0  0  0  0  0
   -9.3693    4.9223  -20.3677 H   0  0  0  0  0  0  0  0  0  0  0  0
  -10.6079    3.8239  -18.5493 H   0  0  0  0  0  0  0  0  0  0  0  0
   -9.7152    3.7874  -16.2780 H   0  0  0  0  0  0  0  0  0  0  0  0
  1  2  1  0
  2  3  2  0
  3  4  1  0
  4  5  1  0
  5  6  1  0
  6  7  1  0
  7  8  1  0
  8  9  1  0
  9 10  1  0
 10 11  1  0
  4 12  2  0
 12 13  1  0
 13 14  2  0
 14 15  1  0
 15 16  2  0
 16 17  1  0
 17 18  2  0
 18  2  1  0
 15  3  1  0
 10  5  1  0
  1 19  1  0
  1 20  1  0
  1 21  1  0
  6 22  1  0
  6 23  1  0
  7 24  1  0
  7 25  1  0
  8 26  1  0
  9 27  1  0
  9 28  1  0
 10 29  1  6
 11 30  1  0
 11 31  1  0
 11 32  1  0
 13 33  1  0
 16 34  1  0
 17 35  1  0
 18 36  1  0
A    1
 C1 
A    2
 C2 
A    3
 C3 
A    4
 C4 
A    5
 N1 
A    6
 C5 
A    7
 C6 
A    8
 N2 
A    9
 C7 
A   10
 C8 
A   11
 C9 
A   12
 N3 
A   13
 C10
A   14
 N4 
A   15
 C11
A   16
 C12
A   17
 C13
A   18
 C14
A   19
 H1 
A   20
 H2 
A   21
 H3 
A   22
 H4 
A   23
 H5 
A   24
 H6 
A   25
 H7 
A   26
 H8 
A   27
 H9 
A   28
 H10
A   29
 H11
A   30
 H12
A   31
 H13
A   32
 H14
A   33
 H15
A   34
 H16
A   35
 H17
A   36
 H18
M  END
>  <ref_pdb>  (459) 
x0051_0B

>  <ref_mols>  (459) 
x0429_0B,x0693_0B

>  <original SMILES>  (459) 
[H]c1nc(N2C([H])([H])C([H])([H])N([H])C([H])([H])[C@@]2([H])C([H])([H])[H])c2c(C([H])([H])[H])c([H])c([H])c([H])c2n1

>  <index>  (459) 
364

>  <∆∆G>  (459) 
-6.870771

>  <∆G_bound>  (459) 
-6.815344

>  <∆G_unbound>  (459) 
0.055426

>  <comRMSD>  (459) 
0.564223

>  <N_constrained_atoms>  (459) 
18.0

>  <N_unconstrained_atoms>  (459) 
1.0

>  <runtime>  (459) 
23.231829

>  <LE>  (459) 
0.36162

>  <percent_hybrid>  (459) 
20.0

>  <dist>  (459) 
2.0

>  <ecfp4>  (459) 
0.470588

>  <daylight>  (459) 
0.601695

>  <topodist>  (459) 
1.0

>  <mces>  (459) 
19.0

>  <tdn>  (459) 
0.0

>  <tup>  (459) 
1.0

>  <rdn>  (459) 
0.0

>  <rup>  (459) 
0.0

>  <ldn>  (459) 
0.0

>  <lup>  (459) 
0.0

>  <mut>  (459) 
1.0

>  <maj>  (459) 
1.0

>  <min>  (459) 
0.0

>  <hyb>  (459) 
0.0

>  <sub>  (459) 
1.0

>  <query_index>  (459) 
179.0

>  <max_hit_Tanimoto>  (459) 
0.4

>  <largest_ring>  (459) 
6

>  <N_interactions_kept>  (459) 
2.5

>  <N_interactions_lost>  (459) 
2.0

>  <interaction_uniqueness_metric>  (459) 
0.080468

>  <ad_hoc_penalty>  (459) 
-18.106118

>  <N_rotatable_bonds>  (459) 
3

>  <N_HA>  (459) 
18

>  <cluster>  (459) 
5885

>  <N_interactions>  (459) 
6

>  <Enamine>  (459) 
1

>  <Mcule>  (459) 
0

>  <N_PAINS>  (459) 
0

>  <UFF_Gibbs>  (459) 
163.695594

>  <strain_per_HA>  (459) 
8.615558

>  <saltbridge:HIS:51>  (459) 
0

>  <pistack:HIS:51>  (459) 
0

>  <hydroph_interaction:HIS:51>  (459) 
0

>  <hbond:ALA:132>  (459) 
0

>  <hbond:SER:135>  (459) 
0

>  <hydroph_interaction:TYR:150>  (459) 
1

>  <pistack:TYR:161>  (459) 
2

>  <hydroph_interaction:TYR:161>  (459) 
2

>  <hydroph_interaction:ASP:83>  (459) 
0

>  <hbond:TYR:130>  (459) 
0

>  <hydroph_interaction:ALA:132>  (459) 
0

>  <hbond:HIS:51>  (459) 
0

>  <hbond:ASP:129>  (459) 
0

>  <hbond:TYR:150>  (459) 
0

>  <hbond:GLY:151>  (459) 
0

>  <hbond:TYR:161>  (459) 
0

>  <hydroph_interaction:TYR:130>  (459) 
0

>  <hydroph_interaction:PRO:131>  (459) 
0

>  <hydroph_interaction:ASP:129>  (459) 
0

>  <saltbridge:ASP:75>  (459) 
0

>  <saltbridge:ASP:83>  (459) 
0

>  <hydroph_interaction:ASN:152>  (459) 
0

>  <halogenbond:TYR:150>  (459) 
0

>  <hbond:ASP:83>  (459) 
0

>  <hydroph_interaction:VAL:155>  (459) 
1

>  <pication:TYR:161>  (459) 
0

>  <hbond:PRO:131>  (459) 
0

>  <hbond:LEU:128>  (459) 
0

>  <saltbridge:ASP:129>  (459) 
0

>  <hbond:THR:134>  (459) 
0

>  <pication:HIS:51>  (459) 
0

>  <hbond:SER:81>  (459) 
0

>  <hbond:GLY:159>  (459) 
0

>  <hydroph_interaction:PRO:101>  (459) 
0

>  <hydroph_interaction:THR:134>  (459) 
0

>  <hbond:GLY:82>  (459) 
0

>  <hydroph_interaction:GLU:104>  (459) 
0

>  <hydroph_interaction:VAL:36>  (459) 
0

>  <hydroph_interaction:MET:49>  (459) 
0

>  <halogenbond:GLU:104>  (459) 
0

>  <hydroph_interaction:LYS:107>  (459) 
0

$$$$
Z2368543926
     RDKit          3D

 36 38  0  0  0  0  0  0  0  0999 V2000
   -7.4284    4.7879  -15.2022 C   0  0  0  0  0  0  0  0  0  0  0  0
   -8.0253    4.9147  -16.5794 C   0  0  0  0  0  0  0  0  0  0  0  0
   -7.2703    5.2741  -17.7402 C   0  0  0  0  0  0  0  0  0  0  0  0
   -5.9043    5.6814  -17.7393 C   0  0  0  0  0  0  0  0  0  0  0  0
   -5.1679    5.9378  -16.5365 N   0  0  0  0  0  0  0  0  0  0  0  0
   -5.1019    7.3300  -16.0737 C   0  0  0  0  0  0  0  0  0  0  0  0
   -4.0313    7.5018  -14.9893 C   0  0  0  0  0  0  0  0  0  0  0  0
   -4.0732    6.3848  -14.0387 N   0  0  0  0  0  0  0  0  0  0  0  0
   -3.7734    5.0776  -14.6636 C   0  0  2  0  0  0  0  0  0  0  0  0
   -2.3161    4.7041  -14.3861 C   0  0  0  0  0  0  0  0  0  0  0  0
   -4.0772    5.0240  -16.1845 C   0  0  0  0  0  0  0  0  0  0  0  0
   -5.2771    5.9288  -18.9203 N   0  0  0  0  0  0  0  0  0  0  0  0
   -5.9137    5.8181  -20.1087 C   0  0  0  0  0  0  0  0  0  0  0  0
   -7.2221    5.4798  -20.1452 N   0  0  0  0  0  0  0  0  0  0  0  0
   -7.9135    5.2150  -19.0080 C   0  0  0  0  0  0  0  0  0  0  0  0
   -9.2656    4.8814  -19.1086 C   0  0  0  0  0  0  0  0  0  0  0  0
  -10.0032    4.5905  -17.9678 C   0  0  0  0  0  0  0  0  0  0  0  0
   -9.3907    4.6002  -16.7181 C   0  0  0  0  0  0  0  0  0  0  0  0
   -8.1449    4.3400  -14.4811 H   0  0  0  0  0  0  0  0  0  0  0  0
   -6.5532    4.1110  -15.2333 H   0  0  0  0  0  0  0  0  0  0  0  0
   -7.1532    5.7828  -14.8059 H   0  0  0  0  0  0  0  0  0  0  0  0
   -4.8632    8.0044  -16.9251 H   0  0  0  0  0  0  0  0  0  0  0  0
   -6.0896    7.6327  -15.6672 H   0  0  0  0  0  0  0  0  0  0  0  0
   -4.2042    8.4558  -14.4463 H   0  0  0  0  0  0  0  0  0  0  0  0
   -3.0230    7.5617  -15.4552 H   0  0  0  0  0  0  0  0  0  0  0  0
   -5.0290    6.3503  -13.6116 H   0  0  0  0  0  0  0  0  0  0  0  0
   -4.3994    4.3016  -14.1672 H   0  0  0  0  0  0  0  0  0  0  0  0
   -2.1363    4.6728  -13.2904 H   0  0  0  0  0  0  0  0  0  0  0  0
   -1.6289    5.4508  -14.8381 H   0  0  0  0  0  0  0  0  0  0  0  0
   -2.0900    3.7015  -14.8083 H   0  0  0  0  0  0  0  0  0  0  0  0
   -3.1774    5.3119  -16.7726 H   0  0  0  0  0  0  0  0  0  0  0  0
   -4.3416    3.9812  -16.4688 H   0  0  0  0  0  0  0  0  0  0  0  0
   -5.3821    6.0221  -21.0278 H   0  0  0  0  0  0  0  0  0  0  0  0
   -9.7493    4.8494  -20.0774 H   0  0  0  0  0  0  0  0  0  0  0  0
  -11.0522    4.3372  -18.0535 H   0  0  0  0  0  0  0  0  0  0  0  0
   -9.9883    4.3399  -15.8528 H   0  0  0  0  0  0  0  0  0  0  0  0
  1  2  1  0
  2  3  2  0
  3  4  1  0
  4  5  1  0
  5  6  1  0
  6  7  1  0
  7  8  1  0
  8  9  1  0
  9 10  1  0
  9 11  1  0
  4 12  2  0
 12 13  1  0
 13 14  2  0
 14 15  1  0
 15 16  2  0
 16 17  1  0
 17 18  2  0
 18  2  1  0
 15  3  1  0
 11  5  1  0
  1 19  1  0
  1 20  1  0
  1 21  1  0
  6 22  1  0
  6 23  1  0
  7 24  1  0
  7 25  1  0
  8 26  1  0
  9 27  1  1
 10 28  1  0
 10 29  1  0
 10 30  1  0
 11 31  1  0
 11 32  1  0
 13 33  1  0
 16 34  1  0
 17 35  1  0
 18 36  1  0
A    1
 C1 
A    2
 C2 
A    3
 C3 
A    4
 C4 
A    5
 N1 
A    6
 C5 
A    7
 C6 
A    8
 N2 
A    9
 C7 
A   10
 C8 
A   11
 C9 
A   12
 N3 
A   13
 C10
A   14
 N4 
A   15
 C11
A   16
 C12
A   17
 C13
A   18
 C14
A   19
 H1 
A   20
 H2 
A   21
 H3 
A   22
 H4 
A   23
 H5 
A   24
 H6 
A   25
 H7 
A   26
 H8 
A   27
 H9 
A   28
 H10
A   29
 H11
A   30
 H12
A   31
 H13
A   32
 H14
A   33
 H15
A   34
 H16
A   35
 H17
A   36
 H18
M  END
>  <ref_pdb>  (460) 
x0051_0B

>  <ref_mols>  (460) 
x0429_0B,x0693_0B

>  <original SMILES>  (460) 
[H]c1nc(N2C([H])([H])C([H])([H])N([H])[C@]([H])(C([H])([H])[H])C2([H])[H])c2c(C([H])([H])[H])c([H])c([H])c([H])c2n1

>  <index>  (460) 
630

>  <∆∆G>  (460) 
-7.291916

>  <∆G_bound>  (460) 
-6.312865

>  <∆G_unbound>  (460) 
0.97905

>  <comRMSD>  (460) 
0.542527

>  <N_constrained_atoms>  (460) 
18.0

>  <N_unconstrained_atoms>  (460) 
1.0

>  <runtime>  (460) 
22.957535

>  <LE>  (460) 
0.383785

>  <percent_hybrid>  (460) 
20.0

>  <dist>  (460) 
2.0

>  <ecfp4>  (460) 
0.470588

>  <daylight>  (460) 
0.572581

>  <topodist>  (460) 
1.0

>  <mces>  (460) 
19.0

>  <tdn>  (460) 
0.0

>  <tup>  (460) 
1.0

>  <rdn>  (460) 
0.0

>  <rup>  (460) 
0.0

>  <ldn>  (460) 
0.0

>  <lup>  (460) 
0.0

>  <mut>  (460) 
1.0

>  <maj>  (460) 
1.0

>  <min>  (460) 
0.0

>  <hyb>  (460) 
0.0

>  <sub>  (460) 
1.0

>  <query_index>  (460) 
179.0

>  <max_hit_Tanimoto>  (460) 
0.390661

>  <largest_ring>  (460) 
6

>  <N_interactions_kept>  (460) 
3.0

>  <N_interactions_lost>  (460) 
1.5

>  <interaction_uniqueness_metric>  (460) 
0.067187

>  <ad_hoc_penalty>  (460) 
-18.094208

>  <N_rotatable_bonds>  (460) 
3

>  <N_HA>  (460) 
18

>  <cluster>  (460) 
5643

>  <N_interactions>  (460) 
4

>  <Enamine>  (460) 
1

>  <Mcule>  (460) 
0

>  <N_PAINS>  (460) 
0

>  <UFF_Gibbs>  (460) 
87.702939

>  <strain_per_HA>  (460) 
4.615944

>  <saltbridge:HIS:51>  (460) 
0

>  <pistack:HIS:51>  (460) 
0

>  <hydroph_interaction:HIS:51>  (460) 
0

>  <hbond:ALA:132>  (460) 
0

>  <hbond:SER:135>  (460) 
0

>  <hydroph_interaction:TYR:150>  (460) 
1

>  <pistack:TYR:161>  (460) 
2

>  <hydroph_interaction:TYR:161>  (460) 
0

>  <hydroph_interaction:ASP:83>  (460) 
0

>  <hbond:TYR:130>  (460) 
0

>  <hydroph_interaction:ALA:132>  (460) 
0

>  <hbond:HIS:51>  (460) 
0

>  <hbond:ASP:129>  (460) 
0

>  <hbond:TYR:150>  (460) 
0

>  <hbond:GLY:151>  (460) 
0

>  <hbond:TYR:161>  (460) 
0

>  <hydroph_interaction:TYR:130>  (460) 
0

>  <hydroph_interaction:PRO:131>  (460) 
0

>  <hydroph_interaction:ASP:129>  (460) 
0

>  <saltbridge:ASP:75>  (460) 
0

>  <saltbridge:ASP:83>  (460) 
0

>  <hydroph_interaction:ASN:152>  (460) 
0

>  <halogenbond:TYR:150>  (460) 
0

>  <hbond:ASP:83>  (460) 
0

>  <hydroph_interaction:VAL:155>  (460) 
1

>  <pication:TYR:161>  (460) 
0

>  <hbond:PRO:131>  (460) 
0

>  <hbond:LEU:128>  (460) 
0

>  <saltbridge:ASP:129>  (460) 
0

>  <hbond:THR:134>  (460) 
0

>  <pication:HIS:51>  (460) 
0

>  <hbond:SER:81>  (460) 
0

>  <hbond:GLY:159>  (460) 
0

>  <hydroph_interaction:PRO:101>  (460) 
0

>  <hydroph_interaction:THR:134>  (460) 
0

>  <hbond:GLY:82>  (460) 
0

>  <hydroph_interaction:GLU:104>  (460) 
0

>  <hydroph_interaction:VAL:36>  (460) 
0

>  <hydroph_interaction:MET:49>  (460) 
0

>  <halogenbond:GLU:104>  (460) 
0

>  <hydroph_interaction:LYS:107>  (460) 
0

$$$$
Z5316880345
     RDKit          3D

 59 62  0  0  0  0  0  0  0  0999 V2000
   -8.0207    9.4733  -12.9481 O   0  0  0  0  0  0  0  0  0  0  0  0
   -7.5818    8.1411  -13.4953 S   0  0  0  0  0  6  0  0  0  0  0  0
   -6.1125    8.2163  -13.8069 O   0  0  0  0  0  0  0  0  0  0  0  0
   -8.4819    7.8175  -14.9488 N   0  0  0  0  0  0  0  0  0  0  0  0
   -8.1244    6.5025  -15.4881 C   0  0  0  0  0  0  0  0  0  0  0  0
   -8.5918    6.3771  -16.9518 C   0  0  2  0  0  0  0  0  0  0  0  0
  -10.1209    6.2570  -17.0675 C   0  0  0  0  0  0  0  0  0  0  0  0
  -10.4051    4.8549  -17.5676 C   0  0  0  0  0  0  0  0  0  0  0  0
   -9.1813    4.4724  -18.3659 C   0  0  0  0  0  0  0  0  0  0  0  0
   -7.9964    5.1203  -17.6392 C   0  0  1  0  0  0  0  0  0  0  0  0
   -6.9128    5.4723  -18.5942 N   0  0  0  0  0  0  0  0  0  0  0  0
   -6.4020    4.3043  -19.3373 C   0  0  0  0  0  0  0  0  0  0  0  0
   -4.9250    4.5572  -19.6379 C   0  0  0  0  0  0  0  0  0  0  0  0
   -4.5804    5.8376  -18.8960 C   0  0  0  0  0  0  0  0  0  0  0  0
   -5.7311    6.0336  -17.9327 C   0  0  0  0  0  0  0  0  0  0  0  0
   -7.8656    6.8852  -12.2878 C   0  0  0  0  0  0  0  0  0  0  0  0
   -8.7717    7.1010  -11.2397 C   0  0  0  0  0  0  0  0  0  0  0  0
   -8.9997    6.1010  -10.2933 C   0  0  0  0  0  0  0  0  0  0  0  0
   -8.3359    4.8671  -10.3895 C   0  0  0  0  0  0  0  0  0  0  0  0
   -8.5791    3.8390   -9.4161 N   0  0  0  0  0  0  0  0  0  0  0  0
   -8.8019    2.4578   -9.8519 C   0  0  0  0  0  0  0  0  0  0  0  0
   -9.7264    1.7421   -8.8637 C   0  0  0  0  0  0  0  0  0  0  0  0
   -9.2320    1.8685   -7.4864 N   0  0  0  0  0  0  0  0  0  0  0  0
   -9.1668    3.2815   -7.0943 C   0  0  0  0  0  0  0  0  0  0  0  0
   -8.2291    4.0752   -8.0124 C   0  0  0  0  0  0  0  0  0  0  0  0
   -7.4233    4.6593  -11.4297 C   0  0  0  0  0  0  0  0  0  0  0  0
   -7.1801    5.6665  -12.3673 C   0  0  0  0  0  0  0  0  0  0  0  0
   -9.4881    7.8014  -14.6735 H   0  0  0  0  0  0  0  0  0  0  0  0
   -7.0204    6.3804  -15.4589 H   0  0  0  0  0  0  0  0  0  0  0  0
   -8.5784    5.6916  -14.8750 H   0  0  0  0  0  0  0  0  0  0  0  0
   -8.2722    7.2916  -17.4999 H   0  0  0  0  0  0  0  0  0  0  0  0
  -10.6594    6.4351  -16.1155 H   0  0  0  0  0  0  0  0  0  0  0  0
  -10.4899    6.9880  -17.8199 H   0  0  0  0  0  0  0  0  0  0  0  0
  -11.3225    4.8274  -18.1955 H   0  0  0  0  0  0  0  0  0  0  0  0
  -10.5215    4.1613  -16.7033 H   0  0  0  0  0  0  0  0  0  0  0  0
   -9.0687    3.3717  -18.4303 H   0  0  0  0  0  0  0  0  0  0  0  0
   -9.2824    4.8892  -19.3930 H   0  0  0  0  0  0  0  0  0  0  0  0
   -7.6264    4.3957  -16.8734 H   0  0  0  0  0  0  0  0  0  0  0  0
   -6.9682    4.1855  -20.2852 H   0  0  0  0  0  0  0  0  0  0  0  0
   -6.4994    3.3650  -18.7432 H   0  0  0  0  0  0  0  0  0  0  0  0
   -4.7487    4.6812  -20.7320 H   0  0  0  0  0  0  0  0  0  0  0  0
   -4.3065    3.7090  -19.2579 H   0  0  0  0  0  0  0  0  0  0  0  0
   -4.5385    6.6942  -19.6094 H   0  0  0  0  0  0  0  0  0  0  0  0
   -3.6083    5.7633  -18.3607 H   0  0  0  0  0  0  0  0  0  0  0  0
   -5.5001    5.4835  -16.9938 H   0  0  0  0  0  0  0  0  0  0  0  0
   -5.8719    7.1135  -17.7151 H   0  0  0  0  0  0  0  0  0  0  0  0
   -9.2994    8.0448  -11.1522 H   0  0  0  0  0  0  0  0  0  0  0  0
   -9.7037    6.2857   -9.4893 H   0  0  0  0  0  0  0  0  0  0  0  0
   -9.2727    2.4394  -10.8606 H   0  0  0  0  0  0  0  0  0  0  0  0
   -7.8267    1.9240   -9.9037 H   0  0  0  0  0  0  0  0  0  0  0  0
  -10.7495    2.1662   -8.9397 H   0  0  0  0  0  0  0  0  0  0  0  0
   -9.7875    0.6687   -9.1304 H   0  0  0  0  0  0  0  0  0  0  0  0
   -8.2744    1.4522   -7.4279 H   0  0  0  0  0  0  0  0  0  0  0  0
   -8.8038    3.3490   -6.0478 H   0  0  0  0  0  0  0  0  0  0  0  0
  -10.1823    3.7313   -7.1270 H   0  0  0  0  0  0  0  0  0  0  0  0
   -7.1794    3.7518   -7.8409 H   0  0  0  0  0  0  0  0  0  0  0  0
   -8.3096    5.1578   -7.7559 H   0  0  0  0  0  0  0  0  0  0  0  0
   -6.8817    3.7270  -11.4998 H   0  0  0  0  0  0  0  0  0  0  0  0
   -6.4590    5.4989  -13.1504 H   0  0  0  0  0  0  0  0  0  0  0  0
  1  2  2  0
  2  3  2  0
  2  4  1  0
  4  5  1  0
  5  6  1  0
  6  7  1  0
  7  8  1  0
  8  9  1  0
  9 10  1  0
 10 11  1  0
 11 12  1  0
 12 13  1  0
 13 14  1  0
 14 15  1  0
  2 16  1  0
 16 17  2  0
 17 18  1  0
 18 19  2  0
 19 20  1  0
 20 21  1  0
 21 22  1  0
 22 23  1  0
 23 24  1  0
 24 25  1  0
 19 26  1  0
 26 27  2  0
 10  6  1  0
 15 11  1  0
 27 16  1  0
 25 20  1  0
  4 28  1  0
  5 29  1  0
  5 30  1  0
  6 31  1  6
  7 32  1  0
  7 33  1  0
  8 34  1  0
  8 35  1  0
  9 36  1  0
  9 37  1  0
 10 38  1  1
 12 39  1  0
 12 40  1  0
 13 41  1  0
 13 42  1  0
 14 43  1  0
 14 44  1  0
 15 45  1  0
 15 46  1  0
 17 47  1  0
 18 48  1  0
 21 49  1  0
 21 50  1  0
 22 51  1  0
 22 52  1  0
 23 53  1  0
 24 54  1  0
 24 55  1  0
 25 56  1  0
 25 57  1  0
 26 58  1  0
 27 59  1  0
A    1
 O1 
A    2
 S1 
A    3
 O2 
A    4
 N1 
A    5
 C1 
A    6
 C2 
A    7
 C3 
A    8
 C4 
A    9
 C5 
A   10
 C6 
A   11
 N2 
A   12
 C7 
A   13
 C8 
A   14
 C9 
A   15
 C10
A   16
 C11
A   17
 C12
A   18
 C13
A   19
 C14
A   20
 N3 
A   21
 C15
A   22
 C16
A   23
 N4 
A   24
 C17
A   25
 C18
A   26
 C19
A   27
 C20
A   28
 H1 
A   29
 H2 
A   30
 H3 
A   31
 H4 
A   32
 H5 
A   33
 H6 
A   34
 H7 
A   35
 H8 
A   36
 H9 
A   37
 H10
A   38
 H11
A   39
 H12
A   40
 H13
A   41
 H14
A   42
 H15
A   43
 H16
A   44
 H17
A   45
 H18
A   46
 H19
A   47
 H20
A   48
 H21
A   49
 H22
A   50
 H23
A   51
 H24
A   52
 H25
A   53
 H26
A   54
 H27
A   55
 H28
A   56
 H29
A   57
 H30
A   58
 H31
A   59
 H32
M  END
>  <ref_pdb>  (461) 
x0051_0B

>  <ref_mols>  (461) 
x0404_0B,x0422_0B

>  <original SMILES>  (461) 
[H]c1c([H])c(S(=O)(=O)N([H])C([H])([H])[C@]2([H])C([H])([H])C([H])([H])C([H])([H])[C@@]2([H])N2C([H])([H])C([H])([H])C([H])([H])C2([H])[H])c([H])c([H])c1N1C([H])([H])C([H])([H])N([H])C([H])([H])C1([H])[H]

>  <index>  (461) 
704

>  <∆∆G>  (461) 
-5.251648

>  <∆G_bound>  (461) 
-4.178003

>  <∆G_unbound>  (461) 
1.073646

>  <comRMSD>  (461) 
0.724959

>  <N_constrained_atoms>  (461) 
27.0

>  <N_unconstrained_atoms>  (461) 
1.0

>  <runtime>  (461) 
110.062266

>  <LE>  (461) 
0.187559

>  <percent_hybrid>  (461) 
41.0

>  <dist>  (461) 
8.0

>  <ecfp4>  (461) 
0.388889

>  <daylight>  (461) 
0.331731

>  <topodist>  (461) 
1.0

>  <mces>  (461) 
30.0

>  <tdn>  (461) 
1.0

>  <tup>  (461) 
0.0

>  <rdn>  (461) 
0.0

>  <rup>  (461) 
0.0

>  <ldn>  (461) 
0.0

>  <lup>  (461) 
0.0

>  <mut>  (461) 
5.0

>  <maj>  (461) 
5.0

>  <min>  (461) 
0.0

>  <hyb>  (461) 
2.0

>  <sub>  (461) 
0.0

>  <query_index>  (461) 
324.0

>  <max_hit_Tanimoto>  (461) 
0.410795

>  <largest_ring>  (461) 
6

>  <N_interactions_kept>  (461) 
2.0

>  <N_interactions_lost>  (461) 
3.5

>  <interaction_uniqueness_metric>  (461) 
0.366772

>  <ad_hoc_penalty>  (461) 
-18.079621

>  <N_rotatable_bonds>  (461) 
6

>  <N_HA>  (461) 
27

>  <cluster>  (461) 
5573

>  <N_interactions>  (461) 
10

>  <Enamine>  (461) 
1

>  <Mcule>  (461) 
0

>  <N_PAINS>  (461) 
0

>  <UFF_Gibbs>  (461) 
205.003908

>  <strain_per_HA>  (461) 
7.321568

>  <saltbridge:HIS:51>  (461) 
0

>  <pistack:HIS:51>  (461) 
1

>  <hydroph_interaction:HIS:51>  (461) 
1

>  <hbond:ALA:132>  (461) 
0

>  <hbond:SER:135>  (461) 
0

>  <hydroph_interaction:TYR:150>  (461) 
1

>  <pistack:TYR:161>  (461) 
0

>  <hydroph_interaction:TYR:161>  (461) 
3

>  <hydroph_interaction:ASP:83>  (461) 
0

>  <hbond:TYR:130>  (461) 
0

>  <hydroph_interaction:ALA:132>  (461) 
1

>  <hbond:HIS:51>  (461) 
0

>  <hbond:ASP:129>  (461) 
0

>  <hbond:TYR:150>  (461) 
0

>  <hbond:GLY:151>  (461) 
1

>  <hbond:TYR:161>  (461) 
0

>  <hydroph_interaction:TYR:130>  (461) 
0

>  <hydroph_interaction:PRO:131>  (461) 
0

>  <hydroph_interaction:ASP:129>  (461) 
0

>  <saltbridge:ASP:75>  (461) 
0

>  <saltbridge:ASP:83>  (461) 
0

>  <hydroph_interaction:ASN:152>  (461) 
0

>  <halogenbond:TYR:150>  (461) 
0

>  <hbond:ASP:83>  (461) 
0

>  <hydroph_interaction:VAL:155>  (461) 
0

>  <pication:TYR:161>  (461) 
1

>  <hbond:PRO:131>  (461) 
0

>  <hbond:LEU:128>  (461) 
0

>  <saltbridge:ASP:129>  (461) 
0

>  <hbond:THR:134>  (461) 
0

>  <pication:HIS:51>  (461) 
0

>  <hbond:SER:81>  (461) 
1

>  <hbond:GLY:159>  (461) 
0

>  <hydroph_interaction:PRO:101>  (461) 
0

>  <hydroph_interaction:THR:134>  (461) 
0

>  <hbond:GLY:82>  (461) 
0

>  <hydroph_interaction:GLU:104>  (461) 
0

>  <hydroph_interaction:VAL:36>  (461) 
0

>  <hydroph_interaction:MET:49>  (461) 
0

>  <halogenbond:GLU:104>  (461) 
0

>  <hydroph_interaction:LYS:107>  (461) 
0

$$$$
BMRKSSQXVDVKJQ-UHFFFAOYSA-N
     RDKit          3D

 37 38  0  0  0  0  0  0  0  0999 V2000
   -3.6432    5.2757  -17.9830 C   0  0  0  0  0  0  0  0  0  0  0  0
   -4.8756    5.9845  -17.7395 N   0  0  0  0  0  0  0  0  0  0  0  0
   -5.9667    5.8729  -18.7152 C   0  0  0  0  0  0  0  0  0  0  0  0
   -7.3190    6.2810  -18.1063 C   0  0  0  0  0  0  0  0  0  0  0  0
   -7.4386    5.7633  -16.6469 C   0  0  0  0  0  0  0  0  0  0  0  0
   -8.7783    6.0349  -16.0433 N   0  0  0  0  0  0  0  0  0  0  0  0
   -9.8872    5.5540  -16.8925 C   0  0  0  0  0  0  0  0  0  0  0  0
   -8.8944    5.3874  -14.7192 C   0  0  0  0  0  0  0  0  0  0  0  0
   -6.3165    6.4067  -15.7765 C   0  0  0  0  0  0  0  0  0  0  0  0
   -5.0675    6.8390  -16.5632 C   0  0  0  0  0  0  0  0  0  0  0  0
   -3.2861    5.0413  -19.1696 O   0  0  0  0  0  0  0  0  0  0  0  0
   -2.7846    4.7621  -16.8578 C   0  0  0  0  0  0  0  0  0  0  0  0
   -3.5984    4.0042  -15.8516 C   0  0  0  0  0  0  0  0  0  0  0  0
   -3.4924    4.1972  -14.1825 S   0  0  0  0  0  0  0  0  0  0  0  0
   -4.6565    3.0441  -13.8100 C   0  0  0  0  0  0  0  0  0  0  0  0
   -5.1796    2.6293  -12.1918 Cl  0  0  0  0  0  0  0  0  0  0  0  0
   -5.1359    2.4823  -14.9839 C   0  0  0  0  0  0  0  0  0  0  0  0
   -4.5356    3.0128  -16.1311 C   0  0  0  0  0  0  0  0  0  0  0  0
   -6.0446    4.8151  -19.0527 H   0  0  0  0  0  0  0  0  0  0  0  0
   -5.7436    6.5052  -19.6011 H   0  0  0  0  0  0  0  0  0  0  0  0
   -8.1029    5.8509  -18.7621 H   0  0  0  0  0  0  0  0  0  0  0  0
   -7.4252    7.3880  -18.1216 H   0  0  0  0  0  0  0  0  0  0  0  0
   -7.2646    4.6614  -16.6768 H   0  0  0  0  0  0  0  0  0  0  0  0
  -10.8526    5.5586  -16.3403 H   0  0  0  0  0  0  0  0  0  0  0  0
  -10.0404    6.2456  -17.7462 H   0  0  0  0  0  0  0  0  0  0  0  0
   -9.6956    4.5224  -17.2631 H   0  0  0  0  0  0  0  0  0  0  0  0
   -8.1655    5.8145  -14.0009 H   0  0  0  0  0  0  0  0  0  0  0  0
   -8.7358    4.2882  -14.7925 H   0  0  0  0  0  0  0  0  0  0  0  0
   -9.8956    5.5785  -14.2755 H   0  0  0  0  0  0  0  0  0  0  0  0
   -6.7108    7.3051  -15.2523 H   0  0  0  0  0  0  0  0  0  0  0  0
   -6.0095    5.6773  -14.9971 H   0  0  0  0  0  0  0  0  0  0  0  0
   -4.1835    6.8359  -15.8937 H   0  0  0  0  0  0  0  0  0  0  0  0
   -5.1987    7.8876  -16.9089 H   0  0  0  0  0  0  0  0  0  0  0  0
   -2.2646    5.6136  -16.3711 H   0  0  0  0  0  0  0  0  0  0  0  0
   -2.0038    4.0806  -17.2587 H   0  0  0  0  0  0  0  0  0  0  0  0
   -5.8954    1.7124  -15.0114 H   0  0  0  0  0  0  0  0  0  0  0  0
   -4.7872    2.6913  -17.1333 H   0  0  0  0  0  0  0  0  0  0  0  0
  1  2  1  0
  2  3  1  0
  3  4  1  0
  4  5  1  0
  5  6  1  0
  6  7  1  0
  6  8  1  0
  5  9  1  0
  9 10  1  0
  1 11  2  0
  1 12  1  0
 12 13  1  0
 13 14  1  0
 14 15  1  0
 15 16  1  0
 15 17  2  0
 17 18  1  0
 10  2  1  0
 13 18  2  0
  3 19  1  0
  3 20  1  0
  4 21  1  0
  4 22  1  0
  5 23  1  0
  7 24  1  0
  7 25  1  0
  7 26  1  0
  8 27  1  0
  8 28  1  0
  8 29  1  0
  9 30  1  0
  9 31  1  0
 10 32  1  0
 10 33  1  0
 12 34  1  0
 12 35  1  0
 17 36  1  0
 18 37  1  0
A    1
 C1 
A    2
 N1 
A    3
 C2 
A    4
 C3 
A    5
 C4 
A    6
 N2 
A    7
 C5 
A    8
 C6 
A    9
 C7 
A   10
 C8 
A   11
 O1 
A   12
 C9 
A   13
 C10
A   14
 S1 
A   15
 C11
A   16
CL1 
A   17
 C12
A   18
 C13
A   19
 H1 
A   20
 H2 
A   21
 H3 
A   22
 H4 
A   23
 H5 
A   24
 H6 
A   25
 H7 
A   26
 H8 
A   27
 H9 
A   28
 H10
A   29
 H11
A   30
 H12
A   31
 H13
A   32
 H14
A   33
 H15
A   34
 H16
A   35
 H17
A   36
 H18
A   37
 H19
M  END
>  <ref_pdb>  (462) 
x0051_0B

>  <ref_mols>  (462) 
x0472_0B,x0904_0B

>  <original SMILES>  (462) 
[H]c1c(Cl)sc(C([H])([H])C(=O)N2C([H])([H])C([H])([H])C([H])(N(C([H])([H])[H])C([H])([H])[H])C([H])([H])C2([H])[H])c1[H]

>  <index>  (462) 
623

>  <∆∆G>  (462) 
-6.882221

>  <∆G_bound>  (462) 
-6.575502

>  <∆G_unbound>  (462) 
0.306719

>  <comRMSD>  (462) 
0.666891

>  <N_constrained_atoms>  (462) 
16.0

>  <N_unconstrained_atoms>  (462) 
5.0

>  <runtime>  (462) 
37.980138

>  <LE>  (462) 
0.327725

>  <percent_hybrid>  (462) 
34.0

>  <dist>  (462) 
8.0

>  <ecfp4>  (462) 
0.152778

>  <daylight>  (462) 
0.280769

>  <topodist>  (462) 
4.0

>  <mces>  (462) 
18.0

>  <tdn>  (462) 
2.0

>  <tup>  (462) 
1.0

>  <rdn>  (462) 
1.0

>  <rup>  (462) 
0.0

>  <ldn>  (462) 
0.0

>  <lup>  (462) 
0.0

>  <mut>  (462) 
1.0

>  <maj>  (462) 
0.0

>  <min>  (462) 
1.0

>  <hyb>  (462) 
3.0

>  <sub>  (462) 
3.0

>  <query_index>  (462) 
174.0

>  <max_hit_Tanimoto>  (462) 
0.325452

>  <largest_ring>  (462) 
6

>  <N_interactions_kept>  (462) 
4.0

>  <N_interactions_lost>  (462) 
0.0

>  <interaction_uniqueness_metric>  (462) 
0.046449

>  <ad_hoc_penalty>  (462) 
-18.060484

>  <N_rotatable_bonds>  (462) 
5

>  <N_HA>  (462) 
18

>  <cluster>  (462) 
5650

>  <N_interactions>  (462) 
3

>  <Enamine>  (462) 
0

>  <Mcule>  (462) 
1

>  <N_PAINS>  (462) 
0

>  <UFF_Gibbs>  (462) 
95.352767

>  <strain_per_HA>  (462) 
4.540608

>  <saltbridge:HIS:51>  (462) 
0

>  <pistack:HIS:51>  (462) 
0

>  <hydroph_interaction:HIS:51>  (462) 
0

>  <hbond:ALA:132>  (462) 
0

>  <hbond:SER:135>  (462) 
0

>  <hydroph_interaction:TYR:150>  (462) 
0

>  <pistack:TYR:161>  (462) 
0

>  <hydroph_interaction:TYR:161>  (462) 
2

>  <hydroph_interaction:ASP:83>  (462) 
0

>  <hbond:TYR:130>  (462) 
0

>  <hydroph_interaction:ALA:132>  (462) 
0

>  <hbond:HIS:51>  (462) 
0

>  <hbond:ASP:129>  (462) 
0

>  <hbond:TYR:150>  (462) 
0

>  <hbond:GLY:151>  (462) 
0

>  <hbond:TYR:161>  (462) 
0

>  <hydroph_interaction:TYR:130>  (462) 
0

>  <hydroph_interaction:PRO:131>  (462) 
0

>  <hydroph_interaction:ASP:129>  (462) 
0

>  <saltbridge:ASP:75>  (462) 
0

>  <saltbridge:ASP:83>  (462) 
0

>  <hydroph_interaction:ASN:152>  (462) 
0

>  <halogenbond:TYR:150>  (462) 
0

>  <hbond:ASP:83>  (462) 
0

>  <hydroph_interaction:VAL:155>  (462) 
1

>  <pication:TYR:161>  (462) 
0

>  <hbond:PRO:131>  (462) 
0

>  <hbond:LEU:128>  (462) 
0

>  <saltbridge:ASP:129>  (462) 
0

>  <hbond:THR:134>  (462) 
0

>  <pication:HIS:51>  (462) 
0

>  <hbond:SER:81>  (462) 
0

>  <hbond:GLY:159>  (462) 
0

>  <hydroph_interaction:PRO:101>  (462) 
0

>  <hydroph_interaction:THR:134>  (462) 
0

>  <hbond:GLY:82>  (462) 
0

>  <hydroph_interaction:GLU:104>  (462) 
0

>  <hydroph_interaction:VAL:36>  (462) 
0

>  <hydroph_interaction:MET:49>  (462) 
0

>  <halogenbond:GLU:104>  (462) 
0

>  <hydroph_interaction:LYS:107>  (462) 
0

$$$$
CSSS00011962882
     RDKit          3D

 22 23  0  0  0  0  0  0  0  0999 V2000
   -7.1379    4.2974  -21.3973 N   0  0  0  0  0  0  0  0  0  0  0  0
   -6.6126    5.5440  -20.8501 C   0  0  0  0  0  0  0  0  0  0  0  0
   -6.3276    5.3846  -19.3739 C   0  0  0  0  0  0  0  0  0  0  0  0
   -4.9914    5.2968  -18.9498 C   0  0  0  0  0  0  0  0  0  0  0  0
   -4.6894    5.1461  -17.6350 N   0  0  0  0  0  0  0  0  0  0  0  0
   -5.6502    5.0677  -16.6810 C   0  0  0  0  0  0  0  0  0  0  0  0
   -7.0019    5.1344  -17.0366 C   0  0  0  0  0  0  0  0  0  0  0  0
   -7.9991    5.0438  -16.0533 C   0  0  0  0  0  0  0  0  0  0  0  0
   -9.3460    5.1022  -16.4129 C   0  0  0  0  0  0  0  0  0  0  0  0
   -9.7074    5.2489  -17.7523 C   0  0  0  0  0  0  0  0  0  0  0  0
   -8.7254    5.3417  -18.7423 C   0  0  0  0  0  0  0  0  0  0  0  0
   -7.3563    5.2900  -18.4014 C   0  0  0  0  0  0  0  0  0  0  0  0
   -6.3670    3.5901  -21.3947 H   0  0  0  0  0  0  0  0  0  0  0  0
   -7.3832    4.4677  -22.3994 H   0  0  0  0  0  0  0  0  0  0  0  0
   -7.3460    6.3642  -21.0050 H   0  0  0  0  0  0  0  0  0  0  0  0
   -5.6929    5.8359  -21.4058 H   0  0  0  0  0  0  0  0  0  0  0  0
   -4.1826    5.3499  -19.6673 H   0  0  0  0  0  0  0  0  0  0  0  0
   -5.3558    4.9481  -15.6457 H   0  0  0  0  0  0  0  0  0  0  0  0
   -7.7365    4.9261  -15.0086 H   0  0  0  0  0  0  0  0  0  0  0  0
  -10.1121    5.0310  -15.6516 H   0  0  0  0  0  0  0  0  0  0  0  0
  -10.7540    5.2900  -18.0256 H   0  0  0  0  0  0  0  0  0  0  0  0
   -9.0515    5.4484  -19.7674 H   0  0  0  0  0  0  0  0  0  0  0  0
  1  2  1  0
  2  3  1  0
  3  4  2  0
  4  5  1  0
  5  6  2  0
  6  7  1  0
  7  8  2  0
  8  9  1  0
  9 10  2  0
 10 11  1  0
 11 12  2  0
 12  3  1  0
 12  7  1  0
  1 13  1  0
  1 14  1  0
  2 15  1  0
  2 16  1  0
  4 17  1  0
  6 18  1  0
  8 19  1  0
  9 20  1  0
 10 21  1  0
 11 22  1  0
A    1
 N1 
A    2
 C1 
A    3
 C2 
A    4
 C3 
A    5
 N2 
A    6
 C4 
A    7
 C5 
A    8
 C6 
A    9
 C7 
A   10
 C8 
A   11
 C9 
A   12
 C10
A   13
 H1 
A   14
 H2 
A   15
 H3 
A   16
 H4 
A   17
 H5 
A   18
 H6 
A   19
 H7 
A   20
 H8 
A   21
 H9 
A   22
 H10
M  END
>  <ref_pdb>  (463) 
x0051_0B

>  <ref_mols>  (463) 
x0727_0B,x0425_0B

>  <original SMILES>  (463) 
[H]c1nc([H])c2c([H])c([H])c([H])c([H])c2c1C([H])([H])N([H])[H]

>  <index>  (463) 
827

>  <∆∆G>  (463) 
-7.562166

>  <∆G_bound>  (463) 
-7.490015

>  <∆G_unbound>  (463) 
0.072152

>  <comRMSD>  (463) 
0.723293

>  <N_constrained_atoms>  (463) 
12.0

>  <N_unconstrained_atoms>  (463) 
1.0

>  <runtime>  (463) 
27.158079

>  <LE>  (463) 
0.581705

>  <percent_hybrid>  (463) 
34.0

>  <dist>  (463) 
3.0

>  <ecfp4>  (463) 
0.325

>  <daylight>  (463) 
0.337209

>  <topodist>  (463) 
1.0

>  <mces>  (463) 
13.0

>  <tdn>  (463) 
0.0

>  <tup>  (463) 
0.0

>  <rdn>  (463) 
0.0

>  <rup>  (463) 
0.0

>  <ldn>  (463) 
1.0

>  <lup>  (463) 
0.0

>  <mut>  (463) 
2.0

>  <maj>  (463) 
2.0

>  <min>  (463) 
0.0

>  <hyb>  (463) 
0.0

>  <sub>  (463) 
0.0

>  <query_index>  (463) 
105.0

>  <max_hit_Tanimoto>  (463) 
0.319149

>  <largest_ring>  (463) 
6

>  <N_interactions_kept>  (463) 
0.0

>  <N_interactions_lost>  (463) 
3.5

>  <interaction_uniqueness_metric>  (463) 
0.12303

>  <ad_hoc_penalty>  (463) 
-18.056852

>  <N_rotatable_bonds>  (463) 
2

>  <N_HA>  (463) 
12

>  <cluster>  (463) 
5461

>  <N_interactions>  (463) 
7

>  <Enamine>  (463) 
1

>  <Mcule>  (463) 
0

>  <N_PAINS>  (463) 
0

>  <UFF_Gibbs>  (463) 
43.022018

>  <strain_per_HA>  (463) 
3.309386

>  <saltbridge:HIS:51>  (463) 
0

>  <pistack:HIS:51>  (463) 
0

>  <hydroph_interaction:HIS:51>  (463) 
0

>  <hbond:ALA:132>  (463) 
0

>  <hbond:SER:135>  (463) 
0

>  <hydroph_interaction:TYR:150>  (463) 
1

>  <pistack:TYR:161>  (463) 
2

>  <hydroph_interaction:TYR:161>  (463) 
1

>  <hydroph_interaction:ASP:83>  (463) 
0

>  <hbond:TYR:130>  (463) 
1

>  <hydroph_interaction:ALA:132>  (463) 
0

>  <hbond:HIS:51>  (463) 
0

>  <hbond:ASP:129>  (463) 
2

>  <hbond:TYR:150>  (463) 
0

>  <hbond:GLY:151>  (463) 
0

>  <hbond:TYR:161>  (463) 
0

>  <hydroph_interaction:TYR:130>  (463) 
0

>  <hydroph_interaction:PRO:131>  (463) 
0

>  <hydroph_interaction:ASP:129>  (463) 
0

>  <saltbridge:ASP:75>  (463) 
0

>  <saltbridge:ASP:83>  (463) 
0

>  <hydroph_interaction:ASN:152>  (463) 
0

>  <halogenbond:TYR:150>  (463) 
0

>  <hbond:ASP:83>  (463) 
0

>  <hydroph_interaction:VAL:155>  (463) 
0

>  <pication:TYR:161>  (463) 
0

>  <hbond:PRO:131>  (463) 
0

>  <hbond:LEU:128>  (463) 
0

>  <saltbridge:ASP:129>  (463) 
0

>  <hbond:THR:134>  (463) 
0

>  <pication:HIS:51>  (463) 
0

>  <hbond:SER:81>  (463) 
0

>  <hbond:GLY:159>  (463) 
0

>  <hydroph_interaction:PRO:101>  (463) 
0

>  <hydroph_interaction:THR:134>  (463) 
0

>  <hbond:GLY:82>  (463) 
0

>  <hydroph_interaction:GLU:104>  (463) 
0

>  <hydroph_interaction:VAL:36>  (463) 
0

>  <hydroph_interaction:MET:49>  (463) 
0

>  <halogenbond:GLU:104>  (463) 
0

>  <hydroph_interaction:LYS:107>  (463) 
0

$$$$
MCULE-5197641201
     RDKit          3D

 29 31  0  0  0  0  0  0  0  0999 V2000
   -7.5885    5.6927  -17.4256 C   0  0  0  0  0  0  0  0  0  0  0  0
   -6.4046    6.4074  -17.4819 C   0  0  0  0  0  0  0  0  0  0  0  0
   -6.0393    6.5354  -18.7801 N   0  0  0  0  0  0  0  0  0  0  0  0
   -6.9466    5.9270  -19.5340 N   0  0  0  0  0  0  0  0  0  0  0  0
   -7.8873    5.4094  -18.7303 C   0  0  0  0  0  0  0  0  0  0  0  0
   -9.0104    4.6725  -19.0912 C   0  0  0  0  0  0  0  0  0  0  0  0
   -9.8489    4.2175  -18.0599 C   0  0  0  0  0  0  0  0  0  0  0  0
   -9.5478    4.5039  -16.7094 C   0  0  0  0  0  0  0  0  0  0  0  0
   -8.3966    5.2531  -16.3635 C   0  0  0  0  0  0  0  0  0  0  0  0
   -8.0891    5.5679  -14.9478 C   0  0  0  0  0  0  0  0  0  0  0  0
   -8.5434    4.7022  -13.8944 N   0  0  0  0  0  0  0  0  0  0  0  0
   -8.6092    5.0845  -12.5130 C   0  0  0  0  0  0  0  0  0  0  0  0
   -8.5716    6.3585  -11.9726 C   0  0  0  0  0  0  0  0  0  0  0  0
   -8.7131    6.2631  -10.6351 N   0  0  0  0  0  0  0  0  0  0  0  0
   -8.8550    4.9803  -10.3343 N   0  0  0  0  0  0  0  0  0  0  0  0
   -8.9785    4.4737   -8.9746 C   0  0  0  0  0  0  0  0  0  0  0  0
   -8.7937    4.2301  -11.4501 C   0  0  0  0  0  0  0  0  0  0  0  0
   -7.4039    6.5886  -14.6711 O   0  0  0  0  0  0  0  0  0  0  0  0
   -5.8341    6.7993  -16.6518 H   0  0  0  0  0  0  0  0  0  0  0  0
   -6.9091    5.8676  -20.5758 H   0  0  0  0  0  0  0  0  0  0  0  0
   -9.2309    4.4556  -20.1284 H   0  0  0  0  0  0  0  0  0  0  0  0
  -10.7352    3.6459  -18.3029 H   0  0  0  0  0  0  0  0  0  0  0  0
  -10.2288    4.1555  -15.9437 H   0  0  0  0  0  0  0  0  0  0  0  0
   -8.7929    3.7160  -14.1322 H   0  0  0  0  0  0  0  0  0  0  0  0
   -8.4691    7.2946  -12.5031 H   0  0  0  0  0  0  0  0  0  0  0  0
   -7.9849    4.1369   -8.6122 H   0  0  0  0  0  0  0  0  0  0  0  0
   -9.6878    3.6192   -8.9495 H   0  0  0  0  0  0  0  0  0  0  0  0
   -9.3596    5.2725   -8.3037 H   0  0  0  0  0  0  0  0  0  0  0  0
   -8.8742    3.1510  -11.4847 H   0  0  0  0  0  0  0  0  0  0  0  0
  1  2  1  0
  2  3  2  0
  3  4  1  0
  4  5  1  0
  5  6  1  0
  6  7  2  0
  7  8  1  0
  8  9  2  0
  9 10  1  0
 10 11  1  0
 11 12  1  0
 12 13  1  0
 13 14  2  0
 14 15  1  0
 15 16  1  0
 15 17  1  0
 10 18  2  0
  5  1  2  0
  1  9  1  0
 12 17  2  0
  2 19  1  0
  4 20  1  0
  6 21  1  0
  7 22  1  0
  8 23  1  0
 11 24  1  0
 13 25  1  0
 16 26  1  0
 16 27  1  0
 16 28  1  0
 17 29  1  0
A    1
 C1 
A    2
 C2 
A    3
 N1 
A    4
 N2 
A    5
 C3 
A    6
 C4 
A    7
 C5 
A    8
 C6 
A    9
 C7 
A   10
 C8 
A   11
 N3 
A   12
 C9 
A   13
 C10
A   14
 N4 
A   15
 N5 
A   16
 C11
A   17
 C12
A   18
 O1 
A   19
 H1 
A   20
 H2 
A   21
 H3 
A   22
 H4 
A   23
 H5 
A   24
 H6 
A   25
 H7 
A   26
 H8 
A   27
 H9 
A   28
 H10
A   29
 H11
M  END
>  <ref_pdb>  (464) 
x0051_0B

>  <ref_mols>  (464) 
x1098_0B,x0386_0B

>  <original SMILES>  (464) 
[H]c1nn(C([H])([H])[H])c([H])c1N([H])C(=O)c1c([H])c([H])c([H])c2c1c([H])nn2[H]

>  <index>  (464) 
1018

>  <∆∆G>  (464) 
-7.137755

>  <∆G_bound>  (464) 
-6.658982

>  <∆G_unbound>  (464) 
0.478773

>  <comRMSD>  (464) 
0.618998

>  <N_constrained_atoms>  (464) 
20.0

>  <N_unconstrained_atoms>  (464) 
0.0

>  <runtime>  (464) 
57.682288

>  <LE>  (464) 
0.356888

>  <percent_hybrid>  (464) 
8.0

>  <dist>  (464) 
5.0

>  <ecfp4>  (464) 
0.508197

>  <daylight>  (464) 
0.55102

>  <topodist>  (464) 
3.0

>  <mces>  (464) 
19.0

>  <tdn>  (464) 
2.0

>  <tup>  (464) 
0.0

>  <rdn>  (464) 
0.0

>  <rup>  (464) 
1.0

>  <ldn>  (464) 
0.0

>  <lup>  (464) 
0.0

>  <mut>  (464) 
1.0

>  <maj>  (464) 
1.0

>  <min>  (464) 
0.0

>  <hyb>  (464) 
1.0

>  <sub>  (464) 
2.0

>  <query_index>  (464) 
61.0

>  <max_hit_Tanimoto>  (464) 
0.485564

>  <largest_ring>  (464) 
6

>  <N_interactions_kept>  (464) 
1.5

>  <N_interactions_lost>  (464) 
3.5

>  <interaction_uniqueness_metric>  (464) 
0.164058

>  <ad_hoc_penalty>  (464) 
-18.036461

>  <N_rotatable_bonds>  (464) 
3

>  <N_HA>  (464) 
18

>  <cluster>  (464) 
5283

>  <N_interactions>  (464) 
7

>  <Enamine>  (464) 
0

>  <Mcule>  (464) 
1

>  <N_PAINS>  (464) 
0

>  <UFF_Gibbs>  (464) 
42.870766

>  <strain_per_HA>  (464) 
2.143538

>  <saltbridge:HIS:51>  (464) 
0

>  <pistack:HIS:51>  (464) 
1

>  <hydroph_interaction:HIS:51>  (464) 
0

>  <hbond:ALA:132>  (464) 
0

>  <hbond:SER:135>  (464) 
0

>  <hydroph_interaction:TYR:150>  (464) 
1

>  <pistack:TYR:161>  (464) 
2

>  <hydroph_interaction:TYR:161>  (464) 
0

>  <hydroph_interaction:ASP:83>  (464) 
0

>  <hbond:TYR:130>  (464) 
0

>  <hydroph_interaction:ALA:132>  (464) 
1

>  <hbond:HIS:51>  (464) 
0

>  <hbond:ASP:129>  (464) 
0

>  <hbond:TYR:150>  (464) 
0

>  <hbond:GLY:151>  (464) 
1

>  <hbond:TYR:161>  (464) 
1

>  <hydroph_interaction:TYR:130>  (464) 
0

>  <hydroph_interaction:PRO:131>  (464) 
0

>  <hydroph_interaction:ASP:129>  (464) 
0

>  <saltbridge:ASP:75>  (464) 
0

>  <saltbridge:ASP:83>  (464) 
0

>  <hydroph_interaction:ASN:152>  (464) 
0

>  <halogenbond:TYR:150>  (464) 
0

>  <hbond:ASP:83>  (464) 
0

>  <hydroph_interaction:VAL:155>  (464) 
0

>  <pication:TYR:161>  (464) 
0

>  <hbond:PRO:131>  (464) 
0

>  <hbond:LEU:128>  (464) 
0

>  <saltbridge:ASP:129>  (464) 
0

>  <hbond:THR:134>  (464) 
0

>  <pication:HIS:51>  (464) 
0

>  <hbond:SER:81>  (464) 
0

>  <hbond:GLY:159>  (464) 
0

>  <hydroph_interaction:PRO:101>  (464) 
0

>  <hydroph_interaction:THR:134>  (464) 
0

>  <hbond:GLY:82>  (464) 
0

>  <hydroph_interaction:GLU:104>  (464) 
0

>  <hydroph_interaction:VAL:36>  (464) 
0

>  <hydroph_interaction:MET:49>  (464) 
0

>  <halogenbond:GLU:104>  (464) 
0

>  <hydroph_interaction:LYS:107>  (464) 
0

$$$$
MCULE-4079779459
     RDKit          3D

 50 54  0  0  0  0  0  0  0  0999 V2000
   -5.7725    7.0495  -19.7042 C   0  0  0  0  0  0  0  0  0  0  0  0
   -4.9556    7.6395  -18.7239 C   0  0  0  0  0  0  0  0  0  0  0  0
   -4.8725    7.0919  -17.4406 C   0  0  0  0  0  0  0  0  0  0  0  0
   -5.6072    5.9436  -17.1151 C   0  0  0  0  0  0  0  0  0  0  0  0
   -5.5296    5.3844  -15.8295 C   0  0  0  0  0  0  0  0  0  0  0  0
   -6.2666    4.2383  -15.5179 C   0  0  0  0  0  0  0  0  0  0  0  0
   -7.0876    3.6463  -16.4819 C   0  0  0  0  0  0  0  0  0  0  0  0
   -7.1746    4.1933  -17.7652 C   0  0  0  0  0  0  0  0  0  0  0  0
   -6.4362    5.3417  -18.0926 C   0  0  0  0  0  0  0  0  0  0  0  0
   -6.5134    5.8984  -19.3781 C   0  0  0  0  0  0  0  0  0  0  0  0
   -5.8660    7.6417  -21.0612 C   0  0  0  0  0  0  0  0  0  0  0  0
   -5.8600    6.8196  -22.2023 C   0  0  0  0  0  0  0  0  0  0  0  0
   -5.9616    7.3786  -23.4793 C   0  0  0  0  0  0  0  0  0  0  0  0
   -6.0750    8.7672  -23.6382 C   0  0  0  0  0  0  0  0  0  0  0  0
   -6.2013    9.3585  -25.0153 C   0  0  0  0  0  0  0  0  0  0  0  0
   -7.4751    8.9749  -25.6178 N   0  0  0  0  0  0  0  0  0  0  0  0
   -8.7304    9.5156  -25.1779 C   0  0  0  0  0  0  0  0  0  0  0  0
  -10.0063    9.1523  -25.8827 C   0  0  0  0  0  0  0  0  0  0  0  0
  -10.1482    9.9032  -27.2371 C   0  0  0  0  0  0  0  0  0  0  0  0
  -10.2192    8.7883  -28.2165 C   0  0  0  0  0  0  0  0  0  0  0  0
  -10.3435    8.8538  -29.6056 C   0  0  0  0  0  0  0  0  0  0  0  0
  -10.3970    7.6491  -30.3280 C   0  0  0  0  0  0  0  0  0  0  0  0
  -10.3259    6.4138  -29.6550 C   0  0  0  0  0  0  0  0  0  0  0  0
  -10.1946    6.3783  -28.2564 C   0  0  0  0  0  0  0  0  0  0  0  0
  -10.1438    7.5892  -27.5674 C   0  0  0  0  0  0  0  0  0  0  0  0
  -10.0199    7.7591  -26.2057 O   0  0  0  0  0  0  0  0  0  0  0  0
   -8.7665   10.3459  -24.2297 O   0  0  0  0  0  0  0  0  0  0  0  0
   -6.0789    9.5919  -22.5032 C   0  0  0  0  0  0  0  0  0  0  0  0
   -5.9741    9.0339  -21.2259 C   0  0  0  0  0  0  0  0  0  0  0  0
   -4.3684    8.5195  -18.9550 H   0  0  0  0  0  0  0  0  0  0  0  0
   -4.2292    7.5615  -16.7043 H   0  0  0  0  0  0  0  0  0  0  0  0
   -4.9001    5.8318  -15.0686 H   0  0  0  0  0  0  0  0  0  0  0  0
   -6.2002    3.8082  -14.5269 H   0  0  0  0  0  0  0  0  0  0  0  0
   -7.6533    2.7575  -16.2353 H   0  0  0  0  0  0  0  0  0  0  0  0
   -7.8135    3.7170  -18.5004 H   0  0  0  0  0  0  0  0  0  0  0  0
   -7.1589    5.4438  -20.1197 H   0  0  0  0  0  0  0  0  0  0  0  0
   -5.7653    5.7453  -22.1072 H   0  0  0  0  0  0  0  0  0  0  0  0
   -5.9565    6.7289  -24.3455 H   0  0  0  0  0  0  0  0  0  0  0  0
   -6.1204   10.4680  -24.9914 H   0  0  0  0  0  0  0  0  0  0  0  0
   -5.3676    8.9806  -25.6454 H   0  0  0  0  0  0  0  0  0  0  0  0
   -7.4582    8.3273  -26.4381 H   0  0  0  0  0  0  0  0  0  0  0  0
  -10.8772    9.3766  -25.2293 H   0  0  0  0  0  0  0  0  0  0  0  0
   -9.2776   10.5575  -27.4633 H   0  0  0  0  0  0  0  0  0  0  0  0
  -11.0887   10.4939  -27.2630 H   0  0  0  0  0  0  0  0  0  0  0  0
  -10.4028    9.8077  -30.1126 H   0  0  0  0  0  0  0  0  0  0  0  0
  -10.4974    7.6704  -31.4045 H   0  0  0  0  0  0  0  0  0  0  0  0
  -10.3713    5.4898  -30.2176 H   0  0  0  0  0  0  0  0  0  0  0  0
  -10.1362    5.4357  -27.7273 H   0  0  0  0  0  0  0  0  0  0  0  0
   -6.1706   10.6669  -22.6044 H   0  0  0  0  0  0  0  0  0  0  0  0
   -5.9993    9.6903  -20.3653 H   0  0  0  0  0  0  0  0  0  0  0  0
  1  2  2  0
  2  3  1  0
  3  4  2  0
  4  5  1  0
  5  6  2  0
  6  7  1  0
  7  8  2  0
  8  9  1  0
  9 10  2  0
  1 11  1  0
 11 12  2  0
 12 13  1  0
 13 14  2  0
 14 15  1  0
 15 16  1  0
 16 17  1  0
 17 18  1  0
 18 19  1  0
 19 20  1  0
 20 21  2  0
 21 22  1  0
 22 23  2  0
 23 24  1  0
 24 25  2  0
 25 26  1  0
 17 27  2  0
 14 28  1  0
 28 29  2  0
  1 10  1  0
  4  9  1  0
 29 11  1  0
 26 18  1  0
 20 25  1  0
  2 30  1  0
  3 31  1  0
  5 32  1  0
  6 33  1  0
  7 34  1  0
  8 35  1  0
 10 36  1  0
 12 37  1  0
 13 38  1  0
 15 39  1  0
 15 40  1  0
 16 41  1  0
 18 42  1  0
 19 43  1  0
 19 44  1  0
 21 45  1  0
 22 46  1  0
 23 47  1  0
 24 48  1  0
 28 49  1  0
 29 50  1  0
A    1
 C1 
A    2
 C2 
A    3
 C3 
A    4
 C4 
A    5
 C5 
A    6
 C6 
A    7
 C7 
A    8
 C8 
A    9
 C9 
A   10
 C10
A   11
 C11
A   12
 C12
A   13
 C13
A   14
 C14
A   15
 C15
A   16
 N1 
A   17
 C16
A   18
 C17
A   19
 C18
A   20
 C19
A   21
 C20
A   22
 C21
A   23
 C22
A   24
 C23
A   25
 C24
A   26
 O1 
A   27
 O2 
A   28
 C25
A   29
 C26
A   30
 H1 
A   31
 H2 
A   32
 H3 
A   33
 H4 
A   34
 H5 
A   35
 H6 
A   36
 H7 
A   37
 H8 
A   38
 H9 
A   39
 H10
A   40
 H11
A   41
 H12
A   42
 H13
A   43
 H14
A   44
 H15
A   45
 H16
A   46
 H17
A   47
 H18
A   48
 H19
A   49
 H20
A   50
 H21
M  END
>  <ref_pdb>  (465) 
x0051_0B

>  <ref_mols>  (465) 
x0727_0B,x0846_1B

>  <original SMILES>  (465) 
[H]c1c([H])c([H])c2c(c1[H])OC([H])(C(=O)N([H])C([H])([H])c1c([H])c([H])c(-c3c([H])c([H])c4c([H])c([H])c([H])c([H])c4c3[H])c([H])c1[H])C2([H])[H]

>  <index>  (465) 
571

>  <∆∆G>  (465) 
-7.854841

>  <∆G_bound>  (465) 
-7.662667

>  <∆G_unbound>  (465) 
0.192174

>  <comRMSD>  (465) 
0.969332

>  <N_constrained_atoms>  (465) 
29.0

>  <N_unconstrained_atoms>  (465) 
2.0

>  <runtime>  (465) 
85.63877

>  <LE>  (465) 
0.253382

>  <percent_hybrid>  (465) 
38.0

>  <dist>  (465) 
11.0

>  <ecfp4>  (465) 
0.209302

>  <daylight>  (465) 
0.24031

>  <topodist>  (465) 
7.0

>  <mces>  (465) 
31.0

>  <tdn>  (465) 
3.0

>  <tup>  (465) 
1.0

>  <rdn>  (465) 
0.0

>  <rup>  (465) 
0.0

>  <ldn>  (465) 
2.0

>  <lup>  (465) 
1.0

>  <mut>  (465) 
3.0

>  <maj>  (465) 
3.0

>  <min>  (465) 
0.0

>  <hyb>  (465) 
1.0

>  <sub>  (465) 
2.0

>  <query_index>  (465) 
15.0

>  <max_hit_Tanimoto>  (465) 
0.235556

>  <largest_ring>  (465) 
6

>  <N_interactions_kept>  (465) 
1.0

>  <N_interactions_lost>  (465) 
2.0

>  <interaction_uniqueness_metric>  (465) 
0.145607

>  <ad_hoc_penalty>  (465) 
-17.978647

>  <N_rotatable_bonds>  (465) 
4

>  <N_HA>  (465) 
29

>  <cluster>  (465) 
5695

>  <N_interactions>  (465) 
5

>  <Enamine>  (465) 
0

>  <Mcule>  (465) 
1

>  <N_PAINS>  (465) 
0

>  <UFF_Gibbs>  (465) 
202.541044

>  <strain_per_HA>  (465) 
6.533582

>  <saltbridge:HIS:51>  (465) 
0

>  <pistack:HIS:51>  (465) 
0

>  <hydroph_interaction:HIS:51>  (465) 
0

>  <hbond:ALA:132>  (465) 
0

>  <hbond:SER:135>  (465) 
0

>  <hydroph_interaction:TYR:150>  (465) 
0

>  <pistack:TYR:161>  (465) 
2

>  <hydroph_interaction:TYR:161>  (465) 
0

>  <hydroph_interaction:ASP:83>  (465) 
0

>  <hbond:TYR:130>  (465) 
0

>  <hydroph_interaction:ALA:132>  (465) 
1

>  <hbond:HIS:51>  (465) 
0

>  <hbond:ASP:129>  (465) 
0

>  <hbond:TYR:150>  (465) 
0

>  <hbond:GLY:151>  (465) 
0

>  <hbond:TYR:161>  (465) 
0

>  <hydroph_interaction:TYR:130>  (465) 
1

>  <hydroph_interaction:PRO:131>  (465) 
1

>  <hydroph_interaction:ASP:129>  (465) 
0

>  <saltbridge:ASP:75>  (465) 
0

>  <saltbridge:ASP:83>  (465) 
0

>  <hydroph_interaction:ASN:152>  (465) 
0

>  <halogenbond:TYR:150>  (465) 
0

>  <hbond:ASP:83>  (465) 
0

>  <hydroph_interaction:VAL:155>  (465) 
0

>  <pication:TYR:161>  (465) 
0

>  <hbond:PRO:131>  (465) 
0

>  <hbond:LEU:128>  (465) 
0

>  <saltbridge:ASP:129>  (465) 
0

>  <hbond:THR:134>  (465) 
0

>  <pication:HIS:51>  (465) 
0

>  <hbond:SER:81>  (465) 
0

>  <hbond:GLY:159>  (465) 
0

>  <hydroph_interaction:PRO:101>  (465) 
0

>  <hydroph_interaction:THR:134>  (465) 
0

>  <hbond:GLY:82>  (465) 
0

>  <hydroph_interaction:GLU:104>  (465) 
0

>  <hydroph_interaction:VAL:36>  (465) 
0

>  <hydroph_interaction:MET:49>  (465) 
0

>  <halogenbond:GLU:104>  (465) 
0

>  <hydroph_interaction:LYS:107>  (465) 
0

$$$$
Z4468685870
     RDKit          3D

 46 48  0  0  0  0  0  0  0  0999 V2000
   -3.8561    5.7709  -22.1853 C   0  0  0  0  0  0  0  0  0  0  0  0
   -4.0919    5.6802  -20.7327 N   0  0  0  0  0  0  0  0  0  0  0  0
   -2.9378    5.0300  -20.0905 C   0  0  0  0  0  0  0  0  0  0  0  0
   -5.3317    4.9266  -20.4438 C   0  0  0  0  0  0  0  0  0  0  0  0
   -6.5531    5.8493  -20.5146 C   0  0  0  0  0  0  0  0  0  0  0  0
   -7.7516    5.1350  -20.0711 N   0  0  0  0  0  0  0  0  0  0  0  0
   -8.6142    4.4133  -20.8310 C   0  0  0  0  0  0  0  0  0  0  0  0
   -8.5214    4.3108  -22.0835 O   0  0  0  0  0  0  0  0  0  0  0  0
   -9.5830    3.8015  -20.1097 N   0  0  0  0  0  0  0  0  0  0  0  0
   -9.3010    4.1450  -18.8405 C   0  0  0  0  0  0  0  0  0  0  0  0
   -9.9710    3.7703  -17.6811 C   0  0  0  0  0  0  0  0  0  0  0  0
   -9.4706    4.2425  -16.4537 C   0  0  0  0  0  0  0  0  0  0  0  0
   -8.3128    5.0681  -16.4064 C   0  0  0  0  0  0  0  0  0  0  0  0
   -7.7958    5.5747  -15.1134 C   0  0  0  0  0  0  0  0  0  0  0  0
   -7.0937    6.6218  -15.0997 O   0  0  0  0  0  0  0  0  0  0  0  0
   -8.0542    4.8652  -13.8897 N   0  0  0  0  0  0  0  0  0  0  0  0
   -7.9328    5.4424  -12.5805 C   0  0  0  0  0  0  0  0  0  0  0  0
   -8.0969    4.7366  -11.5159 N   0  0  0  0  0  0  0  0  0  0  0  0
   -7.9889    5.5511  -10.3917 N   0  0  0  0  0  0  0  0  0  0  0  0
   -8.1204    5.0481   -9.0323 C   0  0  0  0  0  0  0  0  0  0  0  0
   -7.7576    6.9384  -10.7554 C   0  0  0  0  0  0  0  0  0  0  0  0
   -7.6855    6.8945  -12.2878 C   0  0  0  0  0  0  0  0  0  0  0  0
   -7.6653    5.4283  -17.6129 C   0  0  0  0  0  0  0  0  0  0  0  0
   -8.1930    4.9460  -18.8112 C   0  0  0  0  0  0  0  0  0  0  0  0
   -3.7061    4.7636  -22.6348 H   0  0  0  0  0  0  0  0  0  0  0  0
   -4.7089    6.2686  -22.6929 H   0  0  0  0  0  0  0  0  0  0  0  0
   -2.9560    6.3919  -22.3865 H   0  0  0  0  0  0  0  0  0  0  0  0
   -2.8314    3.9742  -20.4288 H   0  0  0  0  0  0  0  0  0  0  0  0
   -3.0575    5.0474  -18.9855 H   0  0  0  0  0  0  0  0  0  0  0  0
   -2.0016    5.5832  -20.3235 H   0  0  0  0  0  0  0  0  0  0  0  0
   -5.4618    4.0694  -21.1436 H   0  0  0  0  0  0  0  0  0  0  0  0
   -5.3001    4.5042  -19.4135 H   0  0  0  0  0  0  0  0  0  0  0  0
   -6.7044    6.2129  -21.5531 H   0  0  0  0  0  0  0  0  0  0  0  0
   -6.3886    6.7415  -19.8721 H   0  0  0  0  0  0  0  0  0  0  0  0
  -10.3574    3.1922  -20.4566 H   0  0  0  0  0  0  0  0  0  0  0  0
  -10.8503    3.1402  -17.7211 H   0  0  0  0  0  0  0  0  0  0  0  0
  -10.0000    3.9799  -15.5472 H   0  0  0  0  0  0  0  0  0  0  0  0
   -8.3337    3.8602  -13.9453 H   0  0  0  0  0  0  0  0  0  0  0  0
   -9.1010    4.5411   -8.9157 H   0  0  0  0  0  0  0  0  0  0  0  0
   -8.0532    5.8841   -8.3033 H   0  0  0  0  0  0  0  0  0  0  0  0
   -7.3066    4.3218   -8.8259 H   0  0  0  0  0  0  0  0  0  0  0  0
   -6.7999    7.2958  -10.3179 H   0  0  0  0  0  0  0  0  0  0  0  0
   -8.6063    7.5699  -10.4128 H   0  0  0  0  0  0  0  0  0  0  0  0
   -8.4760    7.5269  -12.7466 H   0  0  0  0  0  0  0  0  0  0  0  0
   -6.6749    7.1977  -12.6365 H   0  0  0  0  0  0  0  0  0  0  0  0
   -6.7796    6.0508  -17.6108 H   0  0  0  0  0  0  0  0  0  0  0  0
  1  2  1  0
  2  3  1  0
  2  4  1  0
  4  5  1  0
  5  6  1  0
  6  7  1  0
  7  8  2  0
  7  9  1  0
  9 10  1  0
 10 11  2  0
 11 12  1  0
 12 13  2  0
 13 14  1  0
 14 15  2  0
 14 16  1  0
 16 17  1  0
 17 18  2  0
 18 19  1  0
 19 20  1  0
 19 21  1  0
 21 22  1  0
 13 23  1  0
 23 24  2  0
 24  6  1  0
 24 10  1  0
 22 17  1  0
  1 25  1  0
  1 26  1  0
  1 27  1  0
  3 28  1  0
  3 29  1  0
  3 30  1  0
  4 31  1  0
  4 32  1  0
  5 33  1  0
  5 34  1  0
  9 35  1  0
 11 36  1  0
 12 37  1  0
 16 38  1  0
 20 39  1  0
 20 40  1  0
 20 41  1  0
 21 42  1  0
 21 43  1  0
 22 44  1  0
 22 45  1  0
 23 46  1  0
A    1
 C1 
A    2
 N1 
A    3
 C2 
A    4
 C3 
A    5
 C4 
A    6
 N2 
A    7
 C5 
A    8
 O1 
A    9
 N3 
A   10
 C6 
A   11
 C7 
A   12
 C8 
A   13
 C9 
A   14
 C10
A   15
 O2 
A   16
 N4 
A   17
 C11
A   18
 N5 
A   19
 N6 
A   20
 C12
A   21
 C13
A   22
 C14
A   23
 C15
A   24
 C16
A   25
 H1 
A   26
 H2 
A   27
 H3 
A   28
 H4 
A   29
 H5 
A   30
 H6 
A   31
 H7 
A   32
 H8 
A   33
 H9 
A   34
 H10
A   35
 H11
A   36
 H12
A   37
 H13
A   38
 H14
A   39
 H15
A   40
 H16
A   41
 H17
A   42
 H18
A   43
 H19
A   44
 H20
A   45
 H21
A   46
 H22
M  END
>  <ref_pdb>  (466) 
x0051_0B

>  <ref_mols>  (466) 
x0904_0B,x1098_0B

>  <original SMILES>  (466) 
[H]c1c(C(=O)N([H])C2=NN(C([H])([H])[H])C([H])([H])C2([H])[H])c([H])c2c(c1[H])n([H])c(=O)n2C([H])([H])C([H])([H])N(C([H])([H])[H])C([H])([H])[H]

>  <index>  (466) 
685

>  <∆∆G>  (466) 
-6.72962

>  <∆G_bound>  (466) 
-5.920342

>  <∆G_unbound>  (466) 
0.809278

>  <comRMSD>  (466) 
0.840915

>  <N_constrained_atoms>  (466) 
24.0

>  <N_unconstrained_atoms>  (466) 
2.0

>  <runtime>  (466) 
54.245556

>  <LE>  (466) 
0.258832

>  <percent_hybrid>  (466) 
42.0

>  <dist>  (466) 
9.0

>  <ecfp4>  (466) 
0.223529

>  <daylight>  (466) 
0.34375

>  <topodist>  (466) 
2.0

>  <mces>  (466) 
25.0

>  <tdn>  (466) 
1.0

>  <tup>  (466) 
0.0

>  <rdn>  (466) 
0.0

>  <rup>  (466) 
1.0

>  <ldn>  (466) 
0.0

>  <lup>  (466) 
0.0

>  <mut>  (466) 
4.0

>  <maj>  (466) 
4.0

>  <min>  (466) 
0.0

>  <hyb>  (466) 
3.0

>  <sub>  (466) 
1.0

>  <query_index>  (466) 
34.0

>  <max_hit_Tanimoto>  (466) 
0.259707

>  <largest_ring>  (466) 
6

>  <N_interactions_kept>  (466) 
4.0

>  <N_interactions_lost>  (466) 
2.0

>  <interaction_uniqueness_metric>  (466) 
0.330126

>  <ad_hoc_penalty>  (466) 
-17.974334

>  <N_rotatable_bonds>  (466) 
7

>  <N_HA>  (466) 
24

>  <cluster>  (466) 
5590

>  <N_interactions>  (466) 
7

>  <Enamine>  (466) 
1

>  <Mcule>  (466) 
0

>  <N_PAINS>  (466) 
0

>  <UFF_Gibbs>  (466) 
178.795598

>  <strain_per_HA>  (466) 
6.876754

>  <saltbridge:HIS:51>  (466) 
0

>  <pistack:HIS:51>  (466) 
0

>  <hydroph_interaction:HIS:51>  (466) 
0

>  <hbond:ALA:132>  (466) 
0

>  <hbond:SER:135>  (466) 
0

>  <hydroph_interaction:TYR:150>  (466) 
0

>  <pistack:TYR:161>  (466) 
2

>  <hydroph_interaction:TYR:161>  (466) 
0

>  <hydroph_interaction:ASP:83>  (466) 
0

>  <hbond:TYR:130>  (466) 
1

>  <hydroph_interaction:ALA:132>  (466) 
0

>  <hbond:HIS:51>  (466) 
0

>  <hbond:ASP:129>  (466) 
1

>  <hbond:TYR:150>  (466) 
1

>  <hbond:GLY:151>  (466) 
1

>  <hbond:TYR:161>  (466) 
0

>  <hydroph_interaction:TYR:130>  (466) 
0

>  <hydroph_interaction:PRO:131>  (466) 
0

>  <hydroph_interaction:ASP:129>  (466) 
0

>  <saltbridge:ASP:75>  (466) 
0

>  <saltbridge:ASP:83>  (466) 
0

>  <hydroph_interaction:ASN:152>  (466) 
0

>  <halogenbond:TYR:150>  (466) 
0

>  <hbond:ASP:83>  (466) 
0

>  <hydroph_interaction:VAL:155>  (466) 
0

>  <pication:TYR:161>  (466) 
0

>  <hbond:PRO:131>  (466) 
0

>  <hbond:LEU:128>  (466) 
0

>  <saltbridge:ASP:129>  (466) 
1

>  <hbond:THR:134>  (466) 
0

>  <pication:HIS:51>  (466) 
0

>  <hbond:SER:81>  (466) 
0

>  <hbond:GLY:159>  (466) 
0

>  <hydroph_interaction:PRO:101>  (466) 
0

>  <hydroph_interaction:THR:134>  (466) 
0

>  <hbond:GLY:82>  (466) 
0

>  <hydroph_interaction:GLU:104>  (466) 
0

>  <hydroph_interaction:VAL:36>  (466) 
0

>  <hydroph_interaction:MET:49>  (466) 
0

>  <halogenbond:GLU:104>  (466) 
0

>  <hydroph_interaction:LYS:107>  (466) 
0

$$$$
HXUUPZOOGIPDTN-UHFFFAOYSA-N
     RDKit          3D

 47 50  0  0  0  0  0  0  0  0999 V2000
   -6.5451    9.2044  -24.5477 C   0  0  0  0  0  0  0  0  0  0  0  0
   -6.8193    8.4071  -25.7117 N   0  0  0  0  0  0  0  0  0  0  0  0
   -7.2460    9.0158  -26.9771 C   0  0  0  0  0  0  0  0  0  0  0  0
   -7.2888    7.9894  -28.1368 C   0  0  0  0  0  0  0  0  0  0  0  0
   -8.5784    8.2748  -28.8066 C   0  0  0  0  0  0  0  0  0  0  0  0
   -9.3401    9.1708  -28.0985 C   0  0  0  0  0  0  0  0  0  0  0  0
  -10.6096    9.5491  -28.5428 C   0  0  0  0  0  0  0  0  0  0  0  0
  -11.0961    9.0015  -29.7400 C   0  0  0  0  0  0  0  0  0  0  0  0
  -10.3151    8.0844  -30.4662 C   0  0  0  0  0  0  0  0  0  0  0  0
   -9.0461    7.7116  -29.9967 C   0  0  0  0  0  0  0  0  0  0  0  0
   -8.6665    9.6144  -26.8571 C   0  0  0  0  0  0  0  0  0  0  0  0
   -6.4718   10.4594  -24.6557 O   0  0  0  0  0  0  0  0  0  0  0  0
   -6.3328    8.5756  -23.2224 C   0  0  0  0  0  0  0  0  0  0  0  0
   -6.8902    7.3218  -22.9172 C   0  0  0  0  0  0  0  0  0  0  0  0
   -6.6951    6.7455  -21.6590 C   0  0  0  0  0  0  0  0  0  0  0  0
   -5.9420    7.4110  -20.6764 C   0  0  0  0  0  0  0  0  0  0  0  0
   -5.7385    6.8004  -19.3379 C   0  0  0  0  0  0  0  0  0  0  0  0
   -4.4844    6.8705  -18.7058 C   0  0  0  0  0  0  0  0  0  0  0  0
   -4.2942    6.2961  -17.4475 C   0  0  0  0  0  0  0  0  0  0  0  0
   -5.3503    5.6478  -16.8048 C   0  0  0  0  0  0  0  0  0  0  0  0
   -6.6079    5.5666  -17.4118 C   0  0  0  0  0  0  0  0  0  0  0  0
   -7.6374    4.9080  -16.7227 O   0  0  0  0  0  0  0  0  0  0  0  0
   -8.9632    4.7484  -17.2169 C   0  0  0  0  0  0  0  0  0  0  0  0
   -6.7983    6.1454  -18.6824 C   0  0  0  0  0  0  0  0  0  0  0  0
   -5.3908    8.6675  -20.9796 C   0  0  0  0  0  0  0  0  0  0  0  0
   -5.5892    9.2458  -22.2363 C   0  0  0  0  0  0  0  0  0  0  0  0
   -6.6406    7.3791  -25.6685 H   0  0  0  0  0  0  0  0  0  0  0  0
   -6.5324    9.8241  -27.2555 H   0  0  0  0  0  0  0  0  0  0  0  0
   -7.2968    6.9381  -27.7778 H   0  0  0  0  0  0  0  0  0  0  0  0
   -6.4407    8.1438  -28.8383 H   0  0  0  0  0  0  0  0  0  0  0  0
  -11.2082   10.2497  -27.9753 H   0  0  0  0  0  0  0  0  0  0  0  0
  -12.0761    9.2830  -30.1032 H   0  0  0  0  0  0  0  0  0  0  0  0
  -10.6954    7.6616  -31.3870 H   0  0  0  0  0  0  0  0  0  0  0  0
   -8.4436    6.9998  -30.5460 H   0  0  0  0  0  0  0  0  0  0  0  0
   -8.6306   10.7237  -26.8031 H   0  0  0  0  0  0  0  0  0  0  0  0
   -9.2110    9.2050  -25.9785 H   0  0  0  0  0  0  0  0  0  0  0  0
   -7.4976    6.7918  -23.6385 H   0  0  0  0  0  0  0  0  0  0  0  0
   -7.1257    5.7725  -21.4581 H   0  0  0  0  0  0  0  0  0  0  0  0
   -3.6467    7.3543  -19.1923 H   0  0  0  0  0  0  0  0  0  0  0  0
   -3.3243    6.3508  -16.9701 H   0  0  0  0  0  0  0  0  0  0  0  0
   -5.1917    5.2062  -15.8291 H   0  0  0  0  0  0  0  0  0  0  0  0
   -9.5635    4.1889  -16.4706 H   0  0  0  0  0  0  0  0  0  0  0  0
   -9.4331    5.7417  -17.3779 H   0  0  0  0  0  0  0  0  0  0  0  0
   -8.9500    4.1727  -18.1666 H   0  0  0  0  0  0  0  0  0  0  0  0
   -7.7701    6.1059  -19.1551 H   0  0  0  0  0  0  0  0  0  0  0  0
   -4.8219    9.2132  -20.2373 H   0  0  0  0  0  0  0  0  0  0  0  0
   -5.1534   10.2162  -22.4394 H   0  0  0  0  0  0  0  0  0  0  0  0
  1  2  1  0
  2  3  1  0
  3  4  1  0
  4  5  1  0
  5  6  2  0
  6  7  1  0
  7  8  2  0
  8  9  1  0
  9 10  2  0
  6 11  1  0
  1 12  2  0
  1 13  1  0
 13 14  2  0
 14 15  1  0
 15 16  2  0
 16 17  1  0
 17 18  2  0
 18 19  1  0
 19 20  2  0
 20 21  1  0
 21 22  1  0
 22 23  1  0
 21 24  2  0
 16 25  1  0
 25 26  2  0
 11  3  1  0
 10  5  1  0
 26 13  1  0
 17 24  1  0
  2 27  1  0
  3 28  1  0
  4 29  1  0
  4 30  1  0
  7 31  1  0
  8 32  1  0
  9 33  1  0
 10 34  1  0
 11 35  1  0
 11 36  1  0
 14 37  1  0
 15 38  1  0
 18 39  1  0
 19 40  1  0
 20 41  1  0
 23 42  1  0
 23 43  1  0
 23 44  1  0
 24 45  1  0
 25 46  1  0
 26 47  1  0
A    1
 C1 
A    2
 N1 
A    3
 C2 
A    4
 C3 
A    5
 C4 
A    6
 C5 
A    7
 C6 
A    8
 C7 
A    9
 C8 
A   10
 C9 
A   11
 C10
A   12
 O1 
A   13
 C11
A   14
 C12
A   15
 C13
A   16
 C14
A   17
 C15
A   18
 C16
A   19
 C17
A   20
 C18
A   21
 C19
A   22
 O2 
A   23
 C20
A   24
 C21
A   25
 C22
A   26
 C23
A   27
 H1 
A   28
 H2 
A   29
 H3 
A   30
 H4 
A   31
 H5 
A   32
 H6 
A   33
 H7 
A   34
 H8 
A   35
 H9 
A   36
 H10
A   37
 H11
A   38
 H12
A   39
 H13
A   40
 H14
A   41
 H15
A   42
 H16
A   43
 H17
A   44
 H18
A   45
 H19
A   46
 H20
A   47
 H21
M  END
>  <ref_pdb>  (467) 
x0051_0B

>  <ref_mols>  (467) 
x0846_1B,x0425_0B

>  <original SMILES>  (467) 
[H]c1c([H])c(OC([H])([H])[H])c([H])c(-c2c([H])c([H])c(C(=O)N([H])C3([H])C([H])([H])c4c([H])c([H])c([H])c([H])c4C3([H])[H])c([H])c2[H])c1[H]

>  <index>  (467) 
836

>  <∆∆G>  (467) 
-9.559747

>  <∆G_bound>  (467) 
-9.547888

>  <∆G_unbound>  (467) 
0.011859

>  <comRMSD>  (467) 
0.683144

>  <N_constrained_atoms>  (467) 
27.0

>  <N_unconstrained_atoms>  (467) 
1.0

>  <runtime>  (467) 
58.325923

>  <LE>  (467) 
0.34142

>  <percent_hybrid>  (467) 
34.0

>  <dist>  (467) 
12.0

>  <ecfp4>  (467) 
0.130435

>  <daylight>  (467) 
0.221239

>  <topodist>  (467) 
6.0

>  <mces>  (467) 
28.0

>  <tdn>  (467) 
4.0

>  <tup>  (467) 
1.0

>  <rdn>  (467) 
0.0

>  <rup>  (467) 
0.0

>  <ldn>  (467) 
1.0

>  <lup>  (467) 
0.0

>  <mut>  (467) 
4.0

>  <maj>  (467) 
4.0

>  <min>  (467) 
0.0

>  <hyb>  (467) 
2.0

>  <sub>  (467) 
2.0

>  <query_index>  (467) 
25.0

>  <max_hit_Tanimoto>  (467) 
0.222791

>  <largest_ring>  (467) 
6

>  <N_interactions_kept>  (467) 
0.5

>  <N_interactions_lost>  (467) 
2.0

>  <interaction_uniqueness_metric>  (467) 
0.14019

>  <ad_hoc_penalty>  (467) 
-17.966777

>  <N_rotatable_bonds>  (467) 
5

>  <N_HA>  (467) 
26

>  <cluster>  (467) 
5453

>  <N_interactions>  (467) 
4

>  <Enamine>  (467) 
0

>  <Mcule>  (467) 
1

>  <N_PAINS>  (467) 
0

>  <UFF_Gibbs>  (467) 
101.893562

>  <strain_per_HA>  (467) 
3.639056

>  <saltbridge:HIS:51>  (467) 
0

>  <pistack:HIS:51>  (467) 
0

>  <hydroph_interaction:HIS:51>  (467) 
0

>  <hbond:ALA:132>  (467) 
0

>  <hbond:SER:135>  (467) 
0

>  <hydroph_interaction:TYR:150>  (467) 
0

>  <pistack:TYR:161>  (467) 
1

>  <hydroph_interaction:TYR:161>  (467) 
0

>  <hydroph_interaction:ASP:83>  (467) 
0

>  <hbond:TYR:130>  (467) 
0

>  <hydroph_interaction:ALA:132>  (467) 
1

>  <hbond:HIS:51>  (467) 
0

>  <hbond:ASP:129>  (467) 
0

>  <hbond:TYR:150>  (467) 
0

>  <hbond:GLY:151>  (467) 
0

>  <hbond:TYR:161>  (467) 
0

>  <hydroph_interaction:TYR:130>  (467) 
1

>  <hydroph_interaction:PRO:131>  (467) 
1

>  <hydroph_interaction:ASP:129>  (467) 
0

>  <saltbridge:ASP:75>  (467) 
0

>  <saltbridge:ASP:83>  (467) 
0

>  <hydroph_interaction:ASN:152>  (467) 
0

>  <halogenbond:TYR:150>  (467) 
0

>  <hbond:ASP:83>  (467) 
0

>  <hydroph_interaction:VAL:155>  (467) 
0

>  <pication:TYR:161>  (467) 
0

>  <hbond:PRO:131>  (467) 
0

>  <hbond:LEU:128>  (467) 
0

>  <saltbridge:ASP:129>  (467) 
0

>  <hbond:THR:134>  (467) 
0

>  <pication:HIS:51>  (467) 
0

>  <hbond:SER:81>  (467) 
0

>  <hbond:GLY:159>  (467) 
0

>  <hydroph_interaction:PRO:101>  (467) 
0

>  <hydroph_interaction:THR:134>  (467) 
0

>  <hbond:GLY:82>  (467) 
0

>  <hydroph_interaction:GLU:104>  (467) 
0

>  <hydroph_interaction:VAL:36>  (467) 
0

>  <hydroph_interaction:MET:49>  (467) 
0

>  <halogenbond:GLU:104>  (467) 
0

>  <hydroph_interaction:LYS:107>  (467) 
0

$$$$
Z2079167915
     RDKit          3D

 44 48  0  0  0  0  0  0  0  0999 V2000
   -6.7308    4.7012  -22.3702 O   0  0  0  0  0  0  0  0  0  0  0  0
   -6.5893    5.6369  -21.5367 C   0  0  0  0  0  0  0  0  0  0  0  0
   -7.0700    6.9940  -21.8829 C   0  0  0  0  0  0  0  0  0  0  0  0
   -8.1558    7.1557  -22.7609 C   0  0  0  0  0  0  0  0  0  0  0  0
   -8.6083    8.4343  -23.0977 C   0  0  0  0  0  0  0  0  0  0  0  0
   -7.9701    9.5658  -22.5776 C   0  0  0  0  0  0  0  0  0  0  0  0
   -8.5407   11.2076  -23.0300 S   0  0  0  0  0  0  0  0  0  0  0  0
   -7.3636   11.4134  -24.4117 C   0  0  0  0  0  0  0  0  0  0  0  0
   -7.6885   10.4725  -25.5278 C   0  0  0  0  0  0  0  0  0  0  0  0
   -6.9503    9.3619  -25.7952 N   0  0  0  0  0  0  0  0  0  0  0  0
   -7.6347    8.7881  -26.8004 C   0  0  0  0  0  0  0  0  0  0  0  0
   -7.3378    7.6005  -27.4645 C   0  0  0  0  0  0  0  0  0  0  0  0
   -8.2180    7.1826  -28.4814 C   0  0  0  0  0  0  0  0  0  0  0  0
   -9.3605    7.9531  -28.8011 C   0  0  0  0  0  0  0  0  0  0  0  0
   -9.6322    9.1470  -28.1062 C   0  0  0  0  0  0  0  0  0  0  0  0
   -8.7369    9.5284  -27.1098 C   0  0  0  0  0  0  0  0  0  0  0  0
   -8.7883   10.6004  -26.3108 N   0  0  0  0  0  0  0  0  0  0  0  0
   -6.8864    9.4144  -21.7069 C   0  0  0  0  0  0  0  0  0  0  0  0
   -6.4328    8.1368  -21.3665 C   0  0  0  0  0  0  0  0  0  0  0  0
   -5.9448    5.3663  -20.2817 N   0  0  0  0  0  0  0  0  0  0  0  0
   -5.0900    4.2042  -20.0026 C   0  0  0  0  0  0  0  0  0  0  0  0
   -4.9323    4.1628  -18.4549 C   0  0  0  0  0  0  0  0  0  0  0  0
   -5.7082    5.3041  -18.0096 N   0  0  0  0  0  0  0  0  0  0  0  0
   -6.4479    5.4203  -16.9217 N   0  0  0  0  0  0  0  0  0  0  0  0
   -7.4799    6.2327  -17.2519 C   0  0  0  0  0  0  0  0  0  0  0  0
   -7.4302    6.5412  -18.6085 C   0  0  0  0  0  0  0  0  0  0  0  0
   -6.2683    5.9267  -19.0232 C   0  0  0  0  0  0  0  0  0  0  0  0
   -8.6609    6.2929  -23.1776 H   0  0  0  0  0  0  0  0  0  0  0  0
   -9.4478    8.5445  -23.7725 H   0  0  0  0  0  0  0  0  0  0  0  0
   -7.4348   12.4560  -24.7854 H   0  0  0  0  0  0  0  0  0  0  0  0
   -6.3251   11.2454  -24.0548 H   0  0  0  0  0  0  0  0  0  0  0  0
   -6.4637    7.0167  -27.2065 H   0  0  0  0  0  0  0  0  0  0  0  0
   -8.0201    6.2649  -29.0198 H   0  0  0  0  0  0  0  0  0  0  0  0
  -10.0314    7.6217  -29.5829 H   0  0  0  0  0  0  0  0  0  0  0  0
  -10.5050    9.7438  -28.3368 H   0  0  0  0  0  0  0  0  0  0  0  0
   -9.5171   11.3482  -26.2820 H   0  0  0  0  0  0  0  0  0  0  0  0
   -6.3860   10.2856  -21.3039 H   0  0  0  0  0  0  0  0  0  0  0  0
   -5.5757    8.0438  -20.7120 H   0  0  0  0  0  0  0  0  0  0  0  0
   -4.1036    4.3335  -20.4974 H   0  0  0  0  0  0  0  0  0  0  0  0
   -5.5775    3.2727  -20.3639 H   0  0  0  0  0  0  0  0  0  0  0  0
   -5.3558    3.2223  -18.0404 H   0  0  0  0  0  0  0  0  0  0  0  0
   -3.8701    4.2814  -18.1521 H   0  0  0  0  0  0  0  0  0  0  0  0
   -8.2834    6.4926  -16.5761 H   0  0  0  0  0  0  0  0  0  0  0  0
   -8.2013    7.0050  -19.2084 H   0  0  0  0  0  0  0  0  0  0  0  0
  1  2  2  0
  2  3  1  0
  3  4  2  0
  4  5  1  0
  5  6  2  0
  6  7  1  0
  7  8  1  0
  8  9  1  0
  9 10  2  0
 10 11  1  0
 11 12  2  0
 12 13  1  0
 13 14  2  0
 14 15  1  0
 15 16  2  0
 16 17  1  0
  6 18  1  0
 18 19  2  0
  2 20  1  0
 20 21  1  0
 21 22  1  0
 22 23  1  0
 23 24  1  0
 24 25  2  0
 25 26  1  0
 26 27  2  0
 19  3  1  0
 17  9  1  0
 16 11  1  0
 27 20  1  0
 27 23  1  0
  4 28  1  0
  5 29  1  0
  8 30  1  0
  8 31  1  0
 12 32  1  0
 13 33  1  0
 14 34  1  0
 15 35  1  0
 17 36  1  0
 18 37  1  0
 19 38  1  0
 21 39  1  0
 21 40  1  0
 22 41  1  0
 22 42  1  0
 25 43  1  0
 26 44  1  0
A    1
 O1 
A    2
 C1 
A    3
 C2 
A    4
 C3 
A    5
 C4 
A    6
 C5 
A    7
 S1 
A    8
 C6 
A    9
 C7 
A   10
 N1 
A   11
 C8 
A   12
 C9 
A   13
 C10
A   14
 C11
A   15
 C12
A   16
 C13
A   17
 N2 
A   18
 C14
A   19
 C15
A   20
 N3 
A   21
 C16
A   22
 C17
A   23
 N4 
A   24
 N5 
A   25
 C18
A   26
 C19
A   27
 C20
A   28
 H1 
A   29
 H2 
A   30
 H3 
A   31
 H4 
A   32
 H5 
A   33
 H6 
A   34
 H7 
A   35
 H8 
A   36
 H9 
A   37
 H10
A   38
 H11
A   39
 H12
A   40
 H13
A   41
 H14
A   42
 H15
A   43
 H16
A   44
 H17
M  END
>  <ref_pdb>  (468) 
x0051_0B

>  <ref_mols>  (468) 
x0846_1B,x0969_0B

>  <original SMILES>  (468) 
[H]c1nn2c(c1[H])N(C(=O)c1c([H])c([H])c(SC([H])([H])c3nc4c([H])c([H])c([H])c([H])c4n3[H])c([H])c1[H])C([H])([H])C2([H])[H]

>  <index>  (468) 
796

>  <∆∆G>  (468) 
-6.912292

>  <∆G_bound>  (468) 
-6.542471

>  <∆G_unbound>  (468) 
0.36982

>  <comRMSD>  (468) 
0.992302

>  <N_constrained_atoms>  (468) 
28.0

>  <N_unconstrained_atoms>  (468) 
2.0

>  <runtime>  (468) 
44.290019

>  <LE>  (468) 
0.23041

>  <percent_hybrid>  (468) 
36.0

>  <dist>  (468) 
7.0

>  <ecfp4>  (468) 
0.247312

>  <daylight>  (468) 
0.389937

>  <topodist>  (468) 
4.0

>  <mces>  (468) 
30.0

>  <tdn>  (468) 
2.0

>  <tup>  (468) 
1.0

>  <rdn>  (468) 
0.0

>  <rup>  (468) 
0.0

>  <ldn>  (468) 
1.0

>  <lup>  (468) 
0.0

>  <mut>  (468) 
3.0

>  <maj>  (468) 
3.0

>  <min>  (468) 
0.0

>  <hyb>  (468) 
0.0

>  <sub>  (468) 
2.0

>  <query_index>  (468) 
45.0

>  <max_hit_Tanimoto>  (468) 
0.273219

>  <largest_ring>  (468) 
6

>  <N_interactions_kept>  (468) 
0.5

>  <N_interactions_lost>  (468) 
2.0

>  <interaction_uniqueness_metric>  (468) 
0.18165

>  <ad_hoc_penalty>  (468) 
-17.952194

>  <N_rotatable_bonds>  (468) 
4

>  <N_HA>  (468) 
27

>  <cluster>  (468) 
5488

>  <N_interactions>  (468) 
5

>  <Enamine>  (468) 
1

>  <Mcule>  (468) 
0

>  <N_PAINS>  (468) 
0

>  <UFF_Gibbs>  (468) 
128.727318

>  <strain_per_HA>  (468) 
4.290911

>  <saltbridge:HIS:51>  (468) 
0

>  <pistack:HIS:51>  (468) 
0

>  <hydroph_interaction:HIS:51>  (468) 
0

>  <hbond:ALA:132>  (468) 
0

>  <hbond:SER:135>  (468) 
0

>  <hydroph_interaction:TYR:150>  (468) 
0

>  <pistack:TYR:161>  (468) 
1

>  <hydroph_interaction:TYR:161>  (468) 
0

>  <hydroph_interaction:ASP:83>  (468) 
0

>  <hbond:TYR:130>  (468) 
1

>  <hydroph_interaction:ALA:132>  (468) 
0

>  <hbond:HIS:51>  (468) 
0

>  <hbond:ASP:129>  (468) 
1

>  <hbond:TYR:150>  (468) 
0

>  <hbond:GLY:151>  (468) 
0

>  <hbond:TYR:161>  (468) 
0

>  <hydroph_interaction:TYR:130>  (468) 
1

>  <hydroph_interaction:PRO:131>  (468) 
1

>  <hydroph_interaction:ASP:129>  (468) 
0

>  <saltbridge:ASP:75>  (468) 
0

>  <saltbridge:ASP:83>  (468) 
0

>  <hydroph_interaction:ASN:152>  (468) 
0

>  <halogenbond:TYR:150>  (468) 
0

>  <hbond:ASP:83>  (468) 
0

>  <hydroph_interaction:VAL:155>  (468) 
0

>  <pication:TYR:161>  (468) 
0

>  <hbond:PRO:131>  (468) 
0

>  <hbond:LEU:128>  (468) 
0

>  <saltbridge:ASP:129>  (468) 
0

>  <hbond:THR:134>  (468) 
0

>  <pication:HIS:51>  (468) 
0

>  <hbond:SER:81>  (468) 
0

>  <hbond:GLY:159>  (468) 
0

>  <hydroph_interaction:PRO:101>  (468) 
0

>  <hydroph_interaction:THR:134>  (468) 
0

>  <hbond:GLY:82>  (468) 
0

>  <hydroph_interaction:GLU:104>  (468) 
0

>  <hydroph_interaction:VAL:36>  (468) 
0

>  <hydroph_interaction:MET:49>  (468) 
0

>  <halogenbond:GLU:104>  (468) 
0

>  <hydroph_interaction:LYS:107>  (468) 
0

$$$$
Z851427160
     RDKit          3D

 37 38  0  0  0  0  0  0  0  0999 V2000
   -5.2548    5.3812  -21.9221 C   0  0  0  0  0  0  0  0  0  0  0  0
   -4.0697    6.1043  -21.2603 C   0  0  0  0  0  0  0  0  0  0  0  0
   -3.0231    6.4968  -22.3124 C   0  0  0  0  0  0  0  0  0  0  0  0
   -4.4935    7.3248  -20.3943 C   0  0  0  0  0  0  0  0  0  0  0  0
   -5.3672    8.3565  -21.1221 C   0  0  0  0  0  0  0  0  0  0  0  0
   -6.7866    8.1479  -20.6025 C   0  0  0  0  0  0  0  0  0  0  0  0
   -6.6461    7.4073  -19.2791 C   0  0  0  0  0  0  0  0  0  0  0  0
   -5.2861    6.8893  -19.2494 N   0  0  0  0  0  0  0  0  0  0  0  0
   -4.6954    6.3204  -18.0644 C   0  0  0  0  0  0  0  0  0  0  0  0
   -3.4478    6.3768  -17.8965 O   0  0  0  0  0  0  0  0  0  0  0  0
   -5.5067    5.7300  -17.0409 N   0  0  0  0  0  0  0  0  0  0  0  0
   -6.5958    4.8371  -17.3225 C   0  0  0  0  0  0  0  0  0  0  0  0
   -6.5255    3.9537  -18.4150 C   0  0  0  0  0  0  0  0  0  0  0  0
   -7.5763    3.0729  -18.6809 C   0  0  0  0  0  0  0  0  0  0  0  0
   -8.7012    3.0567  -17.8545 C   0  0  0  0  0  0  0  0  0  0  0  0
   -8.7771    3.9209  -16.7595 C   0  0  0  0  0  0  0  0  0  0  0  0
   -7.7294    4.8081  -16.4862 C   0  0  0  0  0  0  0  0  0  0  0  0
   -7.9008    5.9967  -14.9937 Br  0  0  0  0  0  0  0  0  0  0  0  0
   -4.9026    4.4441  -22.4045 H   0  0  0  0  0  0  0  0  0  0  0  0
   -6.0213    5.1097  -21.1678 H   0  0  0  0  0  0  0  0  0  0  0  0
   -5.7283    6.0124  -22.7023 H   0  0  0  0  0  0  0  0  0  0  0  0
   -3.5783    5.3717  -20.5823 H   0  0  0  0  0  0  0  0  0  0  0  0
   -2.6566    5.5899  -22.8398 H   0  0  0  0  0  0  0  0  0  0  0  0
   -3.4474    7.1930  -23.0655 H   0  0  0  0  0  0  0  0  0  0  0  0
   -2.1516    6.9834  -21.8247 H   0  0  0  0  0  0  0  0  0  0  0  0
   -3.5778    7.8416  -20.0276 H   0  0  0  0  0  0  0  0  0  0  0  0
   -5.0311    9.3800  -20.8434 H   0  0  0  0  0  0  0  0  0  0  0  0
   -5.3294    8.2760  -22.2283 H   0  0  0  0  0  0  0  0  0  0  0  0
   -7.3592    7.5231  -21.3229 H   0  0  0  0  0  0  0  0  0  0  0  0
   -7.3127    9.1182  -20.4686 H   0  0  0  0  0  0  0  0  0  0  0  0
   -7.3844    6.5808  -19.2266 H   0  0  0  0  0  0  0  0  0  0  0  0
   -6.8004    8.1060  -18.4283 H   0  0  0  0  0  0  0  0  0  0  0  0
   -5.2081    5.8577  -16.0479 H   0  0  0  0  0  0  0  0  0  0  0  0
   -5.6497    3.9353  -19.0499 H   0  0  0  0  0  0  0  0  0  0  0  0
   -7.5151    2.3979  -19.5250 H   0  0  0  0  0  0  0  0  0  0  0  0
   -9.5136    2.3724  -18.0610 H   0  0  0  0  0  0  0  0  0  0  0  0
   -9.6536    3.9024  -16.1245 H   0  0  0  0  0  0  0  0  0  0  0  0
  1  2  1  0
  2  3  1  0
  2  4  1  0
  4  5  1  0
  5  6  1  0
  6  7  1  0
  7  8  1  0
  8  9  1  0
  9 10  2  0
  9 11  1  0
 11 12  1  0
 12 13  2  0
 13 14  1  0
 14 15  2  0
 15 16  1  0
 16 17  2  0
 17 18  1  0
  8  4  1  0
 17 12  1  0
  1 19  1  0
  1 20  1  0
  1 21  1  0
  2 22  1  0
  3 23  1  0
  3 24  1  0
  3 25  1  0
  4 26  1  0
  5 27  1  0
  5 28  1  0
  6 29  1  0
  6 30  1  0
  7 31  1  0
  7 32  1  0
 11 33  1  0
 13 34  1  0
 14 35  1  0
 15 36  1  0
 16 37  1  0
A    1
 C1 
A    2
 C2 
A    3
 C3 
A    4
 C4 
A    5
 C5 
A    6
 C6 
A    7
 C7 
A    8
 N1 
A    9
 C8 
A   10
 O1 
A   11
 N2 
A   12
 C9 
A   13
 C10
A   14
 C11
A   15
 C12
A   16
 C13
A   17
 C14
A   18
BR1 
A   19
 H1 
A   20
 H2 
A   21
 H3 
A   22
 H4 
A   23
 H5 
A   24
 H6 
A   25
 H7 
A   26
 H8 
A   27
 H9 
A   28
 H10
A   29
 H11
A   30
 H12
A   31
 H13
A   32
 H14
A   33
 H15
A   34
 H16
A   35
 H17
A   36
 H18
A   37
 H19
M  END
>  <ref_pdb>  (469) 
x0051_0B

>  <ref_mols>  (469) 
x0229_0B,x0904_0B

>  <original SMILES>  (469) 
[H]c1c([H])c([H])c(N([H])C(=O)N2C([H])([H])C([H])([H])C([H])([H])C2([H])C([H])(C([H])([H])[H])C([H])([H])[H])c(Br)c1[H]

>  <index>  (469) 
358

>  <∆∆G>  (469) 
-7.845156

>  <∆G_bound>  (469) 
-7.23627

>  <∆G_unbound>  (469) 
0.608886

>  <comRMSD>  (469) 
0.800463

>  <N_constrained_atoms>  (469) 
20.0

>  <N_unconstrained_atoms>  (469) 
1.0

>  <runtime>  (469) 
43.39736

>  <LE>  (469) 
0.373579

>  <percent_hybrid>  (469) 
46.0

>  <dist>  (469) 
5.0

>  <ecfp4>  (469) 
0.238806

>  <daylight>  (469) 
0.251462

>  <topodist>  (469) 
2.0

>  <mces>  (469) 
19.0

>  <tdn>  (469) 
1.0

>  <tup>  (469) 
0.0

>  <rdn>  (469) 
1.0

>  <rup>  (469) 
0.0

>  <ldn>  (469) 
0.0

>  <lup>  (469) 
0.0

>  <mut>  (469) 
3.0

>  <maj>  (469) 
3.0

>  <min>  (469) 
0.0

>  <hyb>  (469) 
0.0

>  <sub>  (469) 
1.0

>  <query_index>  (469) 
66.0

>  <max_hit_Tanimoto>  (469) 
0.264423

>  <largest_ring>  (469) 
6

>  <N_interactions_kept>  (469) 
2.0

>  <N_interactions_lost>  (469) 
1.5

>  <interaction_uniqueness_metric>  (469) 
0.068525

>  <ad_hoc_penalty>  (469) 
-17.947106

>  <N_rotatable_bonds>  (469) 
4

>  <N_HA>  (469) 
18

>  <cluster>  (469) 
5891

>  <N_interactions>  (469) 
5

>  <Enamine>  (469) 
1

>  <Mcule>  (469) 
0

>  <N_PAINS>  (469) 
0

>  <UFF_Gibbs>  (469) 
183.188836

>  <strain_per_HA>  (469) 
8.723278

>  <saltbridge:HIS:51>  (469) 
0

>  <pistack:HIS:51>  (469) 
0

>  <hydroph_interaction:HIS:51>  (469) 
0

>  <hbond:ALA:132>  (469) 
0

>  <hbond:SER:135>  (469) 
0

>  <hydroph_interaction:TYR:150>  (469) 
1

>  <pistack:TYR:161>  (469) 
0

>  <hydroph_interaction:TYR:161>  (469) 
3

>  <hydroph_interaction:ASP:83>  (469) 
0

>  <hbond:TYR:130>  (469) 
0

>  <hydroph_interaction:ALA:132>  (469) 
0

>  <hbond:HIS:51>  (469) 
0

>  <hbond:ASP:129>  (469) 
0

>  <hbond:TYR:150>  (469) 
0

>  <hbond:GLY:151>  (469) 
0

>  <hbond:TYR:161>  (469) 
0

>  <hydroph_interaction:TYR:130>  (469) 
0

>  <hydroph_interaction:PRO:131>  (469) 
0

>  <hydroph_interaction:ASP:129>  (469) 
1

>  <saltbridge:ASP:75>  (469) 
0

>  <saltbridge:ASP:83>  (469) 
0

>  <hydroph_interaction:ASN:152>  (469) 
0

>  <halogenbond:TYR:150>  (469) 
0

>  <hbond:ASP:83>  (469) 
0

>  <hydroph_interaction:VAL:155>  (469) 
0

>  <pication:TYR:161>  (469) 
0

>  <hbond:PRO:131>  (469) 
0

>  <hbond:LEU:128>  (469) 
0

>  <saltbridge:ASP:129>  (469) 
0

>  <hbond:THR:134>  (469) 
0

>  <pication:HIS:51>  (469) 
0

>  <hbond:SER:81>  (469) 
0

>  <hbond:GLY:159>  (469) 
0

>  <hydroph_interaction:PRO:101>  (469) 
0

>  <hydroph_interaction:THR:134>  (469) 
0

>  <hbond:GLY:82>  (469) 
0

>  <hydroph_interaction:GLU:104>  (469) 
0

>  <hydroph_interaction:VAL:36>  (469) 
0

>  <hydroph_interaction:MET:49>  (469) 
0

>  <halogenbond:GLU:104>  (469) 
0

>  <hydroph_interaction:LYS:107>  (469) 
0

$$$$
DYPOVQRUEYSIOS-UHFFFAOYSA-N
     RDKit          3D

 49 53  0  0  0  0  0  0  0  0999 V2000
   -6.2801    9.9919  -23.9714 C   0  0  0  0  0  0  0  0  0  0  0  0
   -6.1768    9.2546  -25.2041 N   0  0  0  0  0  0  0  0  0  0  0  0
   -6.3766    9.8807  -26.5083 C   0  0  0  0  0  0  0  0  0  0  0  0
   -7.7804    9.6526  -26.9687 C   0  0  0  0  0  0  0  0  0  0  0  0
   -8.1054    8.7360  -27.9209 N   0  0  0  0  0  0  0  0  0  0  0  0
   -9.4459    8.8361  -27.9833 C   0  0  0  0  0  0  0  0  0  0  0  0
   -9.8956    9.7700  -27.0962 C   0  0  0  0  0  0  0  0  0  0  0  0
  -11.2501   10.0517  -26.9377 C   0  0  0  0  0  0  0  0  0  0  0  0
  -12.1614    9.3352  -27.7389 C   0  0  0  0  0  0  0  0  0  0  0  0
  -11.6977    8.3740  -28.6656 C   0  0  0  0  0  0  0  0  0  0  0  0
  -10.3189    8.1116  -28.7923 C   0  0  0  0  0  0  0  0  0  0  0  0
   -8.8529   10.2970  -26.4430 N   0  0  0  0  0  0  0  0  0  0  0  0
   -6.5628   11.2240  -23.9991 O   0  0  0  0  0  0  0  0  0  0  0  0
   -6.0822    9.3302  -22.6601 C   0  0  0  0  0  0  0  0  0  0  0  0
   -5.3353    8.1432  -22.5426 C   0  0  0  0  0  0  0  0  0  0  0  0
   -5.1679    7.5317  -21.2945 C   0  0  0  0  0  0  0  0  0  0  0  0
   -5.7606    8.0848  -20.1475 C   0  0  0  0  0  0  0  0  0  0  0  0
   -5.6140    7.4180  -18.8032 C   0  0  0  0  0  0  0  0  0  0  0  0
   -5.7908    5.9729  -18.9098 N   0  0  0  0  0  0  0  0  0  0  0  0
   -5.1946    4.9999  -18.0440 C   0  0  0  0  0  0  0  0  0  0  0  0
   -4.1881    5.2191  -17.3180 O   0  0  0  0  0  0  0  0  0  0  0  0
   -5.9401    3.7462  -18.0982 C   0  0  0  0  0  0  0  0  0  0  0  0
   -7.0117    3.9362  -18.9421 C   0  0  0  0  0  0  0  0  0  0  0  0
   -7.9187    2.9121  -19.2114 C   0  0  0  0  0  0  0  0  0  0  0  0
   -7.7162    1.6695  -18.5794 C   0  0  0  0  0  0  0  0  0  0  0  0
   -6.6247    1.4817  -17.7026 C   0  0  0  0  0  0  0  0  0  0  0  0
   -5.7249    2.5303  -17.4521 C   0  0  0  0  0  0  0  0  0  0  0  0
   -6.9483    5.3098  -19.4344 C   0  0  0  0  0  0  0  0  0  0  0  0
   -7.7922    5.8502  -20.2002 O   0  0  0  0  0  0  0  0  0  0  0  0
   -6.4596    9.2959  -20.2531 C   0  0  0  0  0  0  0  0  0  0  0  0
   -6.6173    9.9125  -21.4958 C   0  0  0  0  0  0  0  0  0  0  0  0
   -6.1330    8.2116  -25.1792 H   0  0  0  0  0  0  0  0  0  0  0  0
   -5.6658    9.4347  -27.2381 H   0  0  0  0  0  0  0  0  0  0  0  0
   -6.1687   10.9708  -26.4624 H   0  0  0  0  0  0  0  0  0  0  0  0
  -11.5928   10.7928  -26.2267 H   0  0  0  0  0  0  0  0  0  0  0  0
  -13.2222    9.5239  -27.6432 H   0  0  0  0  0  0  0  0  0  0  0  0
  -12.4071    7.8269  -29.2738 H   0  0  0  0  0  0  0  0  0  0  0  0
   -9.9524    7.3721  -29.4936 H   0  0  0  0  0  0  0  0  0  0  0  0
   -8.8642   11.0208  -25.6903 H   0  0  0  0  0  0  0  0  0  0  0  0
   -4.8634    7.6927  -23.4064 H   0  0  0  0  0  0  0  0  0  0  0  0
   -4.5999    6.6114  -21.2266 H   0  0  0  0  0  0  0  0  0  0  0  0
   -4.6000    7.6436  -18.4152 H   0  0  0  0  0  0  0  0  0  0  0  0
   -6.3518    7.8164  -18.0754 H   0  0  0  0  0  0  0  0  0  0  0  0
   -8.7561    3.0678  -19.8799 H   0  0  0  0  0  0  0  0  0  0  0  0
   -8.4065    0.8563  -18.7633 H   0  0  0  0  0  0  0  0  0  0  0  0
   -6.4747    0.5193  -17.2285 H   0  0  0  0  0  0  0  0  0  0  0  0
   -4.8913    2.3979  -16.7694 H   0  0  0  0  0  0  0  0  0  0  0  0
   -6.8861    9.7631  -19.3706 H   0  0  0  0  0  0  0  0  0  0  0  0
   -7.1821   10.8354  -21.5480 H   0  0  0  0  0  0  0  0  0  0  0  0
  1  2  1  0
  2  3  1  0
  3  4  1  0
  4  5  2  0
  5  6  1  0
  6  7  2  0
  7  8  1  0
  8  9  2  0
  9 10  1  0
 10 11  2  0
  7 12  1  0
  1 13  2  0
  1 14  1  0
 14 15  2  0
 15 16  1  0
 16 17  2  0
 17 18  1  0
 18 19  1  0
 19 20  1  0
 20 21  2  0
 20 22  1  0
 22 23  2  0
 23 24  1  0
 24 25  2  0
 25 26  1  0
 26 27  2  0
 23 28  1  0
 28 29  2  0
 17 30  1  0
 30 31  2  0
 12  4  1  0
 11  6  1  0
 31 14  1  0
 28 19  1  0
 27 22  1  0
  2 32  1  0
  3 33  1  0
  3 34  1  0
  8 35  1  0
  9 36  1  0
 10 37  1  0
 11 38  1  0
 12 39  1  0
 15 40  1  0
 16 41  1  0
 18 42  1  0
 18 43  1  0
 24 44  1  0
 25 45  1  0
 26 46  1  0
 27 47  1  0
 30 48  1  0
 31 49  1  0
A    1
 C1 
A    2
 N1 
A    3
 C2 
A    4
 C3 
A    5
 N2 
A    6
 C4 
A    7
 C5 
A    8
 C6 
A    9
 C7 
A   10
 C8 
A   11
 C9 
A   12
 N3 
A   13
 O1 
A   14
 C10
A   15
 C11
A   16
 C12
A   17
 C13
A   18
 C14
A   19
 N4 
A   20
 C15
A   21
 O2 
A   22
 C16
A   23
 C17
A   24
 C18
A   25
 C19
A   26
 C20
A   27
 C21
A   28
 C22
A   29
 O3 
A   30
 C23
A   31
 C24
A   32
 H1 
A   33
 H2 
A   34
 H3 
A   35
 H4 
A   36
 H5 
A   37
 H6 
A   38
 H7 
A   39
 H8 
A   40
 H9 
A   41
 H10
A   42
 H11
A   43
 H12
A   44
 H13
A   45
 H14
A   46
 H15
A   47
 H16
A   48
 H17
A   49
 H18
M  END
>  <ref_pdb>  (470) 
x0051_0B

>  <ref_mols>  (470) 
x0727_0B,x0846_1B

>  <original SMILES>  (470) 
[H]c1c([H])c([H])c2c(c1[H])C(=O)N(C([H])([H])c1c([H])c([H])c(C(=O)N([H])C([H])([H])c3nc4c([H])c([H])c([H])c([H])c4n3[H])c([H])c1[H])C2=O

>  <index>  (470) 
745

>  <∆∆G>  (470) 
-9.771684

>  <∆G_bound>  (470) 
-9.100892

>  <∆G_unbound>  (470) 
0.670792

>  <comRMSD>  (470) 
0.948872

>  <N_constrained_atoms>  (470) 
29.0

>  <N_unconstrained_atoms>  (470) 
2.0

>  <runtime>  (470) 
44.8391

>  <LE>  (470) 
0.315216

>  <percent_hybrid>  (470) 
38.0

>  <dist>  (470) 
10.0

>  <ecfp4>  (470) 
0.232558

>  <daylight>  (470) 
0.275556

>  <topodist>  (470) 
7.0

>  <mces>  (470) 
32.0

>  <tdn>  (470) 
2.0

>  <tup>  (470) 
2.0

>  <rdn>  (470) 
0.0

>  <rup>  (470) 
0.0

>  <ldn>  (470) 
2.0

>  <lup>  (470) 
1.0

>  <mut>  (470) 
2.0

>  <maj>  (470) 
2.0

>  <min>  (470) 
0.0

>  <hyb>  (470) 
1.0

>  <sub>  (470) 
2.0

>  <query_index>  (470) 
15.0

>  <max_hit_Tanimoto>  (470) 
0.316819

>  <largest_ring>  (470) 
6

>  <N_interactions_kept>  (470) 
0.5

>  <N_interactions_lost>  (470) 
2.5

>  <interaction_uniqueness_metric>  (470) 
0.1581

>  <ad_hoc_penalty>  (470) 
-17.929399

>  <N_rotatable_bonds>  (470) 
5

>  <N_HA>  (470) 
31

>  <cluster>  (470) 
5537

>  <N_interactions>  (470) 
5

>  <Enamine>  (470) 
0

>  <Mcule>  (470) 
1

>  <N_PAINS>  (470) 
0

>  <UFF_Gibbs>  (470) 
144.598817

>  <strain_per_HA>  (470) 
4.664478

>  <saltbridge:HIS:51>  (470) 
0

>  <pistack:HIS:51>  (470) 
0

>  <hydroph_interaction:HIS:51>  (470) 
0

>  <hbond:ALA:132>  (470) 
0

>  <hbond:SER:135>  (470) 
0

>  <hydroph_interaction:TYR:150>  (470) 
1

>  <pistack:TYR:161>  (470) 
1

>  <hydroph_interaction:TYR:161>  (470) 
0

>  <hydroph_interaction:ASP:83>  (470) 
0

>  <hbond:TYR:130>  (470) 
1

>  <hydroph_interaction:ALA:132>  (470) 
0

>  <hbond:HIS:51>  (470) 
0

>  <hbond:ASP:129>  (470) 
0

>  <hbond:TYR:150>  (470) 
0

>  <hbond:GLY:151>  (470) 
0

>  <hbond:TYR:161>  (470) 
0

>  <hydroph_interaction:TYR:130>  (470) 
1

>  <hydroph_interaction:PRO:131>  (470) 
1

>  <hydroph_interaction:ASP:129>  (470) 
0

>  <saltbridge:ASP:75>  (470) 
0

>  <saltbridge:ASP:83>  (470) 
0

>  <hydroph_interaction:ASN:152>  (470) 
0

>  <halogenbond:TYR:150>  (470) 
0

>  <hbond:ASP:83>  (470) 
0

>  <hydroph_interaction:VAL:155>  (470) 
0

>  <pication:TYR:161>  (470) 
0

>  <hbond:PRO:131>  (470) 
0

>  <hbond:LEU:128>  (470) 
0

>  <saltbridge:ASP:129>  (470) 
0

>  <hbond:THR:134>  (470) 
0

>  <pication:HIS:51>  (470) 
0

>  <hbond:SER:81>  (470) 
0

>  <hbond:GLY:159>  (470) 
0

>  <hydroph_interaction:PRO:101>  (470) 
0

>  <hydroph_interaction:THR:134>  (470) 
0

>  <hbond:GLY:82>  (470) 
0

>  <hydroph_interaction:GLU:104>  (470) 
0

>  <hydroph_interaction:VAL:36>  (470) 
0

>  <hydroph_interaction:MET:49>  (470) 
0

>  <halogenbond:GLU:104>  (470) 
0

>  <hydroph_interaction:LYS:107>  (470) 
0

$$$$
RCLXVAVHZRUDAC-UHFFFAOYSA-N
     RDKit          3D

 34 35  0  0  0  0  0  0  0  0999 V2000
   -5.2003    5.3964  -19.7350 C   0  0  0  0  0  0  0  0  0  0  0  0
   -3.8831    5.5883  -20.2736 N   0  0  0  0  0  0  0  0  0  0  0  0
   -2.6622    5.8000  -19.4720 C   0  0  0  0  0  0  0  0  0  0  0  0
   -2.4037    4.5835  -18.5616 C   0  0  0  0  0  0  0  0  0  0  0  0
   -2.7937    7.0829  -18.6278 C   0  0  0  0  0  0  0  0  0  0  0  0
   -1.4598    5.9624  -20.4246 C   0  0  0  0  0  0  0  0  0  0  0  0
   -6.5753    5.1572  -20.6926 S   0  0  0  0  0  0  0  0  0  0  0  0
   -7.5719    5.0366  -19.3468 C   0  0  0  0  0  0  0  0  0  0  0  0
   -6.8117    5.1855  -18.1975 C   0  0  0  0  0  0  0  0  0  0  0  0
   -7.4162    5.1304  -16.9342 C   0  0  0  0  0  0  0  0  0  0  0  0
   -6.6086    5.3285  -15.6840 C   0  0  0  0  0  0  0  0  0  0  0  0
   -8.8125    4.9376  -16.8700 C   0  0  0  0  0  0  0  0  0  0  0  0
   -9.5764    4.7694  -18.0482 C   0  0  0  0  0  0  0  0  0  0  0  0
  -11.0638    4.5984  -17.9611 C   0  0  0  0  0  0  0  0  0  0  0  0
   -8.9471    4.8330  -19.3058 C   0  0  0  0  0  0  0  0  0  0  0  0
   -5.4854    5.3878  -18.4104 N   0  0  0  0  0  0  0  0  0  0  0  0
   -3.8059    5.5729  -21.3164 H   0  0  0  0  0  0  0  0  0  0  0  0
   -3.1894    4.4798  -17.7862 H   0  0  0  0  0  0  0  0  0  0  0  0
   -2.3819    3.6502  -19.1642 H   0  0  0  0  0  0  0  0  0  0  0  0
   -1.4292    4.6877  -18.0372 H   0  0  0  0  0  0  0  0  0  0  0  0
   -3.0522    7.9461  -19.2781 H   0  0  0  0  0  0  0  0  0  0  0  0
   -1.8380    7.3076  -18.1067 H   0  0  0  0  0  0  0  0  0  0  0  0
   -3.5799    6.9825  -17.8525 H   0  0  0  0  0  0  0  0  0  0  0  0
   -0.5191    6.1243  -19.8549 H   0  0  0  0  0  0  0  0  0  0  0  0
   -1.6140    6.8322  -21.0993 H   0  0  0  0  0  0  0  0  0  0  0  0
   -1.3364    5.0533  -21.0522 H   0  0  0  0  0  0  0  0  0  0  0  0
   -6.3308    6.3990  -15.5889 H   0  0  0  0  0  0  0  0  0  0  0  0
   -5.6837    4.7151  -15.7263 H   0  0  0  0  0  0  0  0  0  0  0  0
   -7.1822    5.0252  -14.7825 H   0  0  0  0  0  0  0  0  0  0  0  0
   -9.3073    4.9176  -15.9062 H   0  0  0  0  0  0  0  0  0  0  0  0
  -11.5499    5.5962  -17.9524 H   0  0  0  0  0  0  0  0  0  0  0  0
  -11.3405    4.0518  -17.0345 H   0  0  0  0  0  0  0  0  0  0  0  0
  -11.4438    4.0177  -18.8285 H   0  0  0  0  0  0  0  0  0  0  0  0
   -9.5131    4.7312  -20.2234 H   0  0  0  0  0  0  0  0  0  0  0  0
  1  2  1  0
  2  3  1  0
  3  4  1  0
  3  5  1  0
  3  6  1  0
  1  7  1  0
  7  8  1  0
  8  9  2  0
  9 10  1  0
 10 11  1  0
 10 12  2  0
 12 13  1  0
 13 14  1  0
 13 15  2  0
  9 16  1  0
  1 16  2  0
 15  8  1  0
  2 17  1  0
  4 18  1  0
  4 19  1  0
  4 20  1  0
  5 21  1  0
  5 22  1  0
  5 23  1  0
  6 24  1  0
  6 25  1  0
  6 26  1  0
 11 27  1  0
 11 28  1  0
 11 29  1  0
 12 30  1  0
 14 31  1  0
 14 32  1  0
 14 33  1  0
 15 34  1  0
A    1
 C1 
A    2
 N1 
A    3
 C2 
A    4
 C3 
A    5
 C4 
A    6
 C5 
A    7
 S1 
A    8
 C6 
A    9
 C7 
A   10
 C8 
A   11
 C9 
A   12
 C10
A   13
 C11
A   14
 C12
A   15
 C13
A   16
 N2 
A   17
 H1 
A   18
 H2 
A   19
 H3 
A   20
 H4 
A   21
 H5 
A   22
 H6 
A   23
 H7 
A   24
 H8 
A   25
 H9 
A   26
 H10
A   27
 H11
A   28
 H12
A   29
 H13
A   30
 H14
A   31
 H15
A   32
 H16
A   33
 H17
A   34
 H18
M  END
>  <ref_pdb>  (471) 
x0051_0B

>  <ref_mols>  (471) 
x0089_0B,x0605_0B

>  <original SMILES>  (471) 
[H]c1c(C([H])([H])[H])c([H])c2sc(N([H])C(C([H])([H])[H])(C([H])([H])[H])C([H])([H])[H])nc2c1C([H])([H])[H]

>  <index>  (471) 
921

>  <∆∆G>  (471) 
-8.464528

>  <∆G_bound>  (471) 
-8.778741

>  <∆G_unbound>  (471) 
-0.314214

>  <comRMSD>  (471) 
0.980409

>  <N_constrained_atoms>  (471) 
15.0

>  <N_unconstrained_atoms>  (471) 
2.0

>  <runtime>  (471) 
35.005419

>  <LE>  (471) 
0.497913

>  <percent_hybrid>  (471) 
25.0

>  <dist>  (471) 
3.0

>  <ecfp4>  (471) 
0.288462

>  <daylight>  (471) 
0.393103

>  <topodist>  (471) 
1.0

>  <mces>  (471) 
16.0

>  <tdn>  (471) 
0.0

>  <tup>  (471) 
1.0

>  <rdn>  (471) 
0.0

>  <rup>  (471) 
0.0

>  <ldn>  (471) 
0.0

>  <lup>  (471) 
0.0

>  <mut>  (471) 
1.0

>  <maj>  (471) 
1.0

>  <min>  (471) 
0.0

>  <hyb>  (471) 
1.0

>  <sub>  (471) 
1.0

>  <query_index>  (471) 
118.0

>  <max_hit_Tanimoto>  (471) 
0.212794

>  <largest_ring>  (471) 
6

>  <N_interactions_kept>  (471) 
1.0

>  <N_interactions_lost>  (471) 
2.5

>  <interaction_uniqueness_metric>  (471) 
0.064945

>  <ad_hoc_penalty>  (471) 
-17.913968

>  <N_rotatable_bonds>  (471) 
3

>  <N_HA>  (471) 
16

>  <cluster>  (471) 
105

>  <N_interactions>  (471) 
5

>  <Enamine>  (471) 
0

>  <Mcule>  (471) 
1

>  <N_PAINS>  (471) 
0

>  <UFF_Gibbs>  (471) 
33.852291

>  <strain_per_HA>  (471) 
1.991311

>  <saltbridge:HIS:51>  (471) 
0

>  <pistack:HIS:51>  (471) 
0

>  <hydroph_interaction:HIS:51>  (471) 
0

>  <hbond:ALA:132>  (471) 
0

>  <hbond:SER:135>  (471) 
0

>  <hydroph_interaction:TYR:150>  (471) 
0

>  <pistack:TYR:161>  (471) 
2

>  <hydroph_interaction:TYR:161>  (471) 
2

>  <hydroph_interaction:ASP:83>  (471) 
0

>  <hbond:TYR:130>  (471) 
0

>  <hydroph_interaction:ALA:132>  (471) 
0

>  <hbond:HIS:51>  (471) 
0

>  <hbond:ASP:129>  (471) 
0

>  <hbond:TYR:150>  (471) 
0

>  <hbond:GLY:151>  (471) 
0

>  <hbond:TYR:161>  (471) 
0

>  <hydroph_interaction:TYR:130>  (471) 
0

>  <hydroph_interaction:PRO:131>  (471) 
0

>  <hydroph_interaction:ASP:129>  (471) 
0

>  <saltbridge:ASP:75>  (471) 
0

>  <saltbridge:ASP:83>  (471) 
0

>  <hydroph_interaction:ASN:152>  (471) 
0

>  <halogenbond:TYR:150>  (471) 
0

>  <hbond:ASP:83>  (471) 
0

>  <hydroph_interaction:VAL:155>  (471) 
1

>  <pication:TYR:161>  (471) 
0

>  <hbond:PRO:131>  (471) 
0

>  <hbond:LEU:128>  (471) 
0

>  <saltbridge:ASP:129>  (471) 
0

>  <hbond:THR:134>  (471) 
0

>  <pication:HIS:51>  (471) 
0

>  <hbond:SER:81>  (471) 
0

>  <hbond:GLY:159>  (471) 
0

>  <hydroph_interaction:PRO:101>  (471) 
0

>  <hydroph_interaction:THR:134>  (471) 
0

>  <hbond:GLY:82>  (471) 
0

>  <hydroph_interaction:GLU:104>  (471) 
0

>  <hydroph_interaction:VAL:36>  (471) 
0

>  <hydroph_interaction:MET:49>  (471) 
0

>  <halogenbond:GLU:104>  (471) 
0

>  <hydroph_interaction:LYS:107>  (471) 
0

$$$$
CSSB00012352322
     RDKit          3D

 17 18  0  0  0  0  0  0  0  0999 V2000
   -9.8344    5.5180  -14.7502 Br  0  0  0  0  0  0  0  0  0  0  0  0
   -9.1507    5.2863  -16.5134 C   0  0  0  0  0  0  0  0  0  0  0  0
   -7.8460    5.4068  -16.8333 N   0  0  0  0  0  0  0  0  0  0  0  0
   -7.6150    5.1934  -18.1599 C   0  0  0  0  0  0  0  0  0  0  0  0
   -8.7629    4.8936  -18.9017 C   0  0  0  0  0  0  0  0  0  0  0  0
  -10.0795    4.9053  -17.8557 S   0  0  0  0  0  0  0  0  0  0  0  0
   -6.2431    5.2715  -18.7279 C   0  0  0  0  0  0  0  0  0  0  0  0
   -5.1299    5.3551  -17.8723 C   0  0  0  0  0  0  0  0  0  0  0  0
   -3.8394    5.4297  -18.3982 C   0  0  0  0  0  0  0  0  0  0  0  0
   -3.6634    5.4244  -19.7809 C   0  0  0  0  0  0  0  0  0  0  0  0
   -4.7423    5.3500  -20.6024 N   0  0  0  0  0  0  0  0  0  0  0  0
   -6.0106    5.2747  -20.1173 C   0  0  0  0  0  0  0  0  0  0  0  0
   -8.8193    4.6718  -19.9576 H   0  0  0  0  0  0  0  0  0  0  0  0
   -5.2543    5.3566  -16.7967 H   0  0  0  0  0  0  0  0  0  0  0  0
   -2.9830    5.4906  -17.7390 H   0  0  0  0  0  0  0  0  0  0  0  0
   -2.6687    5.4821  -20.2023 H   0  0  0  0  0  0  0  0  0  0  0  0
   -6.8266    5.2310  -20.8231 H   0  0  0  0  0  0  0  0  0  0  0  0
  1  2  1  0
  2  3  2  0
  3  4  1  0
  4  5  2  0
  5  6  1  0
  4  7  1  0
  7  8  2  0
  8  9  1  0
  9 10  2  0
 10 11  1  0
 11 12  2  0
  6  2  1  0
 12  7  1  0
  5 13  1  0
  8 14  1  0
  9 15  1  0
 10 16  1  0
 12 17  1  0
A    1
BR1 
A    2
 C1 
A    3
 N1 
A    4
 C2 
A    5
 C3 
A    6
 S1 
A    7
 C4 
A    8
 C5 
A    9
 C6 
A   10
 C7 
A   11
 N2 
A   12
 C8 
A   13
 H1 
A   14
 H2 
A   15
 H3 
A   16
 H4 
A   17
 H5 
M  END
>  <ref_pdb>  (472) 
x0051_0B

>  <ref_mols>  (472) 
x0680_0B,x0386_0B

>  <original SMILES>  (472) 
[H]c1nc([H])c(-c2nc(Br)sc2[H])c([H])c1[H]

>  <index>  (472) 
778

>  <∆∆G>  (472) 
-5.483399

>  <∆G_bound>  (472) 
-5.409855

>  <∆G_unbound>  (472) 
0.073544

>  <comRMSD>  (472) 
0.74755

>  <N_constrained_atoms>  (472) 
12.0

>  <N_unconstrained_atoms>  (472) 
1.0

>  <runtime>  (472) 
26.708307

>  <LE>  (472) 
0.4218

>  <percent_hybrid>  (472) 
17.0

>  <dist>  (472) 
3.0

>  <ecfp4>  (472) 
0.230769

>  <daylight>  (472) 
0.364238

>  <topodist>  (472) 
2.0

>  <mces>  (472) 
12.0

>  <tdn>  (472) 
1.0

>  <tup>  (472) 
1.0

>  <rdn>  (472) 
0.0

>  <rup>  (472) 
0.0

>  <ldn>  (472) 
0.0

>  <lup>  (472) 
0.0

>  <mut>  (472) 
1.0

>  <maj>  (472) 
0.0

>  <min>  (472) 
1.0

>  <hyb>  (472) 
0.0

>  <sub>  (472) 
2.0

>  <query_index>  (472) 
296.0

>  <max_hit_Tanimoto>  (472) 
0.122581

>  <largest_ring>  (472) 
6

>  <N_interactions_kept>  (472) 
3.5

>  <N_interactions_lost>  (472) 
0.5

>  <interaction_uniqueness_metric>  (472) 
0.013281

>  <ad_hoc_penalty>  (472) 
-17.91014

>  <N_rotatable_bonds>  (472) 
1

>  <N_HA>  (472) 
12

>  <cluster>  (472) 
5505

>  <N_interactions>  (472) 
2

>  <Enamine>  (472) 
1

>  <Mcule>  (472) 
0

>  <N_PAINS>  (472) 
0

>  <UFF_Gibbs>  (472) 
36.767322

>  <strain_per_HA>  (472) 
2.828256

>  <saltbridge:HIS:51>  (472) 
0

>  <pistack:HIS:51>  (472) 
0

>  <hydroph_interaction:HIS:51>  (472) 
0

>  <hbond:ALA:132>  (472) 
0

>  <hbond:SER:135>  (472) 
0

>  <hydroph_interaction:TYR:150>  (472) 
0

>  <pistack:TYR:161>  (472) 
0

>  <hydroph_interaction:TYR:161>  (472) 
2

>  <hydroph_interaction:ASP:83>  (472) 
0

>  <hbond:TYR:130>  (472) 
0

>  <hydroph_interaction:ALA:132>  (472) 
0

>  <hbond:HIS:51>  (472) 
0

>  <hbond:ASP:129>  (472) 
0

>  <hbond:TYR:150>  (472) 
0

>  <hbond:GLY:151>  (472) 
0

>  <hbond:TYR:161>  (472) 
0

>  <hydroph_interaction:TYR:130>  (472) 
0

>  <hydroph_interaction:PRO:131>  (472) 
0

>  <hydroph_interaction:ASP:129>  (472) 
0

>  <saltbridge:ASP:75>  (472) 
0

>  <saltbridge:ASP:83>  (472) 
0

>  <hydroph_interaction:ASN:152>  (472) 
0

>  <halogenbond:TYR:150>  (472) 
0

>  <hbond:ASP:83>  (472) 
0

>  <hydroph_interaction:VAL:155>  (472) 
0

>  <pication:TYR:161>  (472) 
0

>  <hbond:PRO:131>  (472) 
0

>  <hbond:LEU:128>  (472) 
0

>  <saltbridge:ASP:129>  (472) 
0

>  <hbond:THR:134>  (472) 
0

>  <pication:HIS:51>  (472) 
0

>  <hbond:SER:81>  (472) 
0

>  <hbond:GLY:159>  (472) 
0

>  <hydroph_interaction:PRO:101>  (472) 
0

>  <hydroph_interaction:THR:134>  (472) 
0

>  <hbond:GLY:82>  (472) 
0

>  <hydroph_interaction:GLU:104>  (472) 
0

>  <hydroph_interaction:VAL:36>  (472) 
0

>  <hydroph_interaction:MET:49>  (472) 
0

>  <halogenbond:GLU:104>  (472) 
0

>  <hydroph_interaction:LYS:107>  (472) 
0

$$$$
MMOBFNJLXKSETA-UHFFFAOYSA-N
     RDKit          3D

 49 50  0  0  0  0  0  0  0  0999 V2000
   -5.4426    6.9193  -18.8694 C   0  0  0  0  0  0  0  0  0  0  0  0
   -5.3815    5.7894  -19.7640 N   0  0  0  0  0  0  0  0  0  0  0  0
   -5.1042    5.9650  -21.2202 C   0  0  0  0  0  0  0  0  0  0  0  0
   -4.9492    7.4581  -21.6108 C   0  0  0  0  0  0  0  0  0  0  0  0
   -3.7844    5.2512  -21.5884 C   0  0  0  0  0  0  0  0  0  0  0  0
   -6.2629    5.3784  -22.0518 C   0  0  0  0  0  0  0  0  0  0  0  0
   -5.4214    4.4424  -19.1578 C   0  0  0  0  0  0  0  0  0  0  0  0
   -6.6324    4.2632  -18.2726 C   0  0  0  0  0  0  0  0  0  0  0  0
   -7.9239    4.4880  -18.7798 C   0  0  0  0  0  0  0  0  0  0  0  0
   -9.0435    4.3197  -17.9593 C   0  0  0  0  0  0  0  0  0  0  0  0
   -8.8844    3.9185  -16.6300 C   0  0  0  0  0  0  0  0  0  0  0  0
   -7.6056    3.6762  -16.1212 C   0  0  0  0  0  0  0  0  0  0  0  0
   -6.4836    3.8350  -16.9406 C   0  0  0  0  0  0  0  0  0  0  0  0
   -6.4038    7.7303  -18.9517 O   0  0  0  0  0  0  0  0  0  0  0  0
   -4.3891    7.1177  -17.8181 C   0  0  0  0  0  0  0  0  0  0  0  0
   -4.7933    6.4603  -16.5598 N   0  0  0  0  0  0  0  0  0  0  0  0
   -5.7499    7.2818  -15.7666 C   0  0  0  0  0  0  0  0  0  0  0  0
   -5.0993    7.9462  -14.5452 C   0  0  0  0  0  0  0  0  0  0  0  0
   -4.4851    6.8976  -13.6036 C   0  0  0  0  0  0  0  0  0  0  0  0
   -3.9672    5.6567  -14.3527 C   0  0  0  0  0  0  0  0  0  0  0  0
   -3.6075    5.9984  -15.8009 C   0  0  0  0  0  0  0  0  0  0  0  0
   -4.1327    7.9367  -21.0272 H   0  0  0  0  0  0  0  0  0  0  0  0
   -4.7001    7.5607  -22.6892 H   0  0  0  0  0  0  0  0  0  0  0  0
   -5.8933    8.0168  -21.4367 H   0  0  0  0  0  0  0  0  0  0  0  0
   -3.8643    4.1509  -21.4704 H   0  0  0  0  0  0  0  0  0  0  0  0
   -3.5098    5.4485  -22.6474 H   0  0  0  0  0  0  0  0  0  0  0  0
   -2.9594    5.6143  -20.9376 H   0  0  0  0  0  0  0  0  0  0  0  0
   -6.3958    4.2945  -21.8658 H   0  0  0  0  0  0  0  0  0  0  0  0
   -7.2133    5.8959  -21.8026 H   0  0  0  0  0  0  0  0  0  0  0  0
   -6.0711    5.5108  -23.1379 H   0  0  0  0  0  0  0  0  0  0  0  0
   -5.4494    3.6472  -19.9284 H   0  0  0  0  0  0  0  0  0  0  0  0
   -4.4855    4.2849  -18.5780 H   0  0  0  0  0  0  0  0  0  0  0  0
   -8.0644    4.7914  -19.8077 H   0  0  0  0  0  0  0  0  0  0  0  0
  -10.0357    4.4968  -18.3559 H   0  0  0  0  0  0  0  0  0  0  0  0
   -9.7524    3.7889  -15.9968 H   0  0  0  0  0  0  0  0  0  0  0  0
   -7.4828    3.3570  -15.0945 H   0  0  0  0  0  0  0  0  0  0  0  0
   -5.5009    3.6289  -16.5342 H   0  0  0  0  0  0  0  0  0  0  0  0
   -3.4443    6.6790  -18.2126 H   0  0  0  0  0  0  0  0  0  0  0  0
   -4.1988    8.2032  -17.6588 H   0  0  0  0  0  0  0  0  0  0  0  0
   -6.5710    6.6200  -15.4161 H   0  0  0  0  0  0  0  0  0  0  0  0
   -6.2327    8.0715  -16.3818 H   0  0  0  0  0  0  0  0  0  0  0  0
   -4.3088    8.6436  -14.8954 H   0  0  0  0  0  0  0  0  0  0  0  0
   -5.8558    8.5444  -13.9942 H   0  0  0  0  0  0  0  0  0  0  0  0
   -3.6493    7.3697  -13.0429 H   0  0  0  0  0  0  0  0  0  0  0  0
   -5.2455    6.5764  -12.8597 H   0  0  0  0  0  0  0  0  0  0  0  0
   -3.0754    5.2474  -13.8307 H   0  0  0  0  0  0  0  0  0  0  0  0
   -4.7518    4.8682  -14.3542 H   0  0  0  0  0  0  0  0  0  0  0  0
   -3.2007    5.0863  -16.2885 H   0  0  0  0  0  0  0  0  0  0  0  0
   -2.8075    6.7739  -15.7993 H   0  0  0  0  0  0  0  0  0  0  0  0
  1  2  1  0
  2  3  1  0
  3  4  1  0
  3  5  1  0
  3  6  1  0
  2  7  1  0
  7  8  1  0
  8  9  2  0
  9 10  1  0
 10 11  2  0
 11 12  1  0
 12 13  2  0
  1 14  2  0
  1 15  1  0
 15 16  1  0
 16 17  1  0
 17 18  1  0
 18 19  1  0
 19 20  1  0
 20 21  1  0
 13  8  1  0
 21 16  1  0
  4 22  1  0
  4 23  1  0
  4 24  1  0
  5 25  1  0
  5 26  1  0
  5 27  1  0
  6 28  1  0
  6 29  1  0
  6 30  1  0
  7 31  1  0
  7 32  1  0
  9 33  1  0
 10 34  1  0
 11 35  1  0
 12 36  1  0
 13 37  1  0
 15 38  1  0
 15 39  1  0
 17 40  1  0
 17 41  1  0
 18 42  1  0
 18 43  1  0
 19 44  1  0
 19 45  1  0
 20 46  1  0
 20 47  1  0
 21 48  1  0
 21 49  1  0
A    1
 C1 
A    2
 N1 
A    3
 C2 
A    4
 C3 
A    5
 C4 
A    6
 C5 
A    7
 C6 
A    8
 C7 
A    9
 C8 
A   10
 C9 
A   11
 C10
A   12
 C11
A   13
 C12
A   14
 O1 
A   15
 C13
A   16
 N2 
A   17
 C14
A   18
 C15
A   19
 C16
A   20
 C17
A   21
 C18
A   22
 H1 
A   23
 H2 
A   24
 H3 
A   25
 H4 
A   26
 H5 
A   27
 H6 
A   28
 H7 
A   29
 H8 
A   30
 H9 
A   31
 H10
A   32
 H11
A   33
 H12
A   34
 H13
A   35
 H14
A   36
 H15
A   37
 H16
A   38
 H17
A   39
 H18
A   40
 H19
A   41
 H20
A   42
 H21
A   43
 H22
A   44
 H23
A   45
 H24
A   46
 H25
A   47
 H26
A   48
 H27
A   49
 H28
M  END
>  <ref_pdb>  (473) 
x0051_0B

>  <ref_mols>  (473) 
x0101_0B,x0429_0B

>  <original SMILES>  (473) 
[H]c1c([H])c([H])c(C([H])([H])N(C(=O)C([H])([H])N2C([H])([H])C([H])([H])C([H])([H])C([H])([H])C2([H])[H])C(C([H])([H])[H])(C([H])([H])[H])C([H])([H])[H])c([H])c1[H]

>  <index>  (473) 
151

>  <∆∆G>  (473) 
-6.139488

>  <∆G_bound>  (473) 
-6.879478

>  <∆G_unbound>  (473) 
-0.73999

>  <comRMSD>  (473) 
0.796644

>  <N_constrained_atoms>  (473) 
22.0

>  <N_unconstrained_atoms>  (473) 
2.0

>  <runtime>  (473) 
51.457158

>  <LE>  (473) 
0.255812

>  <percent_hybrid>  (473) 
50.0

>  <dist>  (473) 
8.0

>  <ecfp4>  (473) 
0.15493

>  <daylight>  (473) 
0.156977

>  <topodist>  (473) 
4.0

>  <mces>  (473) 
21.0

>  <tdn>  (473) 
2.0

>  <tup>  (473) 
1.0

>  <rdn>  (473) 
1.0

>  <rup>  (473) 
0.0

>  <ldn>  (473) 
0.0

>  <lup>  (473) 
0.0

>  <mut>  (473) 
3.0

>  <maj>  (473) 
3.0

>  <min>  (473) 
0.0

>  <hyb>  (473) 
1.0

>  <sub>  (473) 
4.0

>  <query_index>  (473) 
278.0

>  <max_hit_Tanimoto>  (473) 
0.303202

>  <largest_ring>  (473) 
6

>  <N_interactions_kept>  (473) 
3.5

>  <N_interactions_lost>  (473) 
0.5

>  <interaction_uniqueness_metric>  (473) 
0.112237

>  <ad_hoc_penalty>  (473) 
-17.902822

>  <N_rotatable_bonds>  (473) 
4

>  <N_HA>  (473) 
21

>  <cluster>  (473) 
39

>  <N_interactions>  (473) 
5

>  <Enamine>  (473) 
0

>  <Mcule>  (473) 
1

>  <N_PAINS>  (473) 
0

>  <UFF_Gibbs>  (473) 
347.125804

>  <strain_per_HA>  (473) 
14.463575

>  <saltbridge:HIS:51>  (473) 
0

>  <pistack:HIS:51>  (473) 
0

>  <hydroph_interaction:HIS:51>  (473) 
0

>  <hbond:ALA:132>  (473) 
1

>  <hbond:SER:135>  (473) 
0

>  <hydroph_interaction:TYR:150>  (473) 
0

>  <pistack:TYR:161>  (473) 
0

>  <hydroph_interaction:TYR:161>  (473) 
3

>  <hydroph_interaction:ASP:83>  (473) 
0

>  <hbond:TYR:130>  (473) 
0

>  <hydroph_interaction:ALA:132>  (473) 
0

>  <hbond:HIS:51>  (473) 
0

>  <hbond:ASP:129>  (473) 
0

>  <hbond:TYR:150>  (473) 
0

>  <hbond:GLY:151>  (473) 
0

>  <hbond:TYR:161>  (473) 
0

>  <hydroph_interaction:TYR:130>  (473) 
0

>  <hydroph_interaction:PRO:131>  (473) 
0

>  <hydroph_interaction:ASP:129>  (473) 
1

>  <saltbridge:ASP:75>  (473) 
0

>  <saltbridge:ASP:83>  (473) 
0

>  <hydroph_interaction:ASN:152>  (473) 
0

>  <halogenbond:TYR:150>  (473) 
0

>  <hbond:ASP:83>  (473) 
0

>  <hydroph_interaction:VAL:155>  (473) 
0

>  <pication:TYR:161>  (473) 
0

>  <hbond:PRO:131>  (473) 
0

>  <hbond:LEU:128>  (473) 
0

>  <saltbridge:ASP:129>  (473) 
0

>  <hbond:THR:134>  (473) 
0

>  <pication:HIS:51>  (473) 
0

>  <hbond:SER:81>  (473) 
0

>  <hbond:GLY:159>  (473) 
0

>  <hydroph_interaction:PRO:101>  (473) 
0

>  <hydroph_interaction:THR:134>  (473) 
0

>  <hbond:GLY:82>  (473) 
0

>  <hydroph_interaction:GLU:104>  (473) 
0

>  <hydroph_interaction:VAL:36>  (473) 
0

>  <hydroph_interaction:MET:49>  (473) 
0

>  <halogenbond:GLU:104>  (473) 
0

>  <hydroph_interaction:LYS:107>  (473) 
0

$$$$
MCULE-2393034325
     RDKit          3D

 48 50  0  0  0  0  0  0  0  0999 V2000
   -7.1548    5.9123  -20.7411 C   0  0  0  0  0  0  0  0  0  0  0  0
   -7.3944    6.2653  -19.4014 C   0  0  0  0  0  0  0  0  0  0  0  0
   -8.1671    5.4395  -18.5722 C   0  0  0  0  0  0  0  0  0  0  0  0
   -8.3667    5.7959  -17.1282 C   0  0  0  0  0  0  0  0  0  0  0  0
   -8.6838    4.2391  -19.0792 C   0  0  0  0  0  0  0  0  0  0  0  0
   -8.4719    3.8843  -20.4192 C   0  0  0  0  0  0  0  0  0  0  0  0
   -9.0060    2.5872  -20.9514 C   0  0  0  0  0  0  0  0  0  0  0  0
   -7.6981    4.7162  -21.2411 C   0  0  0  0  0  0  0  0  0  0  0  0
   -6.3342    6.7880  -21.6134 C   0  0  0  0  0  0  0  0  0  0  0  0
   -6.5098    8.1821  -21.5885 C   0  0  0  0  0  0  0  0  0  0  0  0
   -5.7535    9.0051  -22.4256 C   0  0  0  0  0  0  0  0  0  0  0  0
   -4.8010    8.4531  -23.2968 C   0  0  0  0  0  0  0  0  0  0  0  0
   -4.0603    9.3442  -24.2646 C   0  0  0  0  0  0  0  0  0  0  0  0
   -4.6829    9.3070  -25.6679 C   0  0  0  0  0  0  0  0  0  0  0  0
   -6.1134    9.7650  -25.6493 C   0  0  0  0  0  0  0  0  0  0  0  0
   -6.3660   10.9973  -25.7260 O   0  0  0  0  0  0  0  0  0  0  0  0
   -7.1661    8.8074  -25.4443 N   0  0  0  0  0  0  0  0  0  0  0  0
   -8.5374    9.1611  -25.2051 C   0  0  0  0  0  0  0  0  0  0  0  0
   -9.1748   10.1720  -25.9475 C   0  0  0  0  0  0  0  0  0  0  0  0
  -10.5150   10.4871  -25.6993 C   0  0  0  0  0  0  0  0  0  0  0  0
  -11.2301    9.7907  -24.7212 C   0  0  0  0  0  0  0  0  0  0  0  0
  -10.6101    8.7689  -23.9977 C   0  0  0  0  0  0  0  0  0  0  0  0
   -9.2713    8.4498  -24.2441 C   0  0  0  0  0  0  0  0  0  0  0  0
   -4.6184    7.0599  -23.3204 C   0  0  0  0  0  0  0  0  0  0  0  0
   -3.7169    6.4965  -24.1643 F   0  0  0  0  0  0  0  0  0  0  0  0
   -5.3793    6.2364  -22.4853 C   0  0  0  0  0  0  0  0  0  0  0  0
   -6.9604    7.1719  -18.9952 H   0  0  0  0  0  0  0  0  0  0  0  0
   -7.5438    5.3606  -16.5240 H   0  0  0  0  0  0  0  0  0  0  0  0
   -8.3716    6.8988  -16.9927 H   0  0  0  0  0  0  0  0  0  0  0  0
   -9.3373    5.4018  -16.7585 H   0  0  0  0  0  0  0  0  0  0  0  0
   -9.2514    3.5812  -18.4317 H   0  0  0  0  0  0  0  0  0  0  0  0
   -9.9243    2.2851  -20.4055 H   0  0  0  0  0  0  0  0  0  0  0  0
   -9.2643    2.6837  -22.0264 H   0  0  0  0  0  0  0  0  0  0  0  0
   -8.2380    1.7952  -20.8333 H   0  0  0  0  0  0  0  0  0  0  0  0
   -7.5292    4.4346  -22.2743 H   0  0  0  0  0  0  0  0  0  0  0  0
   -7.2518    8.6330  -20.9425 H   0  0  0  0  0  0  0  0  0  0  0  0
   -5.9272   10.0737  -22.4099 H   0  0  0  0  0  0  0  0  0  0  0  0
   -4.0468   10.3933  -23.8946 H   0  0  0  0  0  0  0  0  0  0  0  0
   -3.0002    9.0163  -24.3304 H   0  0  0  0  0  0  0  0  0  0  0  0
   -4.0959    9.9686  -26.3409 H   0  0  0  0  0  0  0  0  0  0  0  0
   -4.6223    8.2778  -26.0828 H   0  0  0  0  0  0  0  0  0  0  0  0
   -6.8893    7.8138  -25.2756 H   0  0  0  0  0  0  0  0  0  0  0  0
   -8.6496   10.6995  -26.7300 H   0  0  0  0  0  0  0  0  0  0  0  0
  -11.0013   11.2670  -26.2696 H   0  0  0  0  0  0  0  0  0  0  0  0
  -12.2665   10.0358  -24.5320 H   0  0  0  0  0  0  0  0  0  0  0  0
  -11.1671    8.2225  -23.2479 H   0  0  0  0  0  0  0  0  0  0  0  0
   -8.8006    7.6565  -23.6769 H   0  0  0  0  0  0  0  0  0  0  0  0
   -5.2166    5.1664  -22.5153 H   0  0  0  0  0  0  0  0  0  0  0  0
  1  2  2  0
  2  3  1  0
  3  4  1  0
  3  5  2  0
  5  6  1  0
  6  7  1  0
  6  8  2  0
  1  9  1  0
  9 10  2  0
 10 11  1  0
 11 12  2  0
 12 13  1  0
 13 14  1  0
 14 15  1  0
 15 16  2  0
 15 17  1  0
 17 18  1  0
 18 19  2  0
 19 20  1  0
 20 21  2  0
 21 22  1  0
 22 23  2  0
 12 24  1  0
 24 25  1  0
 24 26  2  0
  8  1  1  0
 26  9  1  0
 18 23  1  0
  2 27  1  0
  4 28  1  0
  4 29  1  0
  4 30  1  0
  5 31  1  0
  7 32  1  0
  7 33  1  0
  7 34  1  0
  8 35  1  0
 10 36  1  0
 11 37  1  0
 13 38  1  0
 13 39  1  0
 14 40  1  0
 14 41  1  0
 17 42  1  0
 19 43  1  0
 20 44  1  0
 21 45  1  0
 22 46  1  0
 23 47  1  0
 26 48  1  0
A    1
 C1 
A    2
 C2 
A    3
 C3 
A    4
 C4 
A    5
 C5 
A    6
 C6 
A    7
 C7 
A    8
 C8 
A    9
 C9 
A   10
 C10
A   11
 C11
A   12
 C12
A   13
 C13
A   14
 C14
A   15
 C15
A   16
 O1 
A   17
 N1 
A   18
 C16
A   19
 C17
A   20
 C18
A   21
 C19
A   22
 C20
A   23
 C21
A   24
 C22
A   25
 F1 
A   26
 C23
A   27
 H1 
A   28
 H2 
A   29
 H3 
A   30
 H4 
A   31
 H5 
A   32
 H6 
A   33
 H7 
A   34
 H8 
A   35
 H9 
A   36
 H10
A   37
 H11
A   38
 H12
A   39
 H13
A   40
 H14
A   41
 H15
A   42
 H16
A   43
 H17
A   44
 H18
A   45
 H19
A   46
 H20
A   47
 H21
A   48
 H22
M  END
>  <ref_pdb>  (474) 
x0051_0B

>  <ref_mols>  (474) 
x0846_1B,x0605_0B

>  <original SMILES>  (474) 
[H]c1c([H])c([H])c(N([H])C(=O)C([H])([H])C([H])([H])c2c([H])c([H])c(-c3c([H])c(C([H])([H])[H])c([H])c(C([H])([H])[H])c3[H])c([H])c2F)c([H])c1[H]

>  <index>  (474) 
534

>  <∆∆G>  (474) 
-9.105999

>  <∆G_bound>  (474) 
-8.756827

>  <∆G_unbound>  (474) 
0.349172

>  <comRMSD>  (474) 
0.997348

>  <N_constrained_atoms>  (474) 
27.0

>  <N_unconstrained_atoms>  (474) 
0.0

>  <runtime>  (474) 
61.433818

>  <LE>  (474) 
0.337259

>  <percent_hybrid>  (474) 
34.0

>  <dist>  (474) 
8.0

>  <ecfp4>  (474) 
0.188235

>  <daylight>  (474) 
0.110599

>  <topodist>  (474) 
4.0

>  <mces>  (474) 
28.0

>  <tdn>  (474) 
1.0

>  <tup>  (474) 
0.0

>  <rdn>  (474) 
1.0

>  <rup>  (474) 
0.0

>  <ldn>  (474) 
2.0

>  <lup>  (474) 
0.0

>  <mut>  (474) 
3.0

>  <maj>  (474) 
3.0

>  <min>  (474) 
0.0

>  <hyb>  (474) 
1.0

>  <sub>  (474) 
1.0

>  <query_index>  (474) 
88.0

>  <max_hit_Tanimoto>  (474) 
0.148055

>  <largest_ring>  (474) 
6

>  <N_interactions_kept>  (474) 
0.0

>  <N_interactions_lost>  (474) 
2.5

>  <interaction_uniqueness_metric>  (474) 
0.168994

>  <ad_hoc_penalty>  (474) 
-17.886762

>  <N_rotatable_bonds>  (474) 
7

>  <N_HA>  (474) 
26

>  <cluster>  (474) 
5730

>  <N_interactions>  (474) 
7

>  <Enamine>  (474) 
0

>  <Mcule>  (474) 
1

>  <N_PAINS>  (474) 
0

>  <UFF_Gibbs>  (474) 
198.697541

>  <strain_per_HA>  (474) 
7.359168

>  <saltbridge:HIS:51>  (474) 
0

>  <pistack:HIS:51>  (474) 
0

>  <hydroph_interaction:HIS:51>  (474) 
0

>  <hbond:ALA:132>  (474) 
0

>  <hbond:SER:135>  (474) 
0

>  <hydroph_interaction:TYR:150>  (474) 
1

>  <pistack:TYR:161>  (474) 
1

>  <hydroph_interaction:TYR:161>  (474) 
2

>  <hydroph_interaction:ASP:83>  (474) 
0

>  <hbond:TYR:130>  (474) 
0

>  <hydroph_interaction:ALA:132>  (474) 
1

>  <hbond:HIS:51>  (474) 
0

>  <hbond:ASP:129>  (474) 
0

>  <hbond:TYR:150>  (474) 
0

>  <hbond:GLY:151>  (474) 
0

>  <hbond:TYR:161>  (474) 
0

>  <hydroph_interaction:TYR:130>  (474) 
1

>  <hydroph_interaction:PRO:131>  (474) 
1

>  <hydroph_interaction:ASP:129>  (474) 
0

>  <saltbridge:ASP:75>  (474) 
0

>  <saltbridge:ASP:83>  (474) 
0

>  <hydroph_interaction:ASN:152>  (474) 
0

>  <halogenbond:TYR:150>  (474) 
0

>  <hbond:ASP:83>  (474) 
0

>  <hydroph_interaction:VAL:155>  (474) 
0

>  <pication:TYR:161>  (474) 
0

>  <hbond:PRO:131>  (474) 
0

>  <hbond:LEU:128>  (474) 
0

>  <saltbridge:ASP:129>  (474) 
0

>  <hbond:THR:134>  (474) 
0

>  <pication:HIS:51>  (474) 
0

>  <hbond:SER:81>  (474) 
0

>  <hbond:GLY:159>  (474) 
0

>  <hydroph_interaction:PRO:101>  (474) 
0

>  <hydroph_interaction:THR:134>  (474) 
0

>  <hbond:GLY:82>  (474) 
0

>  <hydroph_interaction:GLU:104>  (474) 
0

>  <hydroph_interaction:VAL:36>  (474) 
0

>  <hydroph_interaction:MET:49>  (474) 
0

>  <halogenbond:GLU:104>  (474) 
0

>  <hydroph_interaction:LYS:107>  (474) 
0

$$$$
MCULE-7171204140
     RDKit          3D

 31 33  0  0  0  0  0  0  0  0999 V2000
   -7.2848    5.6690  -17.6071 C   0  0  0  0  0  0  0  0  0  0  0  0
   -7.7976    5.4520  -16.3216 C   0  0  0  0  0  0  0  0  0  0  0  0
   -9.1412    5.0494  -16.1822 C   0  0  0  0  0  0  0  0  0  0  0  0
   -9.7282    4.8486  -14.8171 C   0  0  0  0  0  0  0  0  0  0  0  0
   -9.9499    4.9018  -17.3312 C   0  0  0  0  0  0  0  0  0  0  0  0
   -9.4146    5.1254  -18.6084 C   0  0  0  0  0  0  0  0  0  0  0  0
   -8.0777    5.5056  -18.7101 C   0  0  0  0  0  0  0  0  0  0  0  0
   -7.3821    5.7763  -19.9061 N   0  0  0  0  0  0  0  0  0  0  0  0
   -6.0096    6.1526  -19.5869 C   0  0  0  0  0  0  0  0  0  0  0  0
   -5.8966    6.0939  -18.0238 C   0  0  0  0  0  0  0  0  0  0  0  0
   -4.8285    5.1068  -17.5387 C   0  0  0  0  0  0  0  0  0  0  0  0
   -4.3308    5.6410  -16.1995 C   0  0  0  0  0  0  0  0  0  0  0  0
   -4.7485    7.1093  -16.1159 C   0  0  0  0  0  0  0  0  0  0  0  0
   -5.5004    7.4383  -17.4020 C   0  0  0  0  0  0  0  0  0  0  0  0
   -7.1752    5.5909  -15.4491 H   0  0  0  0  0  0  0  0  0  0  0  0
  -10.1388    5.8111  -14.4469 H   0  0  0  0  0  0  0  0  0  0  0  0
   -8.9534    4.4879  -14.1074 H   0  0  0  0  0  0  0  0  0  0  0  0
  -10.5432    4.0945  -14.8481 H   0  0  0  0  0  0  0  0  0  0  0  0
  -10.9898    4.6151  -17.2358 H   0  0  0  0  0  0  0  0  0  0  0  0
  -10.0276    5.0097  -19.4929 H   0  0  0  0  0  0  0  0  0  0  0  0
   -7.7847    5.7192  -20.8679 H   0  0  0  0  0  0  0  0  0  0  0  0
   -5.8148    7.1716  -19.9846 H   0  0  0  0  0  0  0  0  0  0  0  0
   -5.3168    5.4414  -20.0856 H   0  0  0  0  0  0  0  0  0  0  0  0
   -5.2211    4.0702  -17.4425 H   0  0  0  0  0  0  0  0  0  0  0  0
   -3.9697    5.0912  -18.2461 H   0  0  0  0  0  0  0  0  0  0  0  0
   -3.2257    5.5408  -16.1259 H   0  0  0  0  0  0  0  0  0  0  0  0
   -4.7903    5.0656  -15.3666 H   0  0  0  0  0  0  0  0  0  0  0  0
   -3.8579    7.7662  -16.0063 H   0  0  0  0  0  0  0  0  0  0  0  0
   -5.4105    7.2685  -15.2370 H   0  0  0  0  0  0  0  0  0  0  0  0
   -6.3804    8.0895  -17.2033 H   0  0  0  0  0  0  0  0  0  0  0  0
   -4.8066    7.9855  -18.0784 H   0  0  0  0  0  0  0  0  0  0  0  0
  1  2  2  0
  2  3  1  0
  3  4  1  0
  3  5  2  0
  5  6  1  0
  6  7  2  0
  7  8  1  0
  8  9  1  0
  9 10  1  0
 10 11  1  0
 11 12  1  0
 12 13  1  0
 13 14  1  0
  1  7  1  0
 10  1  1  0
 14 10  1  0
  2 15  1  0
  4 16  1  0
  4 17  1  0
  4 18  1  0
  5 19  1  0
  6 20  1  0
  8 21  1  0
  9 22  1  0
  9 23  1  0
 11 24  1  0
 11 25  1  0
 12 26  1  0
 12 27  1  0
 13 28  1  0
 13 29  1  0
 14 30  1  0
 14 31  1  0
A    1
 C1 
A    2
 C2 
A    3
 C3 
A    4
 C4 
A    5
 C5 
A    6
 C6 
A    7
 C7 
A    8
 N1 
A    9
 C8 
A   10
 C9 
A   11
 C10
A   12
 C11
A   13
 C12
A   14
 C13
A   15
 H1 
A   16
 H2 
A   17
 H3 
A   18
 H4 
A   19
 H5 
A   20
 H6 
A   21
 H7 
A   22
 H8 
A   23
 H9 
A   24
 H10
A   25
 H11
A   26
 H12
A   27
 H13
A   28
 H14
A   29
 H15
A   30
 H16
A   31
 H17
M  END
>  <ref_pdb>  (475) 
x0051_0B

>  <ref_mols>  (475) 
x0490_0B,x0227_0B

>  <original SMILES>  (475) 
[H]c1c([H])c(C([H])([H])[H])c([H])c2c1N([H])C([H])([H])C21C([H])([H])C([H])([H])C([H])([H])C1([H])[H]

>  <index>  (475) 
686

>  <∆∆G>  (475) 
-6.97754

>  <∆G_bound>  (475) 
-6.935575

>  <∆G_unbound>  (475) 
0.041965

>  <comRMSD>  (475) 
0.642877

>  <N_constrained_atoms>  (475) 
15.0

>  <N_unconstrained_atoms>  (475) 
1.0

>  <runtime>  (475) 
24.251265

>  <LE>  (475) 
0.436096

>  <percent_hybrid>  (475) 
34.0

>  <dist>  (475) 
2.0

>  <ecfp4>  (475) 
0.355556

>  <daylight>  (475) 
0.852632

>  <topodist>  (475) 
2.0

>  <mces>  (475) 
15.0

>  <tdn>  (475) 
1.0

>  <tup>  (475) 
1.0

>  <rdn>  (475) 
0.0

>  <rup>  (475) 
0.0

>  <ldn>  (475) 
0.0

>  <lup>  (475) 
0.0

>  <mut>  (475) 
0.0

>  <maj>  (475) 
0.0

>  <min>  (475) 
0.0

>  <hyb>  (475) 
0.0

>  <sub>  (475) 
2.0

>  <query_index>  (475) 
171.0

>  <max_hit_Tanimoto>  (475) 
0.33109

>  <largest_ring>  (475) 
6

>  <N_interactions_kept>  (475) 
2.0

>  <N_interactions_lost>  (475) 
3.0

>  <interaction_uniqueness_metric>  (475) 
0.078124

>  <ad_hoc_penalty>  (475) 
-17.886368

>  <N_rotatable_bonds>  (475) 
1

>  <N_HA>  (475) 
14

>  <cluster>  (475) 
5589

>  <N_interactions>  (475) 
6

>  <Enamine>  (475) 
0

>  <Mcule>  (475) 
1

>  <N_PAINS>  (475) 
0

>  <UFF_Gibbs>  (475) 
71.037178

>  <strain_per_HA>  (475) 
4.439824

>  <saltbridge:HIS:51>  (475) 
0

>  <pistack:HIS:51>  (475) 
0

>  <hydroph_interaction:HIS:51>  (475) 
0

>  <hbond:ALA:132>  (475) 
0

>  <hbond:SER:135>  (475) 
0

>  <hydroph_interaction:TYR:150>  (475) 
1

>  <pistack:TYR:161>  (475) 
0

>  <hydroph_interaction:TYR:161>  (475) 
3

>  <hydroph_interaction:ASP:83>  (475) 
0

>  <hbond:TYR:130>  (475) 
1

>  <hydroph_interaction:ALA:132>  (475) 
1

>  <hbond:HIS:51>  (475) 
0

>  <hbond:ASP:129>  (475) 
0

>  <hbond:TYR:150>  (475) 
0

>  <hbond:GLY:151>  (475) 
0

>  <hbond:TYR:161>  (475) 
0

>  <hydroph_interaction:TYR:130>  (475) 
0

>  <hydroph_interaction:PRO:131>  (475) 
0

>  <hydroph_interaction:ASP:129>  (475) 
0

>  <saltbridge:ASP:75>  (475) 
0

>  <saltbridge:ASP:83>  (475) 
0

>  <hydroph_interaction:ASN:152>  (475) 
0

>  <halogenbond:TYR:150>  (475) 
0

>  <hbond:ASP:83>  (475) 
0

>  <hydroph_interaction:VAL:155>  (475) 
0

>  <pication:TYR:161>  (475) 
0

>  <hbond:PRO:131>  (475) 
0

>  <hbond:LEU:128>  (475) 
0

>  <saltbridge:ASP:129>  (475) 
0

>  <hbond:THR:134>  (475) 
0

>  <pication:HIS:51>  (475) 
0

>  <hbond:SER:81>  (475) 
0

>  <hbond:GLY:159>  (475) 
0

>  <hydroph_interaction:PRO:101>  (475) 
0

>  <hydroph_interaction:THR:134>  (475) 
0

>  <hbond:GLY:82>  (475) 
0

>  <hydroph_interaction:GLU:104>  (475) 
0

>  <hydroph_interaction:VAL:36>  (475) 
0

>  <hydroph_interaction:MET:49>  (475) 
0

>  <halogenbond:GLU:104>  (475) 
0

>  <hydroph_interaction:LYS:107>  (475) 
0

$$$$
MCULE-3477994500
     RDKit          3D

 17 18  0  0  0  0  0  0  0  0999 V2000
   -7.9488    5.3586  -16.8781 N   0  0  0  0  0  0  0  0  0  0  0  0
   -9.2600    5.2289  -16.5910 C   0  0  0  0  0  0  0  0  0  0  0  0
   -9.9218    5.3991  -14.9798 Cl  0  0  0  0  0  0  0  0  0  0  0  0
  -10.1607    4.8829  -17.9614 S   0  0  0  0  0  0  0  0  0  0  0  0
   -8.8212    4.8994  -18.9783 C   0  0  0  0  0  0  0  0  0  0  0  0
   -7.6894    5.1801  -18.2045 C   0  0  0  0  0  0  0  0  0  0  0  0
   -6.3058    5.2736  -18.7410 C   0  0  0  0  0  0  0  0  0  0  0  0
   -5.2111    5.3342  -17.8601 C   0  0  0  0  0  0  0  0  0  0  0  0
   -3.9097    5.4230  -18.3563 C   0  0  0  0  0  0  0  0  0  0  0  0
   -3.7045    5.4550  -19.7346 C   0  0  0  0  0  0  0  0  0  0  0  0
   -4.7658    5.4028  -20.5805 N   0  0  0  0  0  0  0  0  0  0  0  0
   -6.0440    5.3143  -20.1246 C   0  0  0  0  0  0  0  0  0  0  0  0
   -8.8545    4.7053  -20.0406 H   0  0  0  0  0  0  0  0  0  0  0  0
   -5.3582    5.3067  -16.7877 H   0  0  0  0  0  0  0  0  0  0  0  0
   -3.0676    5.4661  -17.6777 H   0  0  0  0  0  0  0  0  0  0  0  0
   -2.7011    5.5241  -20.1332 H   0  0  0  0  0  0  0  0  0  0  0  0
   -6.8449    5.2897  -20.8484 H   0  0  0  0  0  0  0  0  0  0  0  0
  1  2  2  0
  2  3  1  0
  2  4  1  0
  4  5  1  0
  5  6  2  0
  6  7  1  0
  7  8  2  0
  8  9  1  0
  9 10  2  0
 10 11  1  0
 11 12  2  0
  6  1  1  0
  7 12  1  0
  5 13  1  0
  8 14  1  0
  9 15  1  0
 10 16  1  0
 12 17  1  0
A    1
 N1 
A    2
 C1 
A    3
CL1 
A    4
 S1 
A    5
 C2 
A    6
 C3 
A    7
 C4 
A    8
 C5 
A    9
 C6 
A   10
 C7 
A   11
 N2 
A   12
 C8 
A   13
 H1 
A   14
 H2 
A   15
 H3 
A   16
 H4 
A   17
 H5 
M  END
>  <ref_pdb>  (476) 
x0051_0B

>  <ref_mols>  (476) 
x0680_0B,x0386_0B

>  <original SMILES>  (476) 
[H]c1nc([H])c(-c2nc(Cl)sc2[H])c([H])c1[H]

>  <index>  (476) 
787

>  <∆∆G>  (476) 
-5.448037

>  <∆G_bound>  (476) 
-5.350337

>  <∆G_unbound>  (476) 
0.0977

>  <comRMSD>  (476) 
0.692251

>  <N_constrained_atoms>  (476) 
12.0

>  <N_unconstrained_atoms>  (476) 
1.0

>  <runtime>  (476) 
25.949947

>  <LE>  (476) 
0.41908

>  <percent_hybrid>  (476) 
17.0

>  <dist>  (476) 
3.0

>  <ecfp4>  (476) 
0.230769

>  <daylight>  (476) 
0.346154

>  <topodist>  (476) 
2.0

>  <mces>  (476) 
12.0

>  <tdn>  (476) 
1.0

>  <tup>  (476) 
1.0

>  <rdn>  (476) 
0.0

>  <rup>  (476) 
0.0

>  <ldn>  (476) 
0.0

>  <lup>  (476) 
0.0

>  <mut>  (476) 
1.0

>  <maj>  (476) 
0.0

>  <min>  (476) 
1.0

>  <hyb>  (476) 
0.0

>  <sub>  (476) 
2.0

>  <query_index>  (476) 
296.0

>  <max_hit_Tanimoto>  (476) 
0.12381

>  <largest_ring>  (476) 
6

>  <N_interactions_kept>  (476) 
3.5

>  <N_interactions_lost>  (476) 
0.5

>  <interaction_uniqueness_metric>  (476) 
0.013281

>  <ad_hoc_penalty>  (476) 
-17.879467

>  <N_rotatable_bonds>  (476) 
1

>  <N_HA>  (476) 
12

>  <cluster>  (476) 
5496

>  <N_interactions>  (476) 
2

>  <Enamine>  (476) 
0

>  <Mcule>  (476) 
1

>  <N_PAINS>  (476) 
0

>  <UFF_Gibbs>  (476) 
35.802941

>  <strain_per_HA>  (476) 
2.754072

>  <saltbridge:HIS:51>  (476) 
0

>  <pistack:HIS:51>  (476) 
0

>  <hydroph_interaction:HIS:51>  (476) 
0

>  <hbond:ALA:132>  (476) 
0

>  <hbond:SER:135>  (476) 
0

>  <hydroph_interaction:TYR:150>  (476) 
0

>  <pistack:TYR:161>  (476) 
0

>  <hydroph_interaction:TYR:161>  (476) 
2

>  <hydroph_interaction:ASP:83>  (476) 
0

>  <hbond:TYR:130>  (476) 
0

>  <hydroph_interaction:ALA:132>  (476) 
0

>  <hbond:HIS:51>  (476) 
0

>  <hbond:ASP:129>  (476) 
0

>  <hbond:TYR:150>  (476) 
0

>  <hbond:GLY:151>  (476) 
0

>  <hbond:TYR:161>  (476) 
0

>  <hydroph_interaction:TYR:130>  (476) 
0

>  <hydroph_interaction:PRO:131>  (476) 
0

>  <hydroph_interaction:ASP:129>  (476) 
0

>  <saltbridge:ASP:75>  (476) 
0

>  <saltbridge:ASP:83>  (476) 
0

>  <hydroph_interaction:ASN:152>  (476) 
0

>  <halogenbond:TYR:150>  (476) 
0

>  <hbond:ASP:83>  (476) 
0

>  <hydroph_interaction:VAL:155>  (476) 
0

>  <pication:TYR:161>  (476) 
0

>  <hbond:PRO:131>  (476) 
0

>  <hbond:LEU:128>  (476) 
0

>  <saltbridge:ASP:129>  (476) 
0

>  <hbond:THR:134>  (476) 
0

>  <pication:HIS:51>  (476) 
0

>  <hbond:SER:81>  (476) 
0

>  <hbond:GLY:159>  (476) 
0

>  <hydroph_interaction:PRO:101>  (476) 
0

>  <hydroph_interaction:THR:134>  (476) 
0

>  <hbond:GLY:82>  (476) 
0

>  <hydroph_interaction:GLU:104>  (476) 
0

>  <hydroph_interaction:VAL:36>  (476) 
0

>  <hydroph_interaction:MET:49>  (476) 
0

>  <halogenbond:GLU:104>  (476) 
0

>  <hydroph_interaction:LYS:107>  (476) 
0

$$$$
CSSB00000018844
     RDKit          3D

 24 25  0  0  0  0  0  0  0  0999 V2000
   -6.2645    6.3659  -20.6974 C   0  0  0  0  0  0  0  0  0  0  0  0
   -5.8582    6.6628  -19.2538 C   0  0  0  0  0  0  0  0  0  0  0  0
   -5.9831    5.4269  -18.3253 C   0  0  0  0  0  0  0  0  0  0  0  0
   -5.2316    5.6167  -17.0622 N   0  0  0  0  0  0  0  0  0  0  0  0
   -5.8718    6.5834  -16.1493 C   0  0  0  0  0  0  0  0  0  0  0  0
   -7.2418    6.0724  -15.6762 C   0  0  0  0  0  0  0  0  0  0  0  0
   -8.0060    5.4907  -16.8211 C   0  0  0  0  0  0  0  0  0  0  0  0
   -7.4249    5.1053  -18.0173 C   0  0  0  0  0  0  0  0  0  0  0  0
   -8.3043    4.4145  -18.8638 C   0  0  0  0  0  0  0  0  0  0  0  0
   -9.5754    4.2565  -18.3225 C   0  0  0  0  0  0  0  0  0  0  0  0
   -9.5975    4.9566  -16.7896 S   0  0  0  0  0  0  0  0  0  0  0  0
   -5.7203    5.4781  -21.0835 H   0  0  0  0  0  0  0  0  0  0  0  0
   -7.3578    6.1942  -20.7689 H   0  0  0  0  0  0  0  0  0  0  0  0
   -6.0137    7.2379  -21.3376 H   0  0  0  0  0  0  0  0  0  0  0  0
   -4.8017    7.0077  -19.2676 H   0  0  0  0  0  0  0  0  0  0  0  0
   -6.4831    7.5009  -18.8771 H   0  0  0  0  0  0  0  0  0  0  0  0
   -5.5380    4.5488  -18.8430 H   0  0  0  0  0  0  0  0  0  0  0  0
   -4.2614    5.9469  -17.2757 H   0  0  0  0  0  0  0  0  0  0  0  0
   -5.2223    6.7286  -15.2591 H   0  0  0  0  0  0  0  0  0  0  0  0
   -5.9813    7.5758  -16.6369 H   0  0  0  0  0  0  0  0  0  0  0  0
   -7.0940    5.2799  -14.9117 H   0  0  0  0  0  0  0  0  0  0  0  0
   -7.8196    6.9044  -15.2208 H   0  0  0  0  0  0  0  0  0  0  0  0
   -8.0236    4.0265  -19.8339 H   0  0  0  0  0  0  0  0  0  0  0  0
  -10.4030    3.7485  -18.7985 H   0  0  0  0  0  0  0  0  0  0  0  0
  1  2  1  0
  2  3  1  0
  3  4  1  0
  4  5  1  0
  5  6  1  0
  6  7  1  0
  7  8  2  0
  8  9  1  0
  9 10  2  0
 10 11  1  0
  8  3  1  0
 11  7  1  0
  1 12  1  0
  1 13  1  0
  1 14  1  0
  2 15  1  0
  2 16  1  0
  3 17  1  0
  4 18  1  0
  5 19  1  0
  5 20  1  0
  6 21  1  0
  6 22  1  0
  9 23  1  0
 10 24  1  0
A    1
 C1 
A    2
 C2 
A    3
 C3 
A    4
 N1 
A    5
 C4 
A    6
 C5 
A    7
 C6 
A    8
 C7 
A    9
 C8 
A   10
 C9 
A   11
 S1 
A   12
 H1 
A   13
 H2 
A   14
 H3 
A   15
 H4 
A   16
 H5 
A   17
 H6 
A   18
 H7 
A   19
 H8 
A   20
 H9 
A   21
 H10
A   22
 H11
A   23
 H12
A   24
 H13
M  END
>  <ref_pdb>  (477) 
x0051_0B

>  <ref_mols>  (477) 
x0472_0B,x0227_0B

>  <original SMILES>  (477) 
[H]c1sc2c(c1[H])C([H])(C([H])([H])C([H])([H])[H])N([H])C([H])([H])C2([H])[H]

>  <index>  (477) 
886

>  <∆∆G>  (477) 
-5.59587

>  <∆G_bound>  (477) 
-5.77817

>  <∆G_unbound>  (477) 
-0.1823

>  <comRMSD>  (477) 
0.715879

>  <N_constrained_atoms>  (477) 
16.0

>  <N_unconstrained_atoms>  (477) 
0.0

>  <runtime>  (477) 
20.813606

>  <LE>  (477) 
0.349742

>  <percent_hybrid>  (477) 
38.0

>  <dist>  (477) 
5.0

>  <ecfp4>  (477) 
0.333333

>  <daylight>  (477) 
0.75969

>  <topodist>  (477) 
4.0

>  <mces>  (477) 
12.0

>  <tdn>  (477) 
4.0

>  <tup>  (477) 
0.0

>  <rdn>  (477) 
0.0

>  <rup>  (477) 
0.0

>  <ldn>  (477) 
0.0

>  <lup>  (477) 
0.0

>  <mut>  (477) 
1.0

>  <maj>  (477) 
1.0

>  <min>  (477) 
0.0

>  <hyb>  (477) 
0.0

>  <sub>  (477) 
1.0

>  <query_index>  (477) 
78.0

>  <max_hit_Tanimoto>  (477) 
0.540382

>  <largest_ring>  (477) 
6

>  <N_interactions_kept>  (477) 
4.5

>  <N_interactions_lost>  (477) 
0.5

>  <interaction_uniqueness_metric>  (477) 
0.013281

>  <ad_hoc_penalty>  (477) 
-17.813291

>  <N_rotatable_bonds>  (477) 
2

>  <N_HA>  (477) 
11

>  <cluster>  (477) 
5408

>  <N_interactions>  (477) 
2

>  <Enamine>  (477) 
1

>  <Mcule>  (477) 
0

>  <N_PAINS>  (477) 
0

>  <UFF_Gibbs>  (477) 
31.685096

>  <strain_per_HA>  (477) 
1.980319

>  <saltbridge:HIS:51>  (477) 
0

>  <pistack:HIS:51>  (477) 
0

>  <hydroph_interaction:HIS:51>  (477) 
0

>  <hbond:ALA:132>  (477) 
0

>  <hbond:SER:135>  (477) 
0

>  <hydroph_interaction:TYR:150>  (477) 
0

>  <pistack:TYR:161>  (477) 
0

>  <hydroph_interaction:TYR:161>  (477) 
2

>  <hydroph_interaction:ASP:83>  (477) 
0

>  <hbond:TYR:130>  (477) 
0

>  <hydroph_interaction:ALA:132>  (477) 
0

>  <hbond:HIS:51>  (477) 
0

>  <hbond:ASP:129>  (477) 
0

>  <hbond:TYR:150>  (477) 
0

>  <hbond:GLY:151>  (477) 
0

>  <hbond:TYR:161>  (477) 
0

>  <hydroph_interaction:TYR:130>  (477) 
0

>  <hydroph_interaction:PRO:131>  (477) 
0

>  <hydroph_interaction:ASP:129>  (477) 
0

>  <saltbridge:ASP:75>  (477) 
0

>  <saltbridge:ASP:83>  (477) 
0

>  <hydroph_interaction:ASN:152>  (477) 
0

>  <halogenbond:TYR:150>  (477) 
0

>  <hbond:ASP:83>  (477) 
0

>  <hydroph_interaction:VAL:155>  (477) 
0

>  <pication:TYR:161>  (477) 
0

>  <hbond:PRO:131>  (477) 
0

>  <hbond:LEU:128>  (477) 
0

>  <saltbridge:ASP:129>  (477) 
0

>  <hbond:THR:134>  (477) 
0

>  <pication:HIS:51>  (477) 
0

>  <hbond:SER:81>  (477) 
0

>  <hbond:GLY:159>  (477) 
0

>  <hydroph_interaction:PRO:101>  (477) 
0

>  <hydroph_interaction:THR:134>  (477) 
0

>  <hbond:GLY:82>  (477) 
0

>  <hydroph_interaction:GLU:104>  (477) 
0

>  <hydroph_interaction:VAL:36>  (477) 
0

>  <hydroph_interaction:MET:49>  (477) 
0

>  <halogenbond:GLU:104>  (477) 
0

>  <hydroph_interaction:LYS:107>  (477) 
0

$$$$
ROMAVJDKJRGLIZ-UHFFFAOYSA-N
     RDKit          3D

 26 27  0  0  0  0  0  0  0  0999 V2000
   -8.2936    5.0290  -17.2547 C   0  0  0  0  0  0  0  0  0  0  0  0
   -7.5303    4.4787  -18.3337 N   0  0  0  0  0  0  0  0  0  0  0  0
   -6.2279    4.9723  -18.6772 C   0  0  0  0  0  0  0  0  0  0  0  0
   -6.0442    5.5375  -19.9447 C   0  0  0  0  0  0  0  0  0  0  0  0
   -4.8084    6.0624  -20.3137 C   0  0  0  0  0  0  0  0  0  0  0  0
   -3.7405    6.0326  -19.4195 C   0  0  0  0  0  0  0  0  0  0  0  0
   -3.8896    5.4600  -18.1458 C   0  0  0  0  0  0  0  0  0  0  0  0
   -2.7022    5.4364  -17.2180 C   0  0  0  0  0  0  0  0  0  0  0  0
   -5.1324    4.8790  -17.7800 C   0  0  0  0  0  0  0  0  0  0  0  0
   -5.2846    4.1761  -16.4500 C   0  0  0  0  0  0  0  0  0  0  0  0
   -7.8800    6.0643  -16.4918 N   0  0  0  0  0  0  0  0  0  0  0  0
   -8.8080    6.3949  -15.5550 C   0  0  0  0  0  0  0  0  0  0  0  0
   -9.9670    5.6265  -15.5750 C   0  0  0  0  0  0  0  0  0  0  0  0
   -9.8223    4.4934  -16.8109 S   0  0  0  0  0  0  0  0  0  0  0  0
   -8.0175    3.8473  -19.0085 H   0  0  0  0  0  0  0  0  0  0  0  0
   -6.8715    5.5867  -20.6419 H   0  0  0  0  0  0  0  0  0  0  0  0
   -4.6803    6.5042  -21.2935 H   0  0  0  0  0  0  0  0  0  0  0  0
   -2.7916    6.4560  -19.7253 H   0  0  0  0  0  0  0  0  0  0  0  0
   -2.2742    4.4128  -17.1859 H   0  0  0  0  0  0  0  0  0  0  0  0
   -3.0054    5.7440  -16.1952 H   0  0  0  0  0  0  0  0  0  0  0  0
   -1.9093    6.1380  -17.5547 H   0  0  0  0  0  0  0  0  0  0  0  0
   -6.1362    3.4654  -16.4529 H   0  0  0  0  0  0  0  0  0  0  0  0
   -5.4383    4.9259  -15.6463 H   0  0  0  0  0  0  0  0  0  0  0  0
   -4.3816    3.5747  -16.2174 H   0  0  0  0  0  0  0  0  0  0  0  0
   -8.6492    7.2006  -14.8512 H   0  0  0  0  0  0  0  0  0  0  0  0
  -10.8139    5.7415  -14.9123 H   0  0  0  0  0  0  0  0  0  0  0  0
  1  2  1  0
  2  3  1  0
  3  4  2  0
  4  5  1  0
  5  6  2  0
  6  7  1  0
  7  8  1  0
  7  9  2  0
  9 10  1  0
  1 11  2  0
 11 12  1  0
 12 13  2  0
 13 14  1  0
 14  1  1  0
  3  9  1  0
  2 15  1  0
  4 16  1  0
  5 17  1  0
  6 18  1  0
  8 19  1  0
  8 20  1  0
  8 21  1  0
 10 22  1  0
 10 23  1  0
 10 24  1  0
 12 25  1  0
 13 26  1  0
A    1
 C1 
A    2
 N1 
A    3
 C2 
A    4
 C3 
A    5
 C4 
A    6
 C5 
A    7
 C6 
A    8
 C7 
A    9
 C8 
A   10
 C9 
A   11
 N2 
A   12
 C10
A   13
 C11
A   14
 S1 
A   15
 H1 
A   16
 H2 
A   17
 H3 
A   18
 H4 
A   19
 H5 
A   20
 H6 
A   21
 H7 
A   22
 H8 
A   23
 H9 
A   24
 H10
A   25
 H11
A   26
 H12
M  END
>  <ref_pdb>  (478) 
x0051_0B

>  <ref_mols>  (478) 
x0680_0B,x0472_0B

>  <original SMILES>  (478) 
[H]c1nc(N([H])c2c([H])c([H])c([H])c(C([H])([H])[H])c2C([H])([H])[H])sc1[H]

>  <index>  (478) 
92

>  <∆∆G>  (478) 
-6.379465

>  <∆G_bound>  (478) 
-6.447472

>  <∆G_unbound>  (478) 
-0.068007

>  <comRMSD>  (478) 
0.806546

>  <N_constrained_atoms>  (478) 
14.0

>  <N_unconstrained_atoms>  (478) 
2.0

>  <runtime>  (478) 
26.857361

>  <LE>  (478) 
0.398717

>  <percent_hybrid>  (478) 
40.0

>  <dist>  (478) 
6.0

>  <ecfp4>  (478) 
0.138462

>  <daylight>  (478) 
0.125984

>  <topodist>  (478) 
3.0

>  <mces>  (478) 
15.0

>  <tdn>  (478) 
1.0

>  <tup>  (478) 
0.0

>  <rdn>  (478) 
1.0

>  <rup>  (478) 
0.0

>  <ldn>  (478) 
1.0

>  <lup>  (478) 
0.0

>  <mut>  (478) 
3.0

>  <maj>  (478) 
3.0

>  <min>  (478) 
0.0

>  <hyb>  (478) 
0.0

>  <sub>  (478) 
2.0

>  <query_index>  (478) 
38.0

>  <max_hit_Tanimoto>  (478) 
0.158163

>  <largest_ring>  (478) 
6

>  <N_interactions_kept>  (478) 
4.5

>  <N_interactions_lost>  (478) 
0.5

>  <interaction_uniqueness_metric>  (478) 
0.076311

>  <ad_hoc_penalty>  (478) 
-17.803701

>  <N_rotatable_bonds>  (478) 
4

>  <N_HA>  (478) 
14

>  <cluster>  (478) 
6132

>  <N_interactions>  (478) 
6

>  <Enamine>  (478) 
0

>  <Mcule>  (478) 
1

>  <N_PAINS>  (478) 
0

>  <UFF_Gibbs>  (478) 
285.105285

>  <strain_per_HA>  (478) 
17.81908

>  <saltbridge:HIS:51>  (478) 
0

>  <pistack:HIS:51>  (478) 
0

>  <hydroph_interaction:HIS:51>  (478) 
0

>  <hbond:ALA:132>  (478) 
0

>  <hbond:SER:135>  (478) 
0

>  <hydroph_interaction:TYR:150>  (478) 
0

>  <pistack:TYR:161>  (478) 
0

>  <hydroph_interaction:TYR:161>  (478) 
4

>  <hydroph_interaction:ASP:83>  (478) 
0

>  <hbond:TYR:130>  (478) 
1

>  <hydroph_interaction:ALA:132>  (478) 
0

>  <hbond:HIS:51>  (478) 
0

>  <hbond:ASP:129>  (478) 
0

>  <hbond:TYR:150>  (478) 
0

>  <hbond:GLY:151>  (478) 
0

>  <hbond:TYR:161>  (478) 
0

>  <hydroph_interaction:TYR:130>  (478) 
0

>  <hydroph_interaction:PRO:131>  (478) 
0

>  <hydroph_interaction:ASP:129>  (478) 
0

>  <saltbridge:ASP:75>  (478) 
0

>  <saltbridge:ASP:83>  (478) 
0

>  <hydroph_interaction:ASN:152>  (478) 
0

>  <halogenbond:TYR:150>  (478) 
0

>  <hbond:ASP:83>  (478) 
0

>  <hydroph_interaction:VAL:155>  (478) 
1

>  <pication:TYR:161>  (478) 
0

>  <hbond:PRO:131>  (478) 
0

>  <hbond:LEU:128>  (478) 
0

>  <saltbridge:ASP:129>  (478) 
0

>  <hbond:THR:134>  (478) 
0

>  <pication:HIS:51>  (478) 
0

>  <hbond:SER:81>  (478) 
0

>  <hbond:GLY:159>  (478) 
0

>  <hydroph_interaction:PRO:101>  (478) 
0

>  <hydroph_interaction:THR:134>  (478) 
0

>  <hbond:GLY:82>  (478) 
0

>  <hydroph_interaction:GLU:104>  (478) 
0

>  <hydroph_interaction:VAL:36>  (478) 
0

>  <hydroph_interaction:MET:49>  (478) 
0

>  <halogenbond:GLU:104>  (478) 
0

>  <hydroph_interaction:LYS:107>  (478) 
0

$$$$
Z2732687556
     RDKit          3D

 42 44  0  0  0  0  0  0  0  0999 V2000
   -7.5325    5.5298   -8.8215 C   0  0  0  0  0  0  0  0  0  0  0  0
   -7.5341    5.5278  -10.3118 C   0  0  0  0  0  0  0  0  0  0  0  0
   -7.1795    6.5956  -11.0609 N   0  0  0  0  0  0  0  0  0  0  0  0
   -7.3228    6.3915  -12.3692 N   0  0  0  0  0  0  0  0  0  0  0  0
   -7.8012    5.1621  -12.6638 C   0  0  0  0  0  0  0  0  0  0  0  0
   -8.0719    4.6989  -13.9927 N   0  0  0  0  0  0  0  0  0  0  0  0
   -7.7484    5.4498  -15.1758 C   0  0  0  0  0  0  0  0  0  0  0  0
   -6.9650    6.4357  -15.0989 O   0  0  0  0  0  0  0  0  0  0  0  0
   -8.2977    5.0641  -16.4979 C   0  0  0  0  0  0  0  0  0  0  0  0
   -9.5061    4.3193  -16.5979 C   0  0  0  0  0  0  0  0  0  0  0  0
  -10.0280    3.9546  -17.8524 C   0  0  0  0  0  0  0  0  0  0  0  0
   -9.3307    4.3570  -18.9857 C   0  0  0  0  0  0  0  0  0  0  0  0
   -9.6261    4.1080  -20.2736 N   0  0  0  0  0  0  0  0  0  0  0  0
   -8.6193    4.7031  -20.9552 C   0  0  0  0  0  0  0  0  0  0  0  0
   -8.5267    4.6710  -22.2115 O   0  0  0  0  0  0  0  0  0  0  0  0
   -7.7192    5.3249  -20.1520 N   0  0  0  0  0  0  0  0  0  0  0  0
   -6.4812    5.9968  -20.5506 C   0  0  0  0  0  0  0  0  0  0  0  0
   -5.3099    5.0096  -20.5185 C   0  0  0  0  0  0  0  0  0  0  0  0
   -4.0313    5.7068  -20.7772 N   0  0  0  0  0  0  0  0  0  0  0  0
   -3.8001    5.8695  -22.2236 C   0  0  0  0  0  0  0  0  0  0  0  0
   -2.9127    4.9538  -20.1867 C   0  0  0  0  0  0  0  0  0  0  0  0
   -8.1772    5.0863  -18.9063 C   0  0  0  0  0  0  0  0  0  0  0  0
   -7.6256    5.4593  -17.6801 C   0  0  0  0  0  0  0  0  0  0  0  0
   -8.0872    4.2579  -11.2724 S   0  0  0  0  0  0  0  0  0  0  0  0
   -6.7369    6.2058   -8.4441 H   0  0  0  0  0  0  0  0  0  0  0  0
   -7.3430    4.5042   -8.4413 H   0  0  0  0  0  0  0  0  0  0  0  0
   -8.5179    5.8814   -8.4516 H   0  0  0  0  0  0  0  0  0  0  0  0
   -8.4889    3.7469  -14.0915 H   0  0  0  0  0  0  0  0  0  0  0  0
  -10.0580    4.0355  -15.7121 H   0  0  0  0  0  0  0  0  0  0  0  0
  -10.9438    3.3832  -17.9317 H   0  0  0  0  0  0  0  0  0  0  0  0
  -10.4332    3.5674  -20.6574 H   0  0  0  0  0  0  0  0  0  0  0  0
   -6.6045    6.4184  -21.5699 H   0  0  0  0  0  0  0  0  0  0  0  0
   -6.2767    6.8454  -19.8629 H   0  0  0  0  0  0  0  0  0  0  0  0
   -5.3010    4.5453  -19.5059 H   0  0  0  0  0  0  0  0  0  0  0  0
   -5.4830    4.1894  -21.2521 H   0  0  0  0  0  0  0  0  0  0  0  0
   -2.8520    6.4221  -22.3986 H   0  0  0  0  0  0  0  0  0  0  0  0
   -3.7419    4.8846  -22.7388 H   0  0  0  0  0  0  0  0  0  0  0  0
   -4.6095    6.4719  -22.6843 H   0  0  0  0  0  0  0  0  0  0  0  0
   -1.9489    5.4688  -20.3904 H   0  0  0  0  0  0  0  0  0  0  0  0
   -2.8655    3.9184  -20.5930 H   0  0  0  0  0  0  0  0  0  0  0  0
   -3.0257    4.9063  -19.0821 H   0  0  0  0  0  0  0  0  0  0  0  0
   -6.7030    6.0237  -17.6402 H   0  0  0  0  0  0  0  0  0  0  0  0
  1  2  1  0
  2  3  2  0
  3  4  1  0
  4  5  2  0
  5  6  1  0
  6  7  1  0
  7  8  2  0
  7  9  1  0
  9 10  2  0
 10 11  1  0
 11 12  2  0
 12 13  1  0
 13 14  1  0
 14 15  2  0
 14 16  1  0
 16 17  1  0
 17 18  1  0
 18 19  1  0
 19 20  1  0
 19 21  1  0
 16 22  1  0
 22 23  2  0
  5 24  1  0
 24  2  1  0
 23  9  1  0
 22 12  1  0
  1 25  1  0
  1 26  1  0
  1 27  1  0
  6 28  1  0
 10 29  1  0
 11 30  1  0
 13 31  1  0
 17 32  1  0
 17 33  1  0
 18 34  1  0
 18 35  1  0
 20 36  1  0
 20 37  1  0
 20 38  1  0
 21 39  1  0
 21 40  1  0
 21 41  1  0
 23 42  1  0
A    1
 C1 
A    2
 C2 
A    3
 N1 
A    4
 N2 
A    5
 C3 
A    6
 N3 
A    7
 C4 
A    8
 O1 
A    9
 C5 
A   10
 C6 
A   11
 C7 
A   12
 C8 
A   13
 N4 
A   14
 C9 
A   15
 O2 
A   16
 N5 
A   17
 C10
A   18
 C11
A   19
 N6 
A   20
 C12
A   21
 C13
A   22
 C14
A   23
 C15
A   24
 S1 
A   25
 H1 
A   26
 H2 
A   27
 H3 
A   28
 H4 
A   29
 H5 
A   30
 H6 
A   31
 H7 
A   32
 H8 
A   33
 H9 
A   34
 H10
A   35
 H11
A   36
 H12
A   37
 H13
A   38
 H14
A   39
 H15
A   40
 H16
A   41
 H17
A   42
 H18
M  END
>  <ref_pdb>  (479) 
x0051_0B

>  <ref_mols>  (479) 
x0904_0B,x1098_0B

>  <original SMILES>  (479) 
[H]c1c(C(=O)N([H])c2nnc(C([H])([H])[H])s2)c([H])c2c(c1[H])n([H])c(=O)n2C([H])([H])C([H])([H])N(C([H])([H])[H])C([H])([H])[H]

>  <index>  (479) 
1005

>  <∆∆G>  (479) 
-8.087104

>  <∆G_bound>  (479) 
-7.395678

>  <∆G_unbound>  (479) 
0.691426

>  <comRMSD>  (479) 
0.776288

>  <N_constrained_atoms>  (479) 
24.0

>  <N_unconstrained_atoms>  (479) 
2.0

>  <runtime>  (479) 
79.738571

>  <LE>  (479) 
0.311042

>  <percent_hybrid>  (479) 
42.0

>  <dist>  (479) 
9.0

>  <ecfp4>  (479) 
0.218391

>  <daylight>  (479) 
0.354978

>  <topodist>  (479) 
2.0

>  <mces>  (479) 
25.0

>  <tdn>  (479) 
1.0

>  <tup>  (479) 
0.0

>  <rdn>  (479) 
0.0

>  <rup>  (479) 
1.0

>  <ldn>  (479) 
0.0

>  <lup>  (479) 
0.0

>  <mut>  (479) 
5.0

>  <maj>  (479) 
5.0

>  <min>  (479) 
0.0

>  <hyb>  (479) 
2.0

>  <sub>  (479) 
1.0

>  <query_index>  (479) 
34.0

>  <max_hit_Tanimoto>  (479) 
0.275475

>  <largest_ring>  (479) 
6

>  <N_interactions_kept>  (479) 
1.5

>  <N_interactions_lost>  (479) 
4.5

>  <interaction_uniqueness_metric>  (479) 
0.43339

>  <ad_hoc_penalty>  (479) 
-17.793363

>  <N_rotatable_bonds>  (479) 
8

>  <N_HA>  (479) 
24

>  <cluster>  (479) 
5296

>  <N_interactions>  (479) 
11

>  <Enamine>  (479) 
1

>  <Mcule>  (479) 
0

>  <N_PAINS>  (479) 
0

>  <UFF_Gibbs>  (479) 
135.491772

>  <strain_per_HA>  (479) 
5.211222

>  <saltbridge:HIS:51>  (479) 
0

>  <pistack:HIS:51>  (479) 
1

>  <hydroph_interaction:HIS:51>  (479) 
1

>  <hbond:ALA:132>  (479) 
0

>  <hbond:SER:135>  (479) 
0

>  <hydroph_interaction:TYR:150>  (479) 
1

>  <pistack:TYR:161>  (479) 
2

>  <hydroph_interaction:TYR:161>  (479) 
0

>  <hydroph_interaction:ASP:83>  (479) 
0

>  <hbond:TYR:130>  (479) 
1

>  <hydroph_interaction:ALA:132>  (479) 
1

>  <hbond:HIS:51>  (479) 
0

>  <hbond:ASP:129>  (479) 
1

>  <hbond:TYR:150>  (479) 
1

>  <hbond:GLY:151>  (479) 
1

>  <hbond:TYR:161>  (479) 
0

>  <hydroph_interaction:TYR:130>  (479) 
0

>  <hydroph_interaction:PRO:131>  (479) 
0

>  <hydroph_interaction:ASP:129>  (479) 
0

>  <saltbridge:ASP:75>  (479) 
0

>  <saltbridge:ASP:83>  (479) 
0

>  <hydroph_interaction:ASN:152>  (479) 
0

>  <halogenbond:TYR:150>  (479) 
0

>  <hbond:ASP:83>  (479) 
0

>  <hydroph_interaction:VAL:155>  (479) 
0

>  <pication:TYR:161>  (479) 
0

>  <hbond:PRO:131>  (479) 
0

>  <hbond:LEU:128>  (479) 
0

>  <saltbridge:ASP:129>  (479) 
1

>  <hbond:THR:134>  (479) 
0

>  <pication:HIS:51>  (479) 
0

>  <hbond:SER:81>  (479) 
0

>  <hbond:GLY:159>  (479) 
0

>  <hydroph_interaction:PRO:101>  (479) 
0

>  <hydroph_interaction:THR:134>  (479) 
0

>  <hbond:GLY:82>  (479) 
0

>  <hydroph_interaction:GLU:104>  (479) 
0

>  <hydroph_interaction:VAL:36>  (479) 
0

>  <hydroph_interaction:MET:49>  (479) 
0

>  <halogenbond:GLU:104>  (479) 
0

>  <hydroph_interaction:LYS:107>  (479) 
0

$$$$
MCULE-3562839390
     RDKit          3D

 53 57  0  0  0  0  0  0  0  0999 V2000
   -5.9474    6.7734  -17.9950 N   0  0  0  0  0  0  0  0  0  0  0  0
   -4.7418    7.2985  -18.6285 C   0  0  0  0  0  0  0  0  0  0  0  0
   -4.1338    6.2493  -19.5197 C   0  0  0  0  0  0  0  0  0  0  0  0
   -3.2769    5.4646  -19.0354 O   0  0  0  0  0  0  0  0  0  0  0  0
   -4.6046    6.0116  -20.8183 O   0  0  0  0  0  0  0  0  0  0  0  0
   -5.0970    6.9957  -21.6838 C   0  0  0  0  0  0  0  0  0  0  0  0
   -6.1856    6.6902  -22.5076 C   0  0  0  0  0  0  0  0  0  0  0  0
   -6.7008    7.6500  -23.3838 C   0  0  0  0  0  0  0  0  0  0  0  0
   -6.1214    8.9274  -23.4552 C   0  0  0  0  0  0  0  0  0  0  0  0
   -5.0073    9.2218  -22.6542 C   0  0  0  0  0  0  0  0  0  0  0  0
   -4.4950    8.2614  -21.7774 C   0  0  0  0  0  0  0  0  0  0  0  0
   -6.6603    9.9612  -24.4056 C   0  0  0  0  0  0  0  0  0  0  0  0
   -5.7939   10.0682  -25.5796 N   0  0  0  0  0  0  0  0  0  0  0  0
   -6.3092   10.4256  -26.8680 C   0  0  0  0  0  0  0  0  0  0  0  0
   -5.7216   11.3142  -27.5411 O   0  0  0  0  0  0  0  0  0  0  0  0
   -7.4916    9.7549  -27.4365 C   0  0  0  0  0  0  0  0  0  0  0  0
   -8.3020   10.2811  -28.4418 C   0  0  0  0  0  0  0  0  0  0  0  0
   -9.2524    9.3113  -28.6754 C   0  0  0  0  0  0  0  0  0  0  0  0
   -8.9828    8.2594  -27.8381 C   0  0  0  0  0  0  0  0  0  0  0  0
   -9.7618    7.1031  -27.8410 C   0  0  0  0  0  0  0  0  0  0  0  0
  -10.8501    7.0466  -28.7314 C   0  0  0  0  0  0  0  0  0  0  0  0
  -11.1302    8.1337  -29.5894 C   0  0  0  0  0  0  0  0  0  0  0  0
  -10.3226    9.2859  -29.5675 C   0  0  0  0  0  0  0  0  0  0  0  0
   -7.9056    8.5158  -27.0774 N   0  0  0  0  0  0  0  0  0  0  0  0
   -5.9919    5.8496  -16.9037 C   0  0  0  0  0  0  0  0  0  0  0  0
   -5.0139    5.5924  -16.1520 O   0  0  0  0  0  0  0  0  0  0  0  0
   -7.3128    5.2381  -16.8185 C   0  0  0  0  0  0  0  0  0  0  0  0
   -8.0765    5.7475  -17.8473 C   0  0  0  0  0  0  0  0  0  0  0  0
   -9.3923    5.3368  -18.0519 C   0  0  0  0  0  0  0  0  0  0  0  0
   -9.9299    4.3822  -17.1697 C   0  0  0  0  0  0  0  0  0  0  0  0
   -9.1482    3.8610  -16.1153 C   0  0  0  0  0  0  0  0  0  0  0  0
   -7.8205    4.2878  -15.9343 C   0  0  0  0  0  0  0  0  0  0  0  0
   -7.2458    6.6877  -18.5903 C   0  0  0  0  0  0  0  0  0  0  0  0
   -7.6006    7.3279  -19.6160 O   0  0  0  0  0  0  0  0  0  0  0  0
   -4.0108    7.5913  -17.8449 H   0  0  0  0  0  0  0  0  0  0  0  0
   -4.9951    8.2172  -19.1917 H   0  0  0  0  0  0  0  0  0  0  0  0
   -6.6447    5.7106  -22.4557 H   0  0  0  0  0  0  0  0  0  0  0  0
   -7.5558    7.3972  -23.9978 H   0  0  0  0  0  0  0  0  0  0  0  0
   -4.5336   10.1938  -22.7121 H   0  0  0  0  0  0  0  0  0  0  0  0
   -3.6230    8.4989  -21.1817 H   0  0  0  0  0  0  0  0  0  0  0  0
   -6.6997   10.9481  -23.8961 H   0  0  0  0  0  0  0  0  0  0  0  0
   -7.7022    9.7113  -24.6981 H   0  0  0  0  0  0  0  0  0  0  0  0
   -4.7819   10.2632  -25.4057 H   0  0  0  0  0  0  0  0  0  0  0  0
   -8.2087   11.2415  -28.9317 H   0  0  0  0  0  0  0  0  0  0  0  0
   -9.5395    6.2768  -27.1784 H   0  0  0  0  0  0  0  0  0  0  0  0
  -11.4778    6.1655  -28.7575 H   0  0  0  0  0  0  0  0  0  0  0  0
  -11.9708    8.0798  -30.2700 H   0  0  0  0  0  0  0  0  0  0  0  0
  -10.5254   10.1220  -30.2236 H   0  0  0  0  0  0  0  0  0  0  0  0
   -7.4632    7.8752  -26.3826 H   0  0  0  0  0  0  0  0  0  0  0  0
   -9.9811    5.7345  -18.8687 H   0  0  0  0  0  0  0  0  0  0  0  0
  -10.9490    4.0429  -17.3020 H   0  0  0  0  0  0  0  0  0  0  0  0
   -9.5723    3.1256  -15.4445 H   0  0  0  0  0  0  0  0  0  0  0  0
   -7.2124    3.8885  -15.1323 H   0  0  0  0  0  0  0  0  0  0  0  0
  1  2  1  0
  2  3  1  0
  3  4  2  0
  3  5  1  0
  5  6  1  0
  6  7  2  0
  7  8  1  0
  8  9  2  0
  9 10  1  0
 10 11  2  0
  9 12  1  0
 12 13  1  0
 13 14  1  0
 14 15  2  0
 14 16  1  0
 16 17  2  0
 17 18  1  0
 18 19  2  0
 19 20  1  0
 20 21  2  0
 21 22  1  0
 22 23  2  0
 19 24  1  0
  1 25  1  0
 25 26  2  0
 25 27  1  0
 27 28  2  0
 28 29  1  0
 29 30  2  0
 30 31  1  0
 31 32  2  0
 28 33  1  0
 33 34  2  0
 33  1  1  0
 11  6  1  0
 24 16  1  0
 18 23  1  0
 32 27  1  0
  2 35  1  0
  2 36  1  0
  7 37  1  0
  8 38  1  0
 10 39  1  0
 11 40  1  0
 12 41  1  0
 12 42  1  0
 13 43  1  0
 17 44  1  0
 20 45  1  0
 21 46  1  0
 22 47  1  0
 23 48  1  0
 24 49  1  0
 29 50  1  0
 30 51  1  0
 31 52  1  0
 32 53  1  0
A    1
 N1 
A    2
 C1 
A    3
 C2 
A    4
 O1 
A    5
 O2 
A    6
 C3 
A    7
 C4 
A    8
 C5 
A    9
 C6 
A   10
 C7 
A   11
 C8 
A   12
 C9 
A   13
 N2 
A   14
 C10
A   15
 O3 
A   16
 C11
A   17
 C12
A   18
 C13
A   19
 C14
A   20
 C15
A   21
 C16
A   22
 C17
A   23
 C18
A   24
 N3 
A   25
 C19
A   26
 O4 
A   27
 C20
A   28
 C21
A   29
 C22
A   30
 C23
A   31
 C24
A   32
 C25
A   33
 C26
A   34
 O5 
A   35
 H1 
A   36
 H2 
A   37
 H3 
A   38
 H4 
A   39
 H5 
A   40
 H6 
A   41
 H7 
A   42
 H8 
A   43
 H9 
A   44
 H10
A   45
 H11
A   46
 H12
A   47
 H13
A   48
 H14
A   49
 H15
A   50
 H16
A   51
 H17
A   52
 H18
A   53
 H19
M  END
>  <ref_pdb>  (480) 
x0051_0B

>  <ref_mols>  (480) 
x0846_1B,x0727_0B

>  <original SMILES>  (480) 
[H]c1c([H])c([H])c2c(c1[H])C(=O)N(C([H])([H])C(=O)Oc1c([H])c([H])c(C([H])([H])N([H])C(=O)c3c([H])c4c([H])c([H])c([H])c([H])c4n3[H])c([H])c1[H])C2=O

>  <index>  (480) 
682

>  <∆∆G>  (480) 
-10.074043

>  <∆G_bound>  (480) 
-8.219509

>  <∆G_unbound>  (480) 
1.854534

>  <comRMSD>  (480) 
0.84147

>  <N_constrained_atoms>  (480) 
29.0

>  <N_unconstrained_atoms>  (480) 
6.0

>  <runtime>  (480) 
71.771598

>  <LE>  (480) 
0.28783

>  <percent_hybrid>  (480) 
38.0

>  <dist>  (480) 
11.0

>  <ecfp4>  (480) 
0.164948

>  <daylight>  (480) 
0.359504

>  <topodist>  (480) 
8.0

>  <mces>  (480) 
33.0

>  <tdn>  (480) 
2.0

>  <tup>  (480) 
3.0

>  <rdn>  (480) 
0.0

>  <rup>  (480) 
0.0

>  <ldn>  (480) 
1.0

>  <lup>  (480) 
2.0

>  <mut>  (480) 
3.0

>  <maj>  (480) 
3.0

>  <min>  (480) 
0.0

>  <hyb>  (480) 
0.0

>  <sub>  (480) 
2.0

>  <query_index>  (480) 
17.0

>  <max_hit_Tanimoto>  (480) 
0.238514

>  <largest_ring>  (480) 
6

>  <N_interactions_kept>  (480) 
1.0

>  <N_interactions_lost>  (480) 
2.0

>  <interaction_uniqueness_metric>  (480) 
0.133941

>  <ad_hoc_penalty>  (480) 
-17.775735

>  <N_rotatable_bonds>  (480) 
6

>  <N_HA>  (480) 
34

>  <cluster>  (480) 
5593

>  <N_interactions>  (480) 
5

>  <Enamine>  (480) 
0

>  <Mcule>  (480) 
1

>  <N_PAINS>  (480) 
0

>  <UFF_Gibbs>  (480) 
180.730453

>  <strain_per_HA>  (480) 
5.163727

>  <saltbridge:HIS:51>  (480) 
0

>  <pistack:HIS:51>  (480) 
0

>  <hydroph_interaction:HIS:51>  (480) 
0

>  <hbond:ALA:132>  (480) 
0

>  <hbond:SER:135>  (480) 
0

>  <hydroph_interaction:TYR:150>  (480) 
1

>  <pistack:TYR:161>  (480) 
0

>  <hydroph_interaction:TYR:161>  (480) 
2

>  <hydroph_interaction:ASP:83>  (480) 
0

>  <hbond:TYR:130>  (480) 
0

>  <hydroph_interaction:ALA:132>  (480) 
0

>  <hbond:HIS:51>  (480) 
0

>  <hbond:ASP:129>  (480) 
0

>  <hbond:TYR:150>  (480) 
0

>  <hbond:GLY:151>  (480) 
0

>  <hbond:TYR:161>  (480) 
0

>  <hydroph_interaction:TYR:130>  (480) 
1

>  <hydroph_interaction:PRO:131>  (480) 
1

>  <hydroph_interaction:ASP:129>  (480) 
0

>  <saltbridge:ASP:75>  (480) 
0

>  <saltbridge:ASP:83>  (480) 
0

>  <hydroph_interaction:ASN:152>  (480) 
0

>  <halogenbond:TYR:150>  (480) 
0

>  <hbond:ASP:83>  (480) 
0

>  <hydroph_interaction:VAL:155>  (480) 
0

>  <pication:TYR:161>  (480) 
0

>  <hbond:PRO:131>  (480) 
0

>  <hbond:LEU:128>  (480) 
0

>  <saltbridge:ASP:129>  (480) 
0

>  <hbond:THR:134>  (480) 
0

>  <pication:HIS:51>  (480) 
0

>  <hbond:SER:81>  (480) 
0

>  <hbond:GLY:159>  (480) 
0

>  <hydroph_interaction:PRO:101>  (480) 
0

>  <hydroph_interaction:THR:134>  (480) 
0

>  <hbond:GLY:82>  (480) 
0

>  <hydroph_interaction:GLU:104>  (480) 
0

>  <hydroph_interaction:VAL:36>  (480) 
0

>  <hydroph_interaction:MET:49>  (480) 
0

>  <halogenbond:GLU:104>  (480) 
0

>  <hydroph_interaction:LYS:107>  (480) 
0

$$$$
OIHXZMSINZKCOY-UHFFFAOYSA-N
     RDKit          3D

 42 45  0  0  0  0  0  0  0  0999 V2000
   -7.3704    9.0169  -24.4254 C   0  0  0  0  0  0  0  0  0  0  0  0
   -7.5245    8.1899  -25.5915 N   0  0  0  0  0  0  0  0  0  0  0  0
   -8.2795    8.5655  -26.7521 C   0  0  0  0  0  0  0  0  0  0  0  0
   -9.3506    9.8806  -26.8515 S   0  0  0  0  0  0  0  0  0  0  0  0
   -9.7687    9.5072  -28.4329 C   0  0  0  0  0  0  0  0  0  0  0  0
   -9.0761    8.3747  -28.8325 C   0  0  0  0  0  0  0  0  0  0  0  0
   -9.2558    7.8546  -30.1155 C   0  0  0  0  0  0  0  0  0  0  0  0
  -10.1480    8.5022  -30.9878 C   0  0  0  0  0  0  0  0  0  0  0  0
  -10.8463    9.6530  -30.5702 C   0  0  0  0  0  0  0  0  0  0  0  0
  -10.6587   10.1664  -29.2769 C   0  0  0  0  0  0  0  0  0  0  0  0
   -8.2483    7.8415  -27.8979 N   0  0  0  0  0  0  0  0  0  0  0  0
   -7.5630   10.2606  -24.5071 O   0  0  0  0  0  0  0  0  0  0  0  0
   -6.9414    8.4330  -23.1310 C   0  0  0  0  0  0  0  0  0  0  0  0
   -7.1271    7.0669  -22.8558 C   0  0  0  0  0  0  0  0  0  0  0  0
   -6.7263    6.5282  -21.6298 C   0  0  0  0  0  0  0  0  0  0  0  0
   -6.1351    7.3433  -20.6493 C   0  0  0  0  0  0  0  0  0  0  0  0
   -5.7088    6.7706  -19.3467 C   0  0  0  0  0  0  0  0  0  0  0  0
   -4.4931    7.1635  -18.7595 C   0  0  0  0  0  0  0  0  0  0  0  0
   -4.0919    6.6235  -17.5360 C   0  0  0  0  0  0  0  0  0  0  0  0
   -4.8968    5.6879  -16.8840 C   0  0  0  0  0  0  0  0  0  0  0  0
   -6.1113    5.2818  -17.4466 C   0  0  0  0  0  0  0  0  0  0  0  0
   -6.8847    4.3410  -16.7502 O   0  0  0  0  0  0  0  0  0  0  0  0
   -8.1373    3.8361  -17.2016 C   0  0  0  0  0  0  0  0  0  0  0  0
   -6.5148    5.8271  -18.6817 C   0  0  0  0  0  0  0  0  0  0  0  0
   -5.9582    8.7107  -20.9206 C   0  0  0  0  0  0  0  0  0  0  0  0
   -6.3609    9.2499  -22.1455 C   0  0  0  0  0  0  0  0  0  0  0  0
   -7.0234    7.2743  -25.6265 H   0  0  0  0  0  0  0  0  0  0  0  0
   -8.7197    6.9700  -30.4347 H   0  0  0  0  0  0  0  0  0  0  0  0
  -10.3000    8.1139  -31.9865 H   0  0  0  0  0  0  0  0  0  0  0  0
  -11.5313   10.1433  -31.2496 H   0  0  0  0  0  0  0  0  0  0  0  0
  -11.1914   11.0486  -28.9466 H   0  0  0  0  0  0  0  0  0  0  0  0
   -7.5984    6.4124  -23.5770 H   0  0  0  0  0  0  0  0  0  0  0  0
   -6.8683    5.4692  -21.4539 H   0  0  0  0  0  0  0  0  0  0  0  0
   -3.8445    7.8749  -19.2551 H   0  0  0  0  0  0  0  0  0  0  0  0
   -3.1523    6.9284  -17.0936 H   0  0  0  0  0  0  0  0  0  0  0  0
   -4.5756    5.2754  -15.9358 H   0  0  0  0  0  0  0  0  0  0  0  0
   -8.8703    4.6646  -17.2991 H   0  0  0  0  0  0  0  0  0  0  0  0
   -8.5226    3.1068  -16.4600 H   0  0  0  0  0  0  0  0  0  0  0  0
   -8.0118    3.3192  -18.1765 H   0  0  0  0  0  0  0  0  0  0  0  0
   -7.4601    5.5357  -19.1189 H   0  0  0  0  0  0  0  0  0  0  0  0
   -5.5237    9.3682  -20.1780 H   0  0  0  0  0  0  0  0  0  0  0  0
   -6.2109   10.3076  -22.3237 H   0  0  0  0  0  0  0  0  0  0  0  0
  1  2  1  0
  2  3  1  0
  3  4  1  0
  4  5  1  0
  5  6  2  0
  6  7  1  0
  7  8  2  0
  8  9  1  0
  9 10  2  0
  6 11  1  0
  1 12  2  0
  1 13  1  0
 13 14  2  0
 14 15  1  0
 15 16  2  0
 16 17  1  0
 17 18  2  0
 18 19  1  0
 19 20  2  0
 20 21  1  0
 21 22  1  0
 22 23  1  0
 21 24  2  0
 16 25  1  0
 25 26  2  0
  3 11  2  0
 10  5  1  0
 26 13  1  0
 17 24  1  0
  2 27  1  0
  7 28  1  0
  8 29  1  0
  9 30  1  0
 10 31  1  0
 14 32  1  0
 15 33  1  0
 18 34  1  0
 19 35  1  0
 20 36  1  0
 23 37  1  0
 23 38  1  0
 23 39  1  0
 24 40  1  0
 25 41  1  0
 26 42  1  0
A    1
 C1 
A    2
 N1 
A    3
 C2 
A    4
 S1 
A    5
 C3 
A    6
 C4 
A    7
 C5 
A    8
 C6 
A    9
 C7 
A   10
 C8 
A   11
 N2 
A   12
 O1 
A   13
 C9 
A   14
 C10
A   15
 C11
A   16
 C12
A   17
 C13
A   18
 C14
A   19
 C15
A   20
 C16
A   21
 C17
A   22
 O2 
A   23
 C18
A   24
 C19
A   25
 C20
A   26
 C21
A   27
 H1 
A   28
 H2 
A   29
 H3 
A   30
 H4 
A   31
 H5 
A   32
 H6 
A   33
 H7 
A   34
 H8 
A   35
 H9 
A   36
 H10
A   37
 H11
A   38
 H12
A   39
 H13
A   40
 H14
A   41
 H15
A   42
 H16
M  END
>  <ref_pdb>  (481) 
x0051_0B

>  <ref_mols>  (481) 
x0846_1B,x0425_0B

>  <original SMILES>  (481) 
[H]c1c([H])c(OC([H])([H])[H])c([H])c(-c2c([H])c([H])c(C(=O)N([H])c3nc4c([H])c([H])c([H])c([H])c4s3)c([H])c2[H])c1[H]

>  <index>  (481) 
937

>  <∆∆G>  (481) 
-9.220306

>  <∆G_bound>  (481) 
-9.078654

>  <∆G_unbound>  (481) 
0.141652

>  <comRMSD>  (481) 
0.660882

>  <N_constrained_atoms>  (481) 
27.0

>  <N_unconstrained_atoms>  (481) 
1.0

>  <runtime>  (481) 
71.094326

>  <LE>  (481) 
0.329297

>  <percent_hybrid>  (481) 
34.0

>  <dist>  (481) 
10.0

>  <ecfp4>  (481) 
0.147368

>  <daylight>  (481) 
0.312

>  <topodist>  (481) 
6.0

>  <mces>  (481) 
28.0

>  <tdn>  (481) 
4.0

>  <tup>  (481) 
1.0

>  <rdn>  (481) 
0.0

>  <rup>  (481) 
0.0

>  <ldn>  (481) 
1.0

>  <lup>  (481) 
0.0

>  <mut>  (481) 
3.0

>  <maj>  (481) 
3.0

>  <min>  (481) 
0.0

>  <hyb>  (481) 
1.0

>  <sub>  (481) 
2.0

>  <query_index>  (481) 
25.0

>  <max_hit_Tanimoto>  (481) 
0.302511

>  <largest_ring>  (481) 
6

>  <N_interactions_kept>  (481) 
0.5

>  <N_interactions_lost>  (481) 
2.0

>  <interaction_uniqueness_metric>  (481) 
0.14019

>  <ad_hoc_penalty>  (481) 
-17.752835

>  <N_rotatable_bonds>  (481) 
5

>  <N_HA>  (481) 
26

>  <cluster>  (481) 
5361

>  <N_interactions>  (481) 
4

>  <Enamine>  (481) 
0

>  <Mcule>  (481) 
1

>  <N_PAINS>  (481) 
0

>  <UFF_Gibbs>  (481) 
81.603052

>  <strain_per_HA>  (481) 
2.914395

>  <saltbridge:HIS:51>  (481) 
0

>  <pistack:HIS:51>  (481) 
0

>  <hydroph_interaction:HIS:51>  (481) 
0

>  <hbond:ALA:132>  (481) 
0

>  <hbond:SER:135>  (481) 
0

>  <hydroph_interaction:TYR:150>  (481) 
0

>  <pistack:TYR:161>  (481) 
1

>  <hydroph_interaction:TYR:161>  (481) 
0

>  <hydroph_interaction:ASP:83>  (481) 
0

>  <hbond:TYR:130>  (481) 
0

>  <hydroph_interaction:ALA:132>  (481) 
1

>  <hbond:HIS:51>  (481) 
0

>  <hbond:ASP:129>  (481) 
0

>  <hbond:TYR:150>  (481) 
0

>  <hbond:GLY:151>  (481) 
0

>  <hbond:TYR:161>  (481) 
0

>  <hydroph_interaction:TYR:130>  (481) 
1

>  <hydroph_interaction:PRO:131>  (481) 
1

>  <hydroph_interaction:ASP:129>  (481) 
0

>  <saltbridge:ASP:75>  (481) 
0

>  <saltbridge:ASP:83>  (481) 
0

>  <hydroph_interaction:ASN:152>  (481) 
0

>  <halogenbond:TYR:150>  (481) 
0

>  <hbond:ASP:83>  (481) 
0

>  <hydroph_interaction:VAL:155>  (481) 
0

>  <pication:TYR:161>  (481) 
0

>  <hbond:PRO:131>  (481) 
0

>  <hbond:LEU:128>  (481) 
0

>  <saltbridge:ASP:129>  (481) 
0

>  <hbond:THR:134>  (481) 
0

>  <pication:HIS:51>  (481) 
0

>  <hbond:SER:81>  (481) 
0

>  <hbond:GLY:159>  (481) 
0

>  <hydroph_interaction:PRO:101>  (481) 
0

>  <hydroph_interaction:THR:134>  (481) 
0

>  <hbond:GLY:82>  (481) 
0

>  <hydroph_interaction:GLU:104>  (481) 
0

>  <hydroph_interaction:VAL:36>  (481) 
0

>  <hydroph_interaction:MET:49>  (481) 
0

>  <halogenbond:GLU:104>  (481) 
0

>  <hydroph_interaction:LYS:107>  (481) 
0

$$$$
MCULE-1762295927
     RDKit          3D

 48 50  0  0  0  0  0  0  0  0999 V2000
   -8.2833    6.0213  -10.4395 C   0  0  0  0  0  0  0  0  0  0  0  0
   -8.8563    4.7767  -10.1311 C   0  0  0  0  0  0  0  0  0  0  0  0
   -8.9977    4.3314   -8.7657 N   0  0  0  0  0  0  0  0  0  0  0  0
   -8.6811    2.9395   -8.4274 C   0  0  0  0  0  0  0  0  0  0  0  0
   -9.5924    2.4386   -7.2991 C   0  0  0  0  0  0  0  0  0  0  0  0
   -9.6339    3.3630   -6.1488 N   0  0  0  0  0  0  0  0  0  0  0  0
   -8.3917    3.3417   -5.3578 C   0  0  0  0  0  0  0  0  0  0  0  0
  -10.0249    4.7271   -6.5555 C   0  0  0  0  0  0  0  0  0  0  0  0
   -9.1314    5.2956   -7.6672 C   0  0  0  0  0  0  0  0  0  0  0  0
   -9.2709    3.9709  -11.1474 N   0  0  0  0  0  0  0  0  0  0  0  0
   -9.1668    4.3321  -12.4535 C   0  0  0  0  0  0  0  0  0  0  0  0
   -8.6155    5.5754  -12.8038 C   0  0  0  0  0  0  0  0  0  0  0  0
   -8.1634    6.4143  -11.7731 C   0  0  0  0  0  0  0  0  0  0  0  0
   -8.4839    5.9872  -14.2224 C   0  0  0  0  0  0  0  0  0  0  0  0
   -9.2697    5.3577  -15.2488 N   0  0  0  0  0  0  0  0  0  0  0  0
   -8.9325    5.3936  -16.6466 C   0  0  0  0  0  0  0  0  0  0  0  0
   -9.9573    5.3526  -17.6023 C   0  0  0  0  0  0  0  0  0  0  0  0
   -9.6540    5.3667  -18.9647 C   0  0  0  0  0  0  0  0  0  0  0  0
   -8.3240    5.4078  -19.3884 C   0  0  0  0  0  0  0  0  0  0  0  0
   -7.2790    5.4266  -18.4492 C   0  0  0  0  0  0  0  0  0  0  0  0
   -7.5926    5.4125  -17.0769 C   0  0  0  0  0  0  0  0  0  0  0  0
   -5.8701    5.4529  -18.9025 C   0  0  0  0  0  0  0  0  0  0  0  0
   -5.5781    5.4571  -20.2710 O   0  0  0  0  0  0  0  0  0  0  0  0
   -4.2471    5.4823  -20.7722 C   0  0  0  0  0  0  0  0  0  0  0  0
   -4.9325    5.4723  -18.0575 O   0  0  0  0  0  0  0  0  0  0  0  0
   -7.7034    6.9315  -14.5244 O   0  0  0  0  0  0  0  0  0  0  0  0
   -7.9137    6.6769   -9.6622 H   0  0  0  0  0  0  0  0  0  0  0  0
   -8.8188    2.2731   -9.3058 H   0  0  0  0  0  0  0  0  0  0  0  0
   -7.6158    2.8684   -8.1224 H   0  0  0  0  0  0  0  0  0  0  0  0
  -10.6229    2.3167   -7.6993 H   0  0  0  0  0  0  0  0  0  0  0  0
   -9.2579    1.4296   -6.9720 H   0  0  0  0  0  0  0  0  0  0  0  0
   -7.5214    3.7065   -5.9415 H   0  0  0  0  0  0  0  0  0  0  0  0
   -8.5067    3.9768   -4.4538 H   0  0  0  0  0  0  0  0  0  0  0  0
   -8.1807    2.3085   -5.0086 H   0  0  0  0  0  0  0  0  0  0  0  0
  -11.0760    4.7048   -6.9182 H   0  0  0  0  0  0  0  0  0  0  0  0
  -10.0072    5.4116   -5.6791 H   0  0  0  0  0  0  0  0  0  0  0  0
   -8.1261    5.5463   -7.2675 H   0  0  0  0  0  0  0  0  0  0  0  0
   -9.6021    6.2349   -8.0308 H   0  0  0  0  0  0  0  0  0  0  0  0
   -9.4983    3.6358  -13.2115 H   0  0  0  0  0  0  0  0  0  0  0  0
   -7.7206    7.3769  -11.9971 H   0  0  0  0  0  0  0  0  0  0  0  0
  -10.1951    4.9534  -14.9802 H   0  0  0  0  0  0  0  0  0  0  0  0
  -10.9934    5.3195  -17.2896 H   0  0  0  0  0  0  0  0  0  0  0  0
  -10.4525    5.3444  -19.6952 H   0  0  0  0  0  0  0  0  0  0  0  0
   -8.1155    5.4176  -20.4508 H   0  0  0  0  0  0  0  0  0  0  0  0
   -6.7956    5.3925  -16.3450 H   0  0  0  0  0  0  0  0  0  0  0  0
   -3.7281    6.4014  -20.4267 H   0  0  0  0  0  0  0  0  0  0  0  0
   -3.6930    4.5847  -20.4247 H   0  0  0  0  0  0  0  0  0  0  0  0
   -4.2752    5.4805  -21.8811 H   0  0  0  0  0  0  0  0  0  0  0  0
  1  2  2  0
  2  3  1  0
  3  4  1  0
  4  5  1  0
  5  6  1  0
  6  7  1  0
  6  8  1  0
  8  9  1  0
  2 10  1  0
 10 11  2  0
 11 12  1  0
 12 13  2  0
 12 14  1  0
 14 15  1  0
 15 16  1  0
 16 17  2  0
 17 18  1  0
 18 19  2  0
 19 20  1  0
 20 21  2  0
 20 22  1  0
 22 23  1  0
 23 24  1  0
 22 25  2  0
 14 26  2  0
 13  1  1  0
  9  3  1  0
 16 21  1  0
  1 27  1  0
  4 28  1  0
  4 29  1  0
  5 30  1  0
  5 31  1  0
  7 32  1  0
  7 33  1  0
  7 34  1  0
  8 35  1  0
  8 36  1  0
  9 37  1  0
  9 38  1  0
 11 39  1  0
 13 40  1  0
 15 41  1  0
 17 42  1  0
 18 43  1  0
 19 44  1  0
 21 45  1  0
 24 46  1  0
 24 47  1  0
 24 48  1  0
A    1
 C1 
A    2
 C2 
A    3
 N1 
A    4
 C3 
A    5
 C4 
A    6
 N2 
A    7
 C5 
A    8
 C6 
A    9
 C7 
A   10
 N3 
A   11
 C8 
A   12
 C9 
A   13
 C10
A   14
 C11
A   15
 N4 
A   16
 C12
A   17
 C13
A   18
 C14
A   19
 C15
A   20
 C16
A   21
 C17
A   22
 C18
A   23
 O1 
A   24
 C19
A   25
 O2 
A   26
 O3 
A   27
 H1 
A   28
 H2 
A   29
 H3 
A   30
 H4 
A   31
 H5 
A   32
 H6 
A   33
 H7 
A   34
 H8 
A   35
 H9 
A   36
 H10
A   37
 H11
A   38
 H12
A   39
 H13
A   40
 H14
A   41
 H15
A   42
 H16
A   43
 H17
A   44
 H18
A   45
 H19
A   46
 H20
A   47
 H21
A   48
 H22
M  END
>  <ref_pdb>  (482) 
x0051_0B

>  <ref_mols>  (482) 
x0443_0B,x0404_0B

>  <original SMILES>  (482) 
[H]c1nc(N2C([H])([H])C([H])([H])N(C([H])([H])[H])C([H])([H])C2([H])[H])c([H])c([H])c1C(=O)N([H])c1c([H])c([H])c([H])c(C(=O)OC([H])([H])[H])c1[H]

>  <index>  (482) 
461

>  <∆∆G>  (482) 
-6.864201

>  <∆G_bound>  (482) 
-6.15955

>  <∆G_unbound>  (482) 
0.704651

>  <comRMSD>  (482) 
0.61545

>  <N_constrained_atoms>  (482) 
25.0

>  <N_unconstrained_atoms>  (482) 
2.0

>  <runtime>  (482) 
130.430171

>  <LE>  (482) 
0.25423

>  <percent_hybrid>  (482) 
44.0

>  <dist>  (482) 
10.0

>  <ecfp4>  (482) 
0.163043

>  <daylight>  (482) 
0.221014

>  <topodist>  (482) 
5.0

>  <mces>  (482) 
27.0

>  <tdn>  (482) 
1.0

>  <tup>  (482) 
1.0

>  <rdn>  (482) 
1.0

>  <rup>  (482) 
0.0

>  <ldn>  (482) 
2.0

>  <lup>  (482) 
0.0

>  <mut>  (482) 
4.0

>  <maj>  (482) 
4.0

>  <min>  (482) 
0.0

>  <hyb>  (482) 
1.0

>  <sub>  (482) 
2.0

>  <query_index>  (482) 
13.0

>  <max_hit_Tanimoto>  (482) 
0.226067

>  <largest_ring>  (482) 
6

>  <N_interactions_kept>  (482) 
2.0

>  <N_interactions_lost>  (482) 
2.5

>  <interaction_uniqueness_metric>  (482) 
0.282445

>  <ad_hoc_penalty>  (482) 
-17.723046

>  <N_rotatable_bonds>  (482) 
6

>  <N_HA>  (482) 
26

>  <cluster>  (482) 
5799

>  <N_interactions>  (482) 
8

>  <Enamine>  (482) 
0

>  <Mcule>  (482) 
1

>  <N_PAINS>  (482) 
0

>  <UFF_Gibbs>  (482) 
263.102381

>  <strain_per_HA>  (482) 
9.744533

>  <saltbridge:HIS:51>  (482) 
0

>  <pistack:HIS:51>  (482) 
1

>  <hydroph_interaction:HIS:51>  (482) 
1

>  <hbond:ALA:132>  (482) 
0

>  <hbond:SER:135>  (482) 
2

>  <hydroph_interaction:TYR:150>  (482) 
1

>  <pistack:TYR:161>  (482) 
0

>  <hydroph_interaction:TYR:161>  (482) 
1

>  <hydroph_interaction:ASP:83>  (482) 
0

>  <hbond:TYR:130>  (482) 
0

>  <hydroph_interaction:ALA:132>  (482) 
1

>  <hbond:HIS:51>  (482) 
0

>  <hbond:ASP:129>  (482) 
0

>  <hbond:TYR:150>  (482) 
0

>  <hbond:GLY:151>  (482) 
0

>  <hbond:TYR:161>  (482) 
0

>  <hydroph_interaction:TYR:130>  (482) 
0

>  <hydroph_interaction:PRO:131>  (482) 
0

>  <hydroph_interaction:ASP:129>  (482) 
0

>  <saltbridge:ASP:75>  (482) 
1

>  <saltbridge:ASP:83>  (482) 
0

>  <hydroph_interaction:ASN:152>  (482) 
0

>  <halogenbond:TYR:150>  (482) 
0

>  <hbond:ASP:83>  (482) 
0

>  <hydroph_interaction:VAL:155>  (482) 
0

>  <pication:TYR:161>  (482) 
0

>  <hbond:PRO:131>  (482) 
0

>  <hbond:LEU:128>  (482) 
0

>  <saltbridge:ASP:129>  (482) 
0

>  <hbond:THR:134>  (482) 
0

>  <pication:HIS:51>  (482) 
0

>  <hbond:SER:81>  (482) 
0

>  <hbond:GLY:159>  (482) 
0

>  <hydroph_interaction:PRO:101>  (482) 
0

>  <hydroph_interaction:THR:134>  (482) 
0

>  <hbond:GLY:82>  (482) 
0

>  <hydroph_interaction:GLU:104>  (482) 
0

>  <hydroph_interaction:VAL:36>  (482) 
0

>  <hydroph_interaction:MET:49>  (482) 
0

>  <halogenbond:GLU:104>  (482) 
0

>  <hydroph_interaction:LYS:107>  (482) 
0

$$$$
GLBCGFZCBLADJL-UHFFFAOYSA-N
     RDKit          3D

 36 38  0  0  0  0  0  0  0  0999 V2000
   -9.6760    5.3877  -13.1327 N   0  0  0  0  0  0  0  0  0  0  0  0
  -10.2268    5.4806  -14.4911 C   0  0  0  0  0  0  0  0  0  0  0  0
   -9.1934    6.0132  -15.4480 C   0  0  0  0  0  0  0  0  0  0  0  0
   -8.6180    5.1831  -16.4221 C   0  0  0  0  0  0  0  0  0  0  0  0
   -7.6482    5.6920  -17.2881 C   0  0  0  0  0  0  0  0  0  0  0  0
   -7.2596    7.0279  -17.1701 C   0  0  0  0  0  0  0  0  0  0  0  0
   -7.8224    7.8200  -16.2183 N   0  0  0  0  0  0  0  0  0  0  0  0
   -8.7685    7.3476  -15.3628 C   0  0  0  0  0  0  0  0  0  0  0  0
   -8.8159    4.2066  -12.9868 C   0  0  0  0  0  0  0  0  0  0  0  0
   -8.2122    4.1885  -11.6165 C   0  0  0  0  0  0  0  0  0  0  0  0
   -8.7448    3.6598  -10.4584 C   0  0  0  0  0  0  0  0  0  0  0  0
   -7.9447    3.9980   -9.4317 N   0  0  0  0  0  0  0  0  0  0  0  0
   -8.1402    3.5972   -8.0401 C   0  0  0  0  0  0  0  0  0  0  0  0
   -9.6052    3.2023   -7.7911 C   0  0  0  0  0  0  0  0  0  0  0  0
  -10.1211    2.2764   -8.9054 C   0  0  0  0  0  0  0  0  0  0  0  0
  -10.0620    2.9638  -10.2785 C   0  0  0  0  0  0  0  0  0  0  0  0
   -6.9097    4.6944   -9.8742 N   0  0  0  0  0  0  0  0  0  0  0  0
   -7.0574    4.8358  -11.2088 C   0  0  0  0  0  0  0  0  0  0  0  0
  -10.4848    5.2752  -12.4771 H   0  0  0  0  0  0  0  0  0  0  0  0
  -11.0885    6.1844  -14.4859 H   0  0  0  0  0  0  0  0  0  0  0  0
  -10.6260    4.4964  -14.8291 H   0  0  0  0  0  0  0  0  0  0  0  0
   -8.9164    4.1456  -16.5083 H   0  0  0  0  0  0  0  0  0  0  0  0
   -7.2021    5.0569  -18.0435 H   0  0  0  0  0  0  0  0  0  0  0  0
   -6.5094    7.4355  -17.8349 H   0  0  0  0  0  0  0  0  0  0  0  0
   -9.1895    8.0103  -14.6169 H   0  0  0  0  0  0  0  0  0  0  0  0
   -9.4001    3.2741  -13.1504 H   0  0  0  0  0  0  0  0  0  0  0  0
   -7.9903    4.2349  -13.7306 H   0  0  0  0  0  0  0  0  0  0  0  0
   -7.8630    4.4353   -7.3649 H   0  0  0  0  0  0  0  0  0  0  0  0
   -7.4789    2.7326   -7.8173 H   0  0  0  0  0  0  0  0  0  0  0  0
   -9.6873    2.6872   -6.8105 H   0  0  0  0  0  0  0  0  0  0  0  0
  -10.2336    4.1191   -7.7532 H   0  0  0  0  0  0  0  0  0  0  0  0
  -11.1706    1.9842   -8.6872 H   0  0  0  0  0  0  0  0  0  0  0  0
   -9.5066    1.3498   -8.9280 H   0  0  0  0  0  0  0  0  0  0  0  0
  -10.2045    2.2055  -11.0777 H   0  0  0  0  0  0  0  0  0  0  0  0
  -10.8760    3.7167  -10.3515 H   0  0  0  0  0  0  0  0  0  0  0  0
   -6.3772    5.3905  -11.8415 H   0  0  0  0  0  0  0  0  0  0  0  0
  1  2  1  0
  2  3  1  0
  3  4  2  0
  4  5  1  0
  5  6  2  0
  6  7  1  0
  7  8  2  0
  1  9  1  0
  9 10  1  0
 10 11  2  0
 11 12  1  0
 12 13  1  0
 13 14  1  0
 14 15  1  0
 15 16  1  0
 12 17  1  0
 17 18  2  0
  8  3  1  0
 18 10  1  0
 16 11  1  0
  1 19  1  0
  2 20  1  0
  2 21  1  0
  4 22  1  0
  5 23  1  0
  6 24  1  0
  8 25  1  0
  9 26  1  0
  9 27  1  0
 13 28  1  0
 13 29  1  0
 14 30  1  0
 14 31  1  0
 15 32  1  0
 15 33  1  0
 16 34  1  0
 16 35  1  0
 18 36  1  0
A    1
 N1 
A    2
 C1 
A    3
 C2 
A    4
 C3 
A    5
 C4 
A    6
 C5 
A    7
 N2 
A    8
 C6 
A    9
 C7 
A   10
 C8 
A   11
 C9 
A   12
 N3 
A   13
 C10
A   14
 C11
A   15
 C12
A   16
 C13
A   17
 N4 
A   18
 C14
A   19
 H1 
A   20
 H2 
A   21
 H3 
A   22
 H4 
A   23
 H5 
A   24
 H6 
A   25
 H7 
A   26
 H8 
A   27
 H9 
A   28
 H10
A   29
 H11
A   30
 H12
A   31
 H13
A   32
 H14
A   33
 H15
A   34
 H16
A   35
 H17
A   36
 H18
M  END
>  <ref_pdb>  (483) 
x0051_0B

>  <ref_mols>  (483) 
x0553_0B,x0969_1B

>  <original SMILES>  (483) 
[H]c1nc([H])c(C([H])([H])N([H])C([H])([H])c2c([H])nn3c2C([H])([H])C([H])([H])C([H])([H])C3([H])[H])c([H])c1[H]

>  <index>  (483) 
720

>  <∆∆G>  (483) 
-6.124207

>  <∆G_bound>  (483) 
-5.732168

>  <∆G_unbound>  (483) 
0.392038

>  <comRMSD>  (483) 
0.644168

>  <N_constrained_atoms>  (483) 
17.0

>  <N_unconstrained_atoms>  (483) 
2.0

>  <runtime>  (483) 
52.878784

>  <LE>  (483) 
0.322327

>  <percent_hybrid>  (483) 
42.0

>  <dist>  (483) 
7.0

>  <ecfp4>  (483) 
0.293333

>  <daylight>  (483) 
0.307692

>  <topodist>  (483) 
3.0

>  <mces>  (483) 
20.0

>  <tdn>  (483) 
3.0

>  <tup>  (483) 
0.0

>  <rdn>  (483) 
0.0

>  <rup>  (483) 
0.0

>  <ldn>  (483) 
0.0

>  <lup>  (483) 
0.0

>  <mut>  (483) 
4.0

>  <maj>  (483) 
4.0

>  <min>  (483) 
0.0

>  <hyb>  (483) 
0.0

>  <sub>  (483) 
2.0

>  <query_index>  (483) 
375.0

>  <max_hit_Tanimoto>  (483) 
0.377267

>  <largest_ring>  (483) 
6

>  <N_interactions_kept>  (483) 
1.5

>  <N_interactions_lost>  (483) 
1.0

>  <interaction_uniqueness_metric>  (483) 
0.199436

>  <ad_hoc_penalty>  (483) 
-17.720118

>  <N_rotatable_bonds>  (483) 
4

>  <N_HA>  (483) 
18

>  <cluster>  (483) 
5561

>  <N_interactions>  (483) 
4

>  <Enamine>  (483) 
0

>  <Mcule>  (483) 
1

>  <N_PAINS>  (483) 
0

>  <UFF_Gibbs>  (483) 
102.95132

>  <strain_per_HA>  (483) 
5.418491

>  <saltbridge:HIS:51>  (483) 
0

>  <pistack:HIS:51>  (483) 
1

>  <hydroph_interaction:HIS:51>  (483) 
0

>  <hbond:ALA:132>  (483) 
0

>  <hbond:SER:135>  (483) 
0

>  <hydroph_interaction:TYR:150>  (483) 
0

>  <pistack:TYR:161>  (483) 
1

>  <hydroph_interaction:TYR:161>  (483) 
0

>  <hydroph_interaction:ASP:83>  (483) 
1

>  <hbond:TYR:130>  (483) 
0

>  <hydroph_interaction:ALA:132>  (483) 
0

>  <hbond:HIS:51>  (483) 
1

>  <hbond:ASP:129>  (483) 
0

>  <hbond:TYR:150>  (483) 
0

>  <hbond:GLY:151>  (483) 
0

>  <hbond:TYR:161>  (483) 
0

>  <hydroph_interaction:TYR:130>  (483) 
0

>  <hydroph_interaction:PRO:131>  (483) 
0

>  <hydroph_interaction:ASP:129>  (483) 
0

>  <saltbridge:ASP:75>  (483) 
0

>  <saltbridge:ASP:83>  (483) 
0

>  <hydroph_interaction:ASN:152>  (483) 
0

>  <halogenbond:TYR:150>  (483) 
0

>  <hbond:ASP:83>  (483) 
0

>  <hydroph_interaction:VAL:155>  (483) 
0

>  <pication:TYR:161>  (483) 
0

>  <hbond:PRO:131>  (483) 
0

>  <hbond:LEU:128>  (483) 
0

>  <saltbridge:ASP:129>  (483) 
0

>  <hbond:THR:134>  (483) 
0

>  <pication:HIS:51>  (483) 
0

>  <hbond:SER:81>  (483) 
0

>  <hbond:GLY:159>  (483) 
0

>  <hydroph_interaction:PRO:101>  (483) 
0

>  <hydroph_interaction:THR:134>  (483) 
0

>  <hbond:GLY:82>  (483) 
0

>  <hydroph_interaction:GLU:104>  (483) 
0

>  <hydroph_interaction:VAL:36>  (483) 
0

>  <hydroph_interaction:MET:49>  (483) 
0

>  <halogenbond:GLU:104>  (483) 
0

>  <hydroph_interaction:LYS:107>  (483) 
0

$$$$
Z3664915978
     RDKit          3D

 34 34  0  0  0  0  0  0  0  0999 V2000
   -5.5692    7.2441  -17.3882 C   0  0  0  0  0  0  0  0  0  0  0  0
   -6.1261    6.7372  -18.6472 N   0  0  0  0  0  0  0  0  0  0  0  0
   -5.4168    6.9761  -19.9188 C   0  0  0  0  0  0  0  0  0  0  0  0
   -4.5995    5.7402  -20.3999 C   0  0  0  0  0  0  0  0  0  0  0  0
   -3.5795    5.3237  -19.3192 C   0  0  0  0  0  0  0  0  0  0  0  0
   -3.8198    6.1360  -21.6731 C   0  0  0  0  0  0  0  0  0  0  0  0
   -5.5149    4.5289  -20.7203 C   0  0  0  0  0  0  0  0  0  0  0  0
   -6.5496    4.8820  -21.6017 O   0  0  0  0  0  0  0  0  0  0  0  0
   -7.4308    6.1244  -18.6254 C   0  0  0  0  0  0  0  0  0  0  0  0
   -8.4659    6.6080  -19.4450 C   0  0  0  0  0  0  0  0  0  0  0  0
   -9.7276    6.0074  -19.4172 C   0  0  0  0  0  0  0  0  0  0  0  0
   -9.9711    4.9250  -18.5689 C   0  0  0  0  0  0  0  0  0  0  0  0
   -8.9518    4.4411  -17.7388 C   0  0  0  0  0  0  0  0  0  0  0  0
   -9.1820    3.3628  -16.8874 O   0  0  0  0  0  0  0  0  0  0  0  0
   -7.6892    5.0432  -17.7645 C   0  0  0  0  0  0  0  0  0  0  0  0
   -4.6048    7.7697  -17.5508 H   0  0  0  0  0  0  0  0  0  0  0  0
   -5.3830    6.4052  -16.6867 H   0  0  0  0  0  0  0  0  0  0  0  0
   -6.2826    7.9568  -16.9233 H   0  0  0  0  0  0  0  0  0  0  0  0
   -4.7273    7.8417  -19.8041 H   0  0  0  0  0  0  0  0  0  0  0  0
   -6.1319    7.2877  -20.7079 H   0  0  0  0  0  0  0  0  0  0  0  0
   -2.9304    4.5009  -19.6897 H   0  0  0  0  0  0  0  0  0  0  0  0
   -2.9299    6.1814  -19.0403 H   0  0  0  0  0  0  0  0  0  0  0  0
   -4.0946    4.9613  -18.4044 H   0  0  0  0  0  0  0  0  0  0  0  0
   -3.1021    6.9564  -21.4549 H   0  0  0  0  0  0  0  0  0  0  0  0
   -3.2447    5.2714  -22.0697 H   0  0  0  0  0  0  0  0  0  0  0  0
   -4.5106    6.4897  -22.4680 H   0  0  0  0  0  0  0  0  0  0  0  0
   -5.9699    4.1350  -19.7893 H   0  0  0  0  0  0  0  0  0  0  0  0
   -4.9130    3.6893  -21.1415 H   0  0  0  0  0  0  0  0  0  0  0  0
   -6.2093    4.7355  -22.5223 H   0  0  0  0  0  0  0  0  0  0  0  0
   -8.3081    7.4618  -20.0898 H   0  0  0  0  0  0  0  0  0  0  0  0
  -10.5197    6.3857  -20.0505 H   0  0  0  0  0  0  0  0  0  0  0  0
  -10.9514    4.4660  -18.5544 H   0  0  0  0  0  0  0  0  0  0  0  0
  -10.0847    2.9043  -16.8457 H   0  0  0  0  0  0  0  0  0  0  0  0
   -6.9041    4.6510  -17.1312 H   0  0  0  0  0  0  0  0  0  0  0  0
  1  2  1  0
  2  3  1  0
  3  4  1  0
  4  5  1  0
  4  6  1  0
  4  7  1  0
  7  8  1  0
  2  9  1  0
  9 10  2  0
 10 11  1  0
 11 12  2  0
 12 13  1  0
 13 14  1  0
 13 15  2  0
 15  9  1  0
  1 16  1  0
  1 17  1  0
  1 18  1  0
  3 19  1  0
  3 20  1  0
  5 21  1  0
  5 22  1  0
  5 23  1  0
  6 24  1  0
  6 25  1  0
  6 26  1  0
  7 27  1  0
  7 28  1  0
  8 29  1  0
 10 30  1  0
 11 31  1  0
 12 32  1  0
 14 33  1  0
 15 34  1  0
A    1
 C1 
A    2
 N1 
A    3
 C2 
A    4
 C3 
A    5
 C4 
A    6
 C5 
A    7
 C6 
A    8
 O1 
A    9
 C7 
A   10
 C8 
A   11
 C9 
A   12
 C10
A   13
 C11
A   14
 O2 
A   15
 C12
A   16
 H1 
A   17
 H2 
A   18
 H3 
A   19
 H4 
A   20
 H5 
A   21
 H6 
A   22
 H7 
A   23
 H8 
A   24
 H9 
A   25
 H10
A   26
 H11
A   27
 H12
A   28
 H13
A   29
 H14
A   30
 H15
A   31
 H16
A   32
 H17
A   33
 H18
A   34
 H19
M  END
>  <ref_pdb>  (484) 
x0051_0B

>  <ref_mols>  (484) 
x0101_0B,x0490_0B

>  <original SMILES>  (484) 
[H]Oc1c([H])c([H])c([H])c(N(C([H])([H])[H])C([H])([H])C(C([H])([H])[H])(C([H])([H])[H])C([H])([H])O[H])c1[H]

>  <index>  (484) 
551

>  <∆∆G>  (484) 
-6.766439

>  <∆G_bound>  (484) 
-7.002431

>  <∆G_unbound>  (484) 
-0.235993

>  <comRMSD>  (484) 
0.697536

>  <N_constrained_atoms>  (484) 
19.0

>  <N_unconstrained_atoms>  (484) 
1.0

>  <runtime>  (484) 
34.922474

>  <LE>  (484) 
0.338322

>  <percent_hybrid>  (484) 
34.0

>  <dist>  (484) 
3.0

>  <ecfp4>  (484) 
0.280702

>  <daylight>  (484) 
0.454545

>  <topodist>  (484) 
2.0

>  <mces>  (484) 
15.0

>  <tdn>  (484) 
1.0

>  <tup>  (484) 
0.0

>  <rdn>  (484) 
0.0

>  <rup>  (484) 
0.0

>  <ldn>  (484) 
1.0

>  <lup>  (484) 
0.0

>  <mut>  (484) 
1.0

>  <maj>  (484) 
1.0

>  <min>  (484) 
0.0

>  <hyb>  (484) 
0.0

>  <sub>  (484) 
1.0

>  <query_index>  (484) 
245.0

>  <max_hit_Tanimoto>  (484) 
0.124764

>  <largest_ring>  (484) 
6

>  <N_interactions_kept>  (484) 
3.0

>  <N_interactions_lost>  (484) 
1.5

>  <interaction_uniqueness_metric>  (484) 
0.154775

>  <ad_hoc_penalty>  (484) 
-17.692473

>  <N_rotatable_bonds>  (484) 
9

>  <N_HA>  (484) 
15

>  <cluster>  (484) 
5714

>  <N_interactions>  (484) 
8

>  <Enamine>  (484) 
1

>  <Mcule>  (484) 
0

>  <N_PAINS>  (484) 
0

>  <UFF_Gibbs>  (484) 
142.542198

>  <strain_per_HA>  (484) 
7.12711

>  <saltbridge:HIS:51>  (484) 
0

>  <pistack:HIS:51>  (484) 
0

>  <hydroph_interaction:HIS:51>  (484) 
0

>  <hbond:ALA:132>  (484) 
0

>  <hbond:SER:135>  (484) 
2

>  <hydroph_interaction:TYR:150>  (484) 
1

>  <pistack:TYR:161>  (484) 
0

>  <hydroph_interaction:TYR:161>  (484) 
3

>  <hydroph_interaction:ASP:83>  (484) 
0

>  <hbond:TYR:130>  (484) 
0

>  <hydroph_interaction:ALA:132>  (484) 
0

>  <hbond:HIS:51>  (484) 
0

>  <hbond:ASP:129>  (484) 
2

>  <hbond:TYR:150>  (484) 
0

>  <hbond:GLY:151>  (484) 
0

>  <hbond:TYR:161>  (484) 
0

>  <hydroph_interaction:TYR:130>  (484) 
0

>  <hydroph_interaction:PRO:131>  (484) 
0

>  <hydroph_interaction:ASP:129>  (484) 
0

>  <saltbridge:ASP:75>  (484) 
0

>  <saltbridge:ASP:83>  (484) 
0

>  <hydroph_interaction:ASN:152>  (484) 
0

>  <halogenbond:TYR:150>  (484) 
0

>  <hbond:ASP:83>  (484) 
0

>  <hydroph_interaction:VAL:155>  (484) 
0

>  <pication:TYR:161>  (484) 
0

>  <hbond:PRO:131>  (484) 
0

>  <hbond:LEU:128>  (484) 
0

>  <saltbridge:ASP:129>  (484) 
0

>  <hbond:THR:134>  (484) 
0

>  <pication:HIS:51>  (484) 
0

>  <hbond:SER:81>  (484) 
0

>  <hbond:GLY:159>  (484) 
0

>  <hydroph_interaction:PRO:101>  (484) 
0

>  <hydroph_interaction:THR:134>  (484) 
0

>  <hbond:GLY:82>  (484) 
0

>  <hydroph_interaction:GLU:104>  (484) 
0

>  <hydroph_interaction:VAL:36>  (484) 
0

>  <hydroph_interaction:MET:49>  (484) 
0

>  <halogenbond:GLU:104>  (484) 
0

>  <hydroph_interaction:LYS:107>  (484) 
0

$$$$
CSSB00010426598
     RDKit          3D

 28 30  0  0  0  0  0  0  0  0999 V2000
   -2.9914    5.4336  -15.0944 O   0  0  0  0  0  0  0  0  0  0  0  0
   -4.1581    6.0220  -15.5723 C   0  0  0  0  0  0  0  0  0  0  0  0
   -4.1829    7.2595  -15.8147 O   0  0  0  0  0  0  0  0  0  0  0  0
   -5.3885    5.1787  -15.7851 C   0  0  0  0  0  0  0  0  0  0  0  0
   -6.4622    5.5954  -14.7640 C   0  0  0  0  0  0  0  0  0  0  0  0
   -7.7657    4.8356  -15.0022 C   0  0  0  0  0  0  0  0  0  0  0  0
   -8.2353    5.0126  -16.4227 C   0  0  0  0  0  0  0  0  0  0  0  0
   -9.6053    4.9221  -16.7118 C   0  0  0  0  0  0  0  0  0  0  0  0
  -10.0591    5.0155  -18.0280 C   0  0  0  0  0  0  0  0  0  0  0  0
   -9.1516    5.1754  -19.0752 C   0  0  0  0  0  0  0  0  0  0  0  0
   -7.7756    5.2463  -18.8130 C   0  0  0  0  0  0  0  0  0  0  0  0
   -6.8628    5.3690  -19.8687 C   0  0  0  0  0  0  0  0  0  0  0  0
   -5.4935    5.4011  -19.6114 C   0  0  0  0  0  0  0  0  0  0  0  0
   -5.0207    5.3366  -18.3004 C   0  0  0  0  0  0  0  0  0  0  0  0
   -5.9148    5.2685  -17.2135 C   0  0  0  0  0  0  0  0  0  0  0  0
   -7.3053    5.1757  -17.4760 C   0  0  0  0  0  0  0  0  0  0  0  0
   -2.1558    5.9857  -14.9425 H   0  0  0  0  0  0  0  0  0  0  0  0
   -5.1216    4.1156  -15.5950 H   0  0  0  0  0  0  0  0  0  0  0  0
   -6.1023    5.3851  -13.7329 H   0  0  0  0  0  0  0  0  0  0  0  0
   -6.6643    6.6875  -14.8430 H   0  0  0  0  0  0  0  0  0  0  0  0
   -8.5325    5.2123  -14.2904 H   0  0  0  0  0  0  0  0  0  0  0  0
   -7.6101    3.7528  -14.8050 H   0  0  0  0  0  0  0  0  0  0  0  0
  -10.3245    4.7752  -15.9154 H   0  0  0  0  0  0  0  0  0  0  0  0
  -11.1188    4.9505  -18.2385 H   0  0  0  0  0  0  0  0  0  0  0  0
   -9.5242    5.2322  -20.0912 H   0  0  0  0  0  0  0  0  0  0  0  0
   -7.2076    5.4204  -20.8948 H   0  0  0  0  0  0  0  0  0  0  0  0
   -4.7929    5.4716  -20.4336 H   0  0  0  0  0  0  0  0  0  0  0  0
   -3.9507    5.3456  -18.1364 H   0  0  0  0  0  0  0  0  0  0  0  0
  1  2  1  0
  2  3  2  0
  2  4  1  0
  4  5  1  0
  5  6  1  0
  6  7  1  0
  7  8  1  0
  8  9  2  0
  9 10  1  0
 10 11  2  0
 11 12  1  0
 12 13  2  0
 13 14  1  0
 14 15  2  0
 15 16  1  0
 15  4  1  0
 16  7  2  0
 16 11  1  0
  1 17  1  0
  4 18  1  0
  5 19  1  0
  5 20  1  0
  6 21  1  0
  6 22  1  0
  8 23  1  0
  9 24  1  0
 10 25  1  0
 12 26  1  0
 13 27  1  0
 14 28  1  0
A    1
 O1 
A    2
 C1 
A    3
 O2 
A    4
 C2 
A    5
 C3 
A    6
 C4 
A    7
 C5 
A    8
 C6 
A    9
 C7 
A   10
 C8 
A   11
 C9 
A   12
 C10
A   13
 C11
A   14
 C12
A   15
 C13
A   16
 C14
A   17
 H1 
A   18
 H2 
A   19
 H3 
A   20
 H4 
A   21
 H5 
A   22
 H6 
A   23
 H7 
A   24
 H8 
A   25
 H9 
A   26
 H10
A   27
 H11
A   28
 H12
M  END
>  <ref_pdb>  (485) 
x0051_0B

>  <ref_mols>  (485) 
x0727_0B,x0455_0B

>  <original SMILES>  (485) 
[H]OC(=O)C1([H])c2c([H])c([H])c([H])c3c([H])c([H])c([H])c(c23)C([H])([H])C1([H])[H]

>  <index>  (485) 
696

>  <∆∆G>  (485) 
-7.320766

>  <∆G_bound>  (485) 
-6.950455

>  <∆G_unbound>  (485) 
0.370312

>  <comRMSD>  (485) 
0.394493

>  <N_constrained_atoms>  (485) 
14.0

>  <N_unconstrained_atoms>  (485) 
2.0

>  <runtime>  (485) 
33.804008

>  <LE>  (485) 
0.457548

>  <percent_hybrid>  (485) 
34.0

>  <dist>  (485) 
4.0

>  <ecfp4>  (485) 
0.340426

>  <daylight>  (485) 
0.330357

>  <topodist>  (485) 
2.0

>  <mces>  (485) 
16.0

>  <tdn>  (485) 
0.0

>  <tup>  (485) 
2.0

>  <rdn>  (485) 
0.0

>  <rup>  (485) 
0.0

>  <ldn>  (485) 
0.0

>  <lup>  (485) 
0.0

>  <mut>  (485) 
1.0

>  <maj>  (485) 
1.0

>  <min>  (485) 
0.0

>  <hyb>  (485) 
1.0

>  <sub>  (485) 
0.0

>  <query_index>  (485) 
57.0

>  <max_hit_Tanimoto>  (485) 
0.166149

>  <largest_ring>  (485) 
6

>  <N_interactions_kept>  (485) 
0.0

>  <N_interactions_lost>  (485) 
3.0

>  <interaction_uniqueness_metric>  (485) 
0.047384

>  <ad_hoc_penalty>  (485) 
-17.674924

>  <N_rotatable_bonds>  (485) 
1

>  <N_HA>  (485) 
16

>  <cluster>  (485) 
5580

>  <N_interactions>  (485) 
6

>  <Enamine>  (485) 
1

>  <Mcule>  (485) 
0

>  <N_PAINS>  (485) 
0

>  <UFF_Gibbs>  (485) 
67.219246

>  <strain_per_HA>  (485) 
4.201203

>  <saltbridge:HIS:51>  (485) 
0

>  <pistack:HIS:51>  (485) 
0

>  <hydroph_interaction:HIS:51>  (485) 
0

>  <hbond:ALA:132>  (485) 
0

>  <hbond:SER:135>  (485) 
0

>  <hydroph_interaction:TYR:150>  (485) 
1

>  <pistack:TYR:161>  (485) 
1

>  <hydroph_interaction:TYR:161>  (485) 
4

>  <hydroph_interaction:ASP:83>  (485) 
0

>  <hbond:TYR:130>  (485) 
0

>  <hydroph_interaction:ALA:132>  (485) 
0

>  <hbond:HIS:51>  (485) 
0

>  <hbond:ASP:129>  (485) 
0

>  <hbond:TYR:150>  (485) 
0

>  <hbond:GLY:151>  (485) 
0

>  <hbond:TYR:161>  (485) 
0

>  <hydroph_interaction:TYR:130>  (485) 
0

>  <hydroph_interaction:PRO:131>  (485) 
0

>  <hydroph_interaction:ASP:129>  (485) 
0

>  <saltbridge:ASP:75>  (485) 
0

>  <saltbridge:ASP:83>  (485) 
0

>  <hydroph_interaction:ASN:152>  (485) 
0

>  <halogenbond:TYR:150>  (485) 
0

>  <hbond:ASP:83>  (485) 
0

>  <hydroph_interaction:VAL:155>  (485) 
0

>  <pication:TYR:161>  (485) 
0

>  <hbond:PRO:131>  (485) 
0

>  <hbond:LEU:128>  (485) 
0

>  <saltbridge:ASP:129>  (485) 
0

>  <hbond:THR:134>  (485) 
0

>  <pication:HIS:51>  (485) 
0

>  <hbond:SER:81>  (485) 
0

>  <hbond:GLY:159>  (485) 
0

>  <hydroph_interaction:PRO:101>  (485) 
0

>  <hydroph_interaction:THR:134>  (485) 
0

>  <hbond:GLY:82>  (485) 
0

>  <hydroph_interaction:GLU:104>  (485) 
0

>  <hydroph_interaction:VAL:36>  (485) 
0

>  <hydroph_interaction:MET:49>  (485) 
0

>  <halogenbond:GLU:104>  (485) 
0

>  <hydroph_interaction:LYS:107>  (485) 
0

$$$$
KLEXNECCOFAKGK-UHFFFAOYSA-N
     RDKit          3D

 34 36  0  0  0  0  0  0  0  0999 V2000
   -5.6975    4.6085  -20.1657 C   0  0  0  0  0  0  0  0  0  0  0  0
   -6.3671    5.5566  -19.3164 N   0  0  0  0  0  0  0  0  0  0  0  0
   -7.4385    5.2191  -18.4199 C   0  0  0  0  0  0  0  0  0  0  0  0
   -8.4547    4.3243  -18.7961 C   0  0  0  0  0  0  0  0  0  0  0  0
   -9.4977    4.0333  -17.9143 C   0  0  0  0  0  0  0  0  0  0  0  0
   -9.5462    4.6402  -16.6574 C   0  0  0  0  0  0  0  0  0  0  0  0
   -8.5529    5.5561  -16.2731 C   0  0  0  0  0  0  0  0  0  0  0  0
   -8.6088    6.2081  -14.9480 C   0  0  0  0  0  0  0  0  0  0  0  0
   -7.7024    7.1023  -14.4981 N   0  0  0  0  0  0  0  0  0  0  0  0
   -8.1220    7.4383  -13.2892 N   0  0  0  0  0  0  0  0  0  0  0  0
   -9.2270    6.7657  -13.0196 N   0  0  0  0  0  0  0  0  0  0  0  0
  -10.0107    6.9288  -11.8051 C   0  0  0  0  0  0  0  0  0  0  0  0
   -9.5766    5.9940  -14.0337 N   0  0  0  0  0  0  0  0  0  0  0  0
   -7.5061    5.8456  -17.1660 C   0  0  0  0  0  0  0  0  0  0  0  0
   -6.0391    3.3949  -20.1662 O   0  0  0  0  0  0  0  0  0  0  0  0
   -4.6072    5.0443  -21.0603 C   0  0  0  0  0  0  0  0  0  0  0  0
   -3.4986    5.7805  -20.5844 C   0  0  0  0  0  0  0  0  0  0  0  0
   -3.2816    6.1426  -18.8743 Cl  0  0  0  0  0  0  0  0  0  0  0  0
   -2.4961    6.1826  -21.4763 C   0  0  0  0  0  0  0  0  0  0  0  0
   -2.5805    5.8512  -22.8304 C   0  0  0  0  0  0  0  0  0  0  0  0
   -3.6623    5.1055  -23.3010 C   0  0  0  0  0  0  0  0  0  0  0  0
   -4.6682    4.6987  -22.4208 C   0  0  0  0  0  0  0  0  0  0  0  0
   -6.0125    6.5391  -19.2948 H   0  0  0  0  0  0  0  0  0  0  0  0
   -8.4605    3.8721  -19.7786 H   0  0  0  0  0  0  0  0  0  0  0  0
  -10.2766    3.3422  -18.2098 H   0  0  0  0  0  0  0  0  0  0  0  0
  -10.3651    4.3998  -15.9909 H   0  0  0  0  0  0  0  0  0  0  0  0
   -9.3432    7.1811  -10.9543 H   0  0  0  0  0  0  0  0  0  0  0  0
  -10.5484    5.9855  -11.5717 H   0  0  0  0  0  0  0  0  0  0  0  0
  -10.7485    7.7456  -11.9471 H   0  0  0  0  0  0  0  0  0  0  0  0
   -6.7320    6.5504  -16.8872 H   0  0  0  0  0  0  0  0  0  0  0  0
   -1.6416    6.7424  -21.1175 H   0  0  0  0  0  0  0  0  0  0  0  0
   -1.8011    6.1636  -23.5134 H   0  0  0  0  0  0  0  0  0  0  0  0
   -3.7224    4.8430  -24.3494 H   0  0  0  0  0  0  0  0  0  0  0  0
   -5.5042    4.1260  -22.8041 H   0  0  0  0  0  0  0  0  0  0  0  0
  1  2  1  0
  2  3  1  0
  3  4  2  0
  4  5  1  0
  5  6  2  0
  6  7  1  0
  7  8  1  0
  8  9  1  0
  9 10  2  0
 10 11  1  0
 11 12  1  0
 11 13  1  0
  7 14  2  0
  1 15  2  0
  1 16  1  0
 16 17  2  0
 17 18  1  0
 17 19  1  0
 19 20  2  0
 20 21  1  0
 21 22  2  0
  3 14  1  0
  8 13  2  0
 22 16  1  0
  2 23  1  0
  4 24  1  0
  5 25  1  0
  6 26  1  0
 12 27  1  0
 12 28  1  0
 12 29  1  0
 14 30  1  0
 19 31  1  0
 20 32  1  0
 21 33  1  0
 22 34  1  0
A    1
 C1 
A    2
 N1 
A    3
 C2 
A    4
 C3 
A    5
 C4 
A    6
 C5 
A    7
 C6 
A    8
 C7 
A    9
 N2 
A   10
 N3 
A   11
 N4 
A   12
 C8 
A   13
 N5 
A   14
 C9 
A   15
 O1 
A   16
 C10
A   17
 C11
A   18
CL1 
A   19
 C12
A   20
 C13
A   21
 C14
A   22
 C15
A   23
 H1 
A   24
 H2 
A   25
 H3 
A   26
 H4 
A   27
 H5 
A   28
 H6 
A   29
 H7 
A   30
 H8 
A   31
 H9 
A   32
 H10
A   33
 H11
A   34
 H12
M  END
>  <ref_pdb>  (486) 
x0051_0B

>  <ref_mols>  (486) 
x0852_0B,x0951_0B

>  <original SMILES>  (486) 
[H]c1c([H])c([H])c(C(=O)N([H])c2c([H])c([H])c([H])c(-c3nnn(C([H])([H])[H])n3)c2[H])c(Cl)c1[H]

>  <index>  (486) 
849

>  <∆∆G>  (486) 
-6.596106

>  <∆G_bound>  (486) 
-5.951274

>  <∆G_unbound>  (486) 
0.644833

>  <comRMSD>  (486) 
0.895941

>  <N_constrained_atoms>  (486) 
23.0

>  <N_unconstrained_atoms>  (486) 
0.0

>  <runtime>  (486) 
63.045488

>  <LE>  (486) 
0.286787

>  <percent_hybrid>  (486) 
32.0

>  <dist>  (486) 
7.0

>  <ecfp4>  (486) 
0.207317

>  <daylight>  (486) 
0.281385

>  <topodist>  (486) 
3.0

>  <mces>  (486) 
23.0

>  <tdn>  (486) 
1.0

>  <tup>  (486) 
0.0

>  <rdn>  (486) 
1.0

>  <rup>  (486) 
1.0

>  <ldn>  (486) 
0.0

>  <lup>  (486) 
0.0

>  <mut>  (486) 
3.0

>  <maj>  (486) 
2.0

>  <min>  (486) 
1.0

>  <hyb>  (486) 
1.0

>  <sub>  (486) 
3.0

>  <query_index>  (486) 
95.0

>  <max_hit_Tanimoto>  (486) 
0.340934

>  <largest_ring>  (486) 
6

>  <N_interactions_kept>  (486) 
2.0

>  <N_interactions_lost>  (486) 
4.0

>  <interaction_uniqueness_metric>  (486) 
0.227654

>  <ad_hoc_penalty>  (486) 
-17.649005

>  <N_rotatable_bonds>  (486) 
4

>  <N_HA>  (486) 
22

>  <cluster>  (486) 
5441

>  <N_interactions>  (486) 
9

>  <Enamine>  (486) 
0

>  <Mcule>  (486) 
1

>  <N_PAINS>  (486) 
0

>  <UFF_Gibbs>  (486) 
106.566605

>  <strain_per_HA>  (486) 
4.633331

>  <saltbridge:HIS:51>  (486) 
0

>  <pistack:HIS:51>  (486) 
0

>  <hydroph_interaction:HIS:51>  (486) 
0

>  <hbond:ALA:132>  (486) 
0

>  <hbond:SER:135>  (486) 
0

>  <hydroph_interaction:TYR:150>  (486) 
1

>  <pistack:TYR:161>  (486) 
0

>  <hydroph_interaction:TYR:161>  (486) 
3

>  <hydroph_interaction:ASP:83>  (486) 
0

>  <hbond:TYR:130>  (486) 
1

>  <hydroph_interaction:ALA:132>  (486) 
1

>  <hbond:HIS:51>  (486) 
1

>  <hbond:ASP:129>  (486) 
1

>  <hbond:TYR:150>  (486) 
0

>  <hbond:GLY:151>  (486) 
0

>  <hbond:TYR:161>  (486) 
0

>  <hydroph_interaction:TYR:130>  (486) 
0

>  <hydroph_interaction:PRO:131>  (486) 
0

>  <hydroph_interaction:ASP:129>  (486) 
1

>  <saltbridge:ASP:75>  (486) 
0

>  <saltbridge:ASP:83>  (486) 
0

>  <hydroph_interaction:ASN:152>  (486) 
0

>  <halogenbond:TYR:150>  (486) 
0

>  <hbond:ASP:83>  (486) 
0

>  <hydroph_interaction:VAL:155>  (486) 
0

>  <pication:TYR:161>  (486) 
0

>  <hbond:PRO:131>  (486) 
0

>  <hbond:LEU:128>  (486) 
0

>  <saltbridge:ASP:129>  (486) 
0

>  <hbond:THR:134>  (486) 
0

>  <pication:HIS:51>  (486) 
0

>  <hbond:SER:81>  (486) 
0

>  <hbond:GLY:159>  (486) 
0

>  <hydroph_interaction:PRO:101>  (486) 
0

>  <hydroph_interaction:THR:134>  (486) 
0

>  <hbond:GLY:82>  (486) 
0

>  <hydroph_interaction:GLU:104>  (486) 
0

>  <hydroph_interaction:VAL:36>  (486) 
0

>  <hydroph_interaction:MET:49>  (486) 
0

>  <halogenbond:GLU:104>  (486) 
0

>  <hydroph_interaction:LYS:107>  (486) 
0

$$$$
MCULE-9022794057
     RDKit          3D

 49 53  0  0  0  0  0  0  0  0999 V2000
   -6.9403    5.3870  -18.7056 N   0  0  0  0  0  0  0  0  0  0  0  0
   -8.1103    6.0534  -18.9066 C   0  0  0  0  0  0  0  0  0  0  0  0
   -9.2115    5.7165  -18.1046 C   0  0  0  0  0  0  0  0  0  0  0  0
   -9.0788    4.7121  -17.1269 C   0  0  0  0  0  0  0  0  0  0  0  0
   -7.8533    4.0504  -16.9535 C   0  0  0  0  0  0  0  0  0  0  0  0
   -6.7967    4.4273  -17.7782 C   0  0  0  0  0  0  0  0  0  0  0  0
   -5.5542    3.9154  -17.7661 N   0  0  0  0  0  0  0  0  0  0  0  0
   -4.8794    4.5619  -18.7103 N   0  0  0  0  0  0  0  0  0  0  0  0
   -5.7194    5.4558  -19.2818 C   0  0  0  0  0  0  0  0  0  0  0  0
   -5.2868    6.3714  -20.4033 C   0  0  0  0  0  0  0  0  0  0  0  0
   -6.0693    6.1021  -21.7000 C   0  0  0  0  0  0  0  0  0  0  0  0
   -5.5806    7.0191  -22.8247 C   0  0  0  0  0  0  0  0  0  0  0  0
   -5.5995    8.4238  -22.3857 N   0  0  0  0  0  0  0  0  0  0  0  0
   -4.8865    8.7539  -21.1427 C   0  0  0  0  0  0  0  0  0  0  0  0
   -5.3614    7.8533  -19.9977 C   0  0  0  0  0  0  0  0  0  0  0  0
   -5.9734    9.4849  -23.2912 C   0  0  0  0  0  0  0  0  0  0  0  0
   -7.0697    9.3127  -24.3052 C   0  0  0  0  0  0  0  0  0  0  0  0
   -6.4882    9.0382  -25.6946 C   0  0  0  0  0  0  0  0  0  0  0  0
   -7.5860    8.8011  -26.6808 C   0  0  0  0  0  0  0  0  0  0  0  0
   -8.3545   10.0218  -27.5706 S   0  0  0  0  0  0  0  0  0  0  0  0
   -9.4170    8.9321  -28.2769 C   0  0  0  0  0  0  0  0  0  0  0  0
   -9.1523    7.6599  -27.7942 C   0  0  0  0  0  0  0  0  0  0  0  0
   -9.9106    6.5701  -28.2253 C   0  0  0  0  0  0  0  0  0  0  0  0
  -10.9410    6.7906  -29.1560 C   0  0  0  0  0  0  0  0  0  0  0  0
  -11.2007    8.0886  -29.6399 C   0  0  0  0  0  0  0  0  0  0  0  0
  -10.4326    9.1776  -29.1975 C   0  0  0  0  0  0  0  0  0  0  0  0
   -8.1365    7.5809  -26.8974 N   0  0  0  0  0  0  0  0  0  0  0  0
   -5.3801   10.5966  -23.2332 O   0  0  0  0  0  0  0  0  0  0  0  0
   -8.2114    6.8229  -19.6556 H   0  0  0  0  0  0  0  0  0  0  0  0
  -10.1572    6.2258  -18.2369 H   0  0  0  0  0  0  0  0  0  0  0  0
   -9.9254    4.4491  -16.5061 H   0  0  0  0  0  0  0  0  0  0  0  0
   -7.7357    3.2763  -16.2062 H   0  0  0  0  0  0  0  0  0  0  0  0
   -4.2166    6.1426  -20.6126 H   0  0  0  0  0  0  0  0  0  0  0  0
   -5.9282    5.0432  -22.0084 H   0  0  0  0  0  0  0  0  0  0  0  0
   -7.1547    6.2719  -21.5552 H   0  0  0  0  0  0  0  0  0  0  0  0
   -4.5425    6.7411  -23.1095 H   0  0  0  0  0  0  0  0  0  0  0  0
   -6.2229    6.8509  -23.7112 H   0  0  0  0  0  0  0  0  0  0  0  0
   -5.0691    9.8109  -20.8492 H   0  0  0  0  0  0  0  0  0  0  0  0
   -3.7936    8.6225  -21.2991 H   0  0  0  0  0  0  0  0  0  0  0  0
   -6.3975    8.1417  -19.7305 H   0  0  0  0  0  0  0  0  0  0  0  0
   -4.7190    8.0299  -19.1075 H   0  0  0  0  0  0  0  0  0  0  0  0
   -7.6744   10.2455  -24.3393 H   0  0  0  0  0  0  0  0  0  0  0  0
   -7.7550    8.4946  -23.9959 H   0  0  0  0  0  0  0  0  0  0  0  0
   -5.8258    8.1468  -25.6691 H   0  0  0  0  0  0  0  0  0  0  0  0
   -5.8798    9.9075  -26.0262 H   0  0  0  0  0  0  0  0  0  0  0  0
   -9.7113    5.5739  -27.8516 H   0  0  0  0  0  0  0  0  0  0  0  0
  -11.5394    5.9580  -29.5024 H   0  0  0  0  0  0  0  0  0  0  0  0
  -11.9970    8.2473  -30.3554 H   0  0  0  0  0  0  0  0  0  0  0  0
  -10.6256   10.1783  -29.5615 H   0  0  0  0  0  0  0  0  0  0  0  0
  1  2  1  0
  2  3  2  0
  3  4  1  0
  4  5  2  0
  5  6  1  0
  6  7  2  0
  7  8  1  0
  8  9  2  0
  9 10  1  0
 10 11  1  0
 11 12  1  0
 12 13  1  0
 13 14  1  0
 14 15  1  0
 13 16  1  0
 16 17  1  0
 17 18  1  0
 18 19  1  0
 19 20  1  0
 20 21  1  0
 21 22  2  0
 22 23  1  0
 23 24  2  0
 24 25  1  0
 25 26  2  0
 22 27  1  0
 16 28  2  0
  6  1  1  0
  9  1  1  0
 15 10  1  0
 19 27  2  0
 21 26  1  0
  2 29  1  0
  3 30  1  0
  4 31  1  0
  5 32  1  0
 10 33  1  0
 11 34  1  0
 11 35  1  0
 12 36  1  0
 12 37  1  0
 14 38  1  0
 14 39  1  0
 15 40  1  0
 15 41  1  0
 17 42  1  0
 17 43  1  0
 18 44  1  0
 18 45  1  0
 23 46  1  0
 24 47  1  0
 25 48  1  0
 26 49  1  0
A    1
 N1 
A    2
 C1 
A    3
 C2 
A    4
 C3 
A    5
 C4 
A    6
 C5 
A    7
 N2 
A    8
 N3 
A    9
 C6 
A   10
 C7 
A   11
 C8 
A   12
 C9 
A   13
 N4 
A   14
 C10
A   15
 C11
A   16
 C12
A   17
 C13
A   18
 C14
A   19
 C15
A   20
 S1 
A   21
 C16
A   22
 C17
A   23
 C18
A   24
 C19
A   25
 C20
A   26
 C21
A   27
 N5 
A   28
 O1 
A   29
 H1 
A   30
 H2 
A   31
 H3 
A   32
 H4 
A   33
 H5 
A   34
 H6 
A   35
 H7 
A   36
 H8 
A   37
 H9 
A   38
 H10
A   39
 H11
A   40
 H12
A   41
 H13
A   42
 H14
A   43
 H15
A   44
 H16
A   45
 H17
A   46
 H18
A   47
 H19
A   48
 H20
A   49
 H21
M  END
>  <ref_pdb>  (487) 
x0051_0B

>  <ref_mols>  (487) 
x0435_0B,x0846_1B

>  <original SMILES>  (487) 
[H]c1c([H])c([H])c2sc(C([H])([H])C([H])([H])C(=O)N3C([H])([H])C([H])([H])C([H])(c4nnc5c([H])c([H])c([H])c([H])n45)C([H])([H])C3([H])[H])nc2c1[H]

>  <index>  (487) 
568

>  <∆∆G>  (487) 
-5.962945

>  <∆G_bound>  (487) 
-4.866622

>  <∆G_unbound>  (487) 
1.096323

>  <comRMSD>  (487) 
0.984081

>  <N_constrained_atoms>  (487) 
28.0

>  <N_unconstrained_atoms>  (487) 
1.0

>  <runtime>  (487) 
49.894855

>  <LE>  (487) 
0.205619

>  <percent_hybrid>  (487) 
36.0

>  <dist>  (487) 
11.0

>  <ecfp4>  (487) 
0.280899

>  <daylight>  (487) 
0.254355

>  <topodist>  (487) 
4.0

>  <mces>  (487) 
31.0

>  <tdn>  (487) 
1.0

>  <tup>  (487) 
0.0

>  <rdn>  (487) 
1.0

>  <rup>  (487) 
1.0

>  <ldn>  (487) 
1.0

>  <lup>  (487) 
0.0

>  <mut>  (487) 
3.0

>  <maj>  (487) 
3.0

>  <min>  (487) 
0.0

>  <hyb>  (487) 
4.0

>  <sub>  (487) 
0.0

>  <query_index>  (487) 
36.0

>  <max_hit_Tanimoto>  (487) 
0.27193

>  <largest_ring>  (487) 
6

>  <N_interactions_kept>  (487) 
1.0

>  <N_interactions_lost>  (487) 
2.0

>  <interaction_uniqueness_metric>  (487) 
0.175892

>  <ad_hoc_penalty>  (487) 
-17.630514

>  <N_rotatable_bonds>  (487) 
4

>  <N_HA>  (487) 
28

>  <cluster>  (487) 
5698

>  <N_interactions>  (487) 
6

>  <Enamine>  (487) 
0

>  <Mcule>  (487) 
1

>  <N_PAINS>  (487) 
0

>  <UFF_Gibbs>  (487) 
207.294872

>  <strain_per_HA>  (487) 
7.148099

>  <saltbridge:HIS:51>  (487) 
0

>  <pistack:HIS:51>  (487) 
0

>  <hydroph_interaction:HIS:51>  (487) 
0

>  <hbond:ALA:132>  (487) 
0

>  <hbond:SER:135>  (487) 
0

>  <hydroph_interaction:TYR:150>  (487) 
1

>  <pistack:TYR:161>  (487) 
2

>  <hydroph_interaction:TYR:161>  (487) 
0

>  <hydroph_interaction:ASP:83>  (487) 
0

>  <hbond:TYR:130>  (487) 
0

>  <hydroph_interaction:ALA:132>  (487) 
0

>  <hbond:HIS:51>  (487) 
0

>  <hbond:ASP:129>  (487) 
0

>  <hbond:TYR:150>  (487) 
0

>  <hbond:GLY:151>  (487) 
0

>  <hbond:TYR:161>  (487) 
0

>  <hydroph_interaction:TYR:130>  (487) 
1

>  <hydroph_interaction:PRO:131>  (487) 
1

>  <hydroph_interaction:ASP:129>  (487) 
1

>  <saltbridge:ASP:75>  (487) 
0

>  <saltbridge:ASP:83>  (487) 
0

>  <hydroph_interaction:ASN:152>  (487) 
0

>  <halogenbond:TYR:150>  (487) 
0

>  <hbond:ASP:83>  (487) 
0

>  <hydroph_interaction:VAL:155>  (487) 
0

>  <pication:TYR:161>  (487) 
0

>  <hbond:PRO:131>  (487) 
0

>  <hbond:LEU:128>  (487) 
0

>  <saltbridge:ASP:129>  (487) 
0

>  <hbond:THR:134>  (487) 
0

>  <pication:HIS:51>  (487) 
0

>  <hbond:SER:81>  (487) 
0

>  <hbond:GLY:159>  (487) 
0

>  <hydroph_interaction:PRO:101>  (487) 
0

>  <hydroph_interaction:THR:134>  (487) 
0

>  <hbond:GLY:82>  (487) 
0

>  <hydroph_interaction:GLU:104>  (487) 
0

>  <hydroph_interaction:VAL:36>  (487) 
0

>  <hydroph_interaction:MET:49>  (487) 
0

>  <halogenbond:GLU:104>  (487) 
0

>  <hydroph_interaction:LYS:107>  (487) 
0

$$$$
CSSS00046184267
     RDKit          3D

 32 33  0  0  0  0  0  0  0  0999 V2000
  -11.2620    5.8173  -19.1217 C   0  0  0  0  0  0  0  0  0  0  0  0
   -9.9553    6.0415  -18.4194 C   0  0  0  0  0  0  0  0  0  0  0  0
   -9.9347    6.5210  -17.1038 C   0  0  0  0  0  0  0  0  0  0  0  0
   -8.7203    6.7098  -16.4418 C   0  0  0  0  0  0  0  0  0  0  0  0
   -7.5062    6.3970  -17.0744 C   0  0  0  0  0  0  0  0  0  0  0  0
   -6.2099    6.6135  -16.3420 C   0  0  0  0  0  0  0  0  0  0  0  0
   -7.5195    5.8888  -18.3927 C   0  0  0  0  0  0  0  0  0  0  0  0
   -6.2853    5.5990  -19.0719 N   0  0  0  0  0  0  0  0  0  0  0  0
   -6.0577    4.3898  -19.8170 C   0  0  0  0  0  0  0  0  0  0  0  0
   -6.9765    3.5332  -19.9305 O   0  0  0  0  0  0  0  0  0  0  0  0
   -4.7535    4.1329  -20.4661 C   0  0  0  0  0  0  0  0  0  0  0  0
   -4.7203    3.5205  -21.7315 C   0  0  0  0  0  0  0  0  0  0  0  0
   -3.5001    3.2701  -22.3658 C   0  0  0  0  0  0  0  0  0  0  0  0
   -2.3011    3.6174  -21.7398 C   0  0  0  0  0  0  0  0  0  0  0  0
   -1.1184    3.3712  -22.3554 F   0  0  0  0  0  0  0  0  0  0  0  0
   -2.3203    4.2082  -20.4740 C   0  0  0  0  0  0  0  0  0  0  0  0
   -3.5377    4.4632  -19.8329 C   0  0  0  0  0  0  0  0  0  0  0  0
   -3.5190    4.9795  -18.5781 F   0  0  0  0  0  0  0  0  0  0  0  0
   -8.7481    5.7194  -19.0553 C   0  0  0  0  0  0  0  0  0  0  0  0
  -11.6050    4.7775  -18.9394 H   0  0  0  0  0  0  0  0  0  0  0  0
  -11.1505    5.9756  -20.2156 H   0  0  0  0  0  0  0  0  0  0  0  0
  -12.0346    6.5239  -18.7505 H   0  0  0  0  0  0  0  0  0  0  0  0
  -10.8595    6.7573  -16.5919 H   0  0  0  0  0  0  0  0  0  0  0  0
   -8.7295    7.0969  -15.4303 H   0  0  0  0  0  0  0  0  0  0  0  0
   -5.6799    7.4877  -16.7745 H   0  0  0  0  0  0  0  0  0  0  0  0
   -6.3798    6.8035  -15.2607 H   0  0  0  0  0  0  0  0  0  0  0  0
   -5.5662    5.7129  -16.4311 H   0  0  0  0  0  0  0  0  0  0  0  0
   -5.5129    6.2968  -18.9932 H   0  0  0  0  0  0  0  0  0  0  0  0
   -5.6402    3.2492  -22.2351 H   0  0  0  0  0  0  0  0  0  0  0  0
   -3.4858    2.8065  -23.3438 H   0  0  0  0  0  0  0  0  0  0  0  0
   -1.3889    4.4595  -19.9828 H   0  0  0  0  0  0  0  0  0  0  0  0
   -8.7647    5.3614  -20.0772 H   0  0  0  0  0  0  0  0  0  0  0  0
  1  2  1  0
  2  3  2  0
  3  4  1  0
  4  5  2  0
  5  6  1  0
  5  7  1  0
  7  8  1  0
  8  9  1  0
  9 10  2  0
  9 11  1  0
 11 12  2  0
 12 13  1  0
 13 14  2  0
 14 15  1  0
 14 16  1  0
 16 17  2  0
 17 18  1  0
  7 19  2  0
 19  2  1  0
 17 11  1  0
  1 20  1  0
  1 21  1  0
  1 22  1  0
  3 23  1  0
  4 24  1  0
  6 25  1  0
  6 26  1  0
  6 27  1  0
  8 28  1  0
 12 29  1  0
 13 30  1  0
 16 31  1  0
 19 32  1  0
A    1
 C1 
A    2
 C2 
A    3
 C3 
A    4
 C4 
A    5
 C5 
A    6
 C6 
A    7
 C7 
A    8
 N1 
A    9
 C8 
A   10
 O1 
A   11
 C9 
A   12
 C10
A   13
 C11
A   14
 C12
A   15
 F1 
A   16
 C13
A   17
 C14
A   18
 F2 
A   19
 C15
A   20
 H1 
A   21
 H2 
A   22
 H3 
A   23
 H4 
A   24
 H5 
A   25
 H6 
A   26
 H7 
A   27
 H8 
A   28
 H9 
A   29
 H10
A   30
 H11
A   31
 H12
A   32
 H13
M  END
>  <ref_pdb>  (488) 
x0051_0B

>  <ref_mols>  (488) 
x0852_0B,x0605_0B

>  <original SMILES>  (488) 
[H]c1c([H])c(C(=O)N([H])c2c([H])c(C([H])([H])[H])c([H])c([H])c2C([H])([H])[H])c(F)c([H])c1F

>  <index>  (488) 
661

>  <∆∆G>  (488) 
-7.825262

>  <∆G_bound>  (488) 
-7.40588

>  <∆G_unbound>  (488) 
0.419383

>  <comRMSD>  (488) 
0.731865

>  <N_constrained_atoms>  (488) 
21.0

>  <N_unconstrained_atoms>  (488) 
1.0

>  <runtime>  (488) 
32.80124

>  <LE>  (488) 
0.355694

>  <percent_hybrid>  (488) 
20.0

>  <dist>  (488) 
3.0

>  <ecfp4>  (488) 
0.37931

>  <daylight>  (488) 
0.548148

>  <topodist>  (488) 
2.0

>  <mces>  (488) 
19.0

>  <tdn>  (488) 
1.0

>  <tup>  (488) 
1.0

>  <rdn>  (488) 
0.0

>  <rup>  (488) 
0.0

>  <ldn>  (488) 
0.0

>  <lup>  (488) 
0.0

>  <mut>  (488) 
1.0

>  <maj>  (488) 
1.0

>  <min>  (488) 
0.0

>  <hyb>  (488) 
0.0

>  <sub>  (488) 
1.0

>  <query_index>  (488) 
176.0

>  <max_hit_Tanimoto>  (488) 
0.52861

>  <largest_ring>  (488) 
6

>  <N_interactions_kept>  (488) 
3.0

>  <N_interactions_lost>  (488) 
3.0

>  <interaction_uniqueness_metric>  (488) 
0.095402

>  <ad_hoc_penalty>  (488) 
-17.628458

>  <N_rotatable_bonds>  (488) 
4

>  <N_HA>  (488) 
19

>  <cluster>  (488) 
5613

>  <N_interactions>  (488) 
7

>  <Enamine>  (488) 
1

>  <Mcule>  (488) 
0

>  <N_PAINS>  (488) 
0

>  <UFF_Gibbs>  (488) 
109.647656

>  <strain_per_HA>  (488) 
4.983984

>  <saltbridge:HIS:51>  (488) 
0

>  <pistack:HIS:51>  (488) 
0

>  <hydroph_interaction:HIS:51>  (488) 
0

>  <hbond:ALA:132>  (488) 
0

>  <hbond:SER:135>  (488) 
0

>  <hydroph_interaction:TYR:150>  (488) 
1

>  <pistack:TYR:161>  (488) 
0

>  <hydroph_interaction:TYR:161>  (488) 
4

>  <hydroph_interaction:ASP:83>  (488) 
0

>  <hbond:TYR:130>  (488) 
1

>  <hydroph_interaction:ALA:132>  (488) 
0

>  <hbond:HIS:51>  (488) 
0

>  <hbond:ASP:129>  (488) 
0

>  <hbond:TYR:150>  (488) 
0

>  <hbond:GLY:151>  (488) 
0

>  <hbond:TYR:161>  (488) 
0

>  <hydroph_interaction:TYR:130>  (488) 
0

>  <hydroph_interaction:PRO:131>  (488) 
0

>  <hydroph_interaction:ASP:129>  (488) 
1

>  <saltbridge:ASP:75>  (488) 
0

>  <saltbridge:ASP:83>  (488) 
0

>  <hydroph_interaction:ASN:152>  (488) 
0

>  <halogenbond:TYR:150>  (488) 
0

>  <hbond:ASP:83>  (488) 
0

>  <hydroph_interaction:VAL:155>  (488) 
0

>  <pication:TYR:161>  (488) 
0

>  <hbond:PRO:131>  (488) 
0

>  <hbond:LEU:128>  (488) 
0

>  <saltbridge:ASP:129>  (488) 
0

>  <hbond:THR:134>  (488) 
0

>  <pication:HIS:51>  (488) 
0

>  <hbond:SER:81>  (488) 
0

>  <hbond:GLY:159>  (488) 
0

>  <hydroph_interaction:PRO:101>  (488) 
0

>  <hydroph_interaction:THR:134>  (488) 
0

>  <hbond:GLY:82>  (488) 
0

>  <hydroph_interaction:GLU:104>  (488) 
0

>  <hydroph_interaction:VAL:36>  (488) 
0

>  <hydroph_interaction:MET:49>  (488) 
0

>  <halogenbond:GLU:104>  (488) 
0

>  <hydroph_interaction:LYS:107>  (488) 
0

$$$$
HGIMZXSGQIFERI-UHFFFAOYSA-N
     RDKit          3D

 33 35  0  0  0  0  0  0  0  0999 V2000
   -4.9223    5.4936  -17.5607 N   0  0  0  0  0  0  0  0  0  0  0  0
   -4.4835    4.4279  -16.6422 C   0  0  0  0  0  0  0  0  0  0  0  0
   -5.8480    4.9740  -18.6041 C   0  0  0  0  0  0  0  0  0  0  0  0
   -5.7047    5.7888  -19.8711 C   0  0  0  0  0  0  0  0  0  0  0  0
   -4.7643    5.4135  -20.7829 N   0  0  0  0  0  0  0  0  0  0  0  0
   -4.5477    6.1062  -21.9344 C   0  0  0  0  0  0  0  0  0  0  0  0
   -3.4954    5.6477  -22.8927 C   0  0  0  0  0  0  0  0  0  0  0  0
   -5.2946    7.2594  -22.2013 C   0  0  0  0  0  0  0  0  0  0  0  0
   -6.2558    7.6785  -21.2817 C   0  0  0  0  0  0  0  0  0  0  0  0
   -6.4640    6.9498  -20.1101 C   0  0  0  0  0  0  0  0  0  0  0  0
   -7.2774    4.9126  -18.1193 C   0  0  0  0  0  0  0  0  0  0  0  0
   -7.6997    5.6135  -17.0051 C   0  0  0  0  0  0  0  0  0  0  0  0
   -9.3386    5.3347  -16.7706 S   0  0  0  0  0  0  0  0  0  0  0  0
   -9.5373    4.3417  -18.1183 C   0  0  0  0  0  0  0  0  0  0  0  0
   -8.3089    4.2091  -18.7564 C   0  0  0  0  0  0  0  0  0  0  0  0
   -6.7877    6.3799  -16.1086 C   0  0  0  0  0  0  0  0  0  0  0  0
   -5.4538    6.6684  -16.8238 C   0  0  0  0  0  0  0  0  0  0  0  0
   -5.3506    3.9241  -16.1627 H   0  0  0  0  0  0  0  0  0  0  0  0
   -3.8945    3.6696  -17.2009 H   0  0  0  0  0  0  0  0  0  0  0  0
   -3.8185    4.8404  -15.8533 H   0  0  0  0  0  0  0  0  0  0  0  0
   -5.5595    3.9309  -18.8710 H   0  0  0  0  0  0  0  0  0  0  0  0
   -3.0843    4.6647  -22.5791 H   0  0  0  0  0  0  0  0  0  0  0  0
   -3.9299    5.5425  -23.9092 H   0  0  0  0  0  0  0  0  0  0  0  0
   -2.6694    6.3889  -22.9221 H   0  0  0  0  0  0  0  0  0  0  0  0
   -5.1305    7.8278  -23.1085 H   0  0  0  0  0  0  0  0  0  0  0  0
   -6.8369    8.5710  -21.4747 H   0  0  0  0  0  0  0  0  0  0  0  0
   -7.2076    7.2910  -19.4018 H   0  0  0  0  0  0  0  0  0  0  0  0
  -10.4632    3.8805  -18.4340 H   0  0  0  0  0  0  0  0  0  0  0  0
   -8.1666    3.6213  -19.6537 H   0  0  0  0  0  0  0  0  0  0  0  0
   -7.2689    7.3377  -15.8174 H   0  0  0  0  0  0  0  0  0  0  0  0
   -6.6034    5.7873  -15.1877 H   0  0  0  0  0  0  0  0  0  0  0  0
   -4.7081    7.0221  -16.0788 H   0  0  0  0  0  0  0  0  0  0  0  0
   -5.5953    7.5119  -17.5317 H   0  0  0  0  0  0  0  0  0  0  0  0
  1  2  1  0
  1  3  1  0
  3  4  1  0
  4  5  2  0
  5  6  1  0
  6  7  1  0
  6  8  2  0
  8  9  1  0
  9 10  2  0
  3 11  1  0
 11 12  2  0
 12 13  1  0
 13 14  1  0
 14 15  2  0
 12 16  1  0
 16 17  1  0
 17  1  1  0
  4 10  1  0
 15 11  1  0
  2 18  1  0
  2 19  1  0
  2 20  1  0
  3 21  1  0
  7 22  1  0
  7 23  1  0
  7 24  1  0
  8 25  1  0
  9 26  1  0
 10 27  1  0
 14 28  1  0
 15 29  1  0
 16 30  1  0
 16 31  1  0
 17 32  1  0
 17 33  1  0
A    1
 N1 
A    2
 C1 
A    3
 C2 
A    4
 C3 
A    5
 N2 
A    6
 C4 
A    7
 C5 
A    8
 C6 
A    9
 C7 
A   10
 C8 
A   11
 C9 
A   12
 C10
A   13
 S1 
A   14
 C11
A   15
 C12
A   16
 C13
A   17
 C14
A   18
 H1 
A   19
 H2 
A   20
 H3 
A   21
 H4 
A   22
 H5 
A   23
 H6 
A   24
 H7 
A   25
 H8 
A   26
 H9 
A   27
 H10
A   28
 H11
A   29
 H12
A   30
 H13
A   31
 H14
A   32
 H15
A   33
 H16
M  END
>  <ref_pdb>  (489) 
x0051_0B

>  <ref_mols>  (489) 
x0680_0B,x0472_0B

>  <original SMILES>  (489) 
[H]c1sc2c(c1[H])C([H])(c1nc(C([H])([H])[H])c([H])c([H])c1[H])N(C([H])([H])[H])C([H])([H])C2([H])[H]

>  <index>  (489) 
846

>  <∆∆G>  (489) 
-7.527933

>  <∆G_bound>  (489) 
-7.771653

>  <∆G_unbound>  (489) 
-0.24372

>  <comRMSD>  (489) 
0.964782

>  <N_constrained_atoms>  (489) 
15.0

>  <N_unconstrained_atoms>  (489) 
5.0

>  <runtime>  (489) 
25.696207

>  <LE>  (489) 
0.376397

>  <percent_hybrid>  (489) 
43.0

>  <dist>  (489) 
7.0

>  <ecfp4>  (489) 
0.238806

>  <daylight>  (489) 
0.268212

>  <topodist>  (489) 
3.0

>  <mces>  (489) 
17.0

>  <tdn>  (489) 
0.0

>  <tup>  (489) 
1.0

>  <rdn>  (489) 
1.0

>  <rup>  (489) 
1.0

>  <ldn>  (489) 
0.0

>  <lup>  (489) 
0.0

>  <mut>  (489) 
2.0

>  <maj>  (489) 
2.0

>  <min>  (489) 
0.0

>  <hyb>  (489) 
2.0

>  <sub>  (489) 
2.0

>  <query_index>  (489) 
38.0

>  <max_hit_Tanimoto>  (489) 
0.425723

>  <largest_ring>  (489) 
6

>  <N_interactions_kept>  (489) 
4.5

>  <N_interactions_lost>  (489) 
0.5

>  <interaction_uniqueness_metric>  (489) 
0.046127

>  <ad_hoc_penalty>  (489) 
-17.603425

>  <N_rotatable_bonds>  (489) 
3

>  <N_HA>  (489) 
17

>  <cluster>  (489) 
5444

>  <N_interactions>  (489) 
2

>  <Enamine>  (489) 
0

>  <Mcule>  (489) 
1

>  <N_PAINS>  (489) 
0

>  <UFF_Gibbs>  (489) 
56.572698

>  <strain_per_HA>  (489) 
2.828635

>  <saltbridge:HIS:51>  (489) 
0

>  <pistack:HIS:51>  (489) 
0

>  <hydroph_interaction:HIS:51>  (489) 
0

>  <hbond:ALA:132>  (489) 
0

>  <hbond:SER:135>  (489) 
0

>  <hydroph_interaction:TYR:150>  (489) 
0

>  <pistack:TYR:161>  (489) 
0

>  <hydroph_interaction:TYR:161>  (489) 
1

>  <hydroph_interaction:ASP:83>  (489) 
0

>  <hbond:TYR:130>  (489) 
0

>  <hydroph_interaction:ALA:132>  (489) 
0

>  <hbond:HIS:51>  (489) 
0

>  <hbond:ASP:129>  (489) 
0

>  <hbond:TYR:150>  (489) 
0

>  <hbond:GLY:151>  (489) 
0

>  <hbond:TYR:161>  (489) 
0

>  <hydroph_interaction:TYR:130>  (489) 
0

>  <hydroph_interaction:PRO:131>  (489) 
0

>  <hydroph_interaction:ASP:129>  (489) 
1

>  <saltbridge:ASP:75>  (489) 
0

>  <saltbridge:ASP:83>  (489) 
0

>  <hydroph_interaction:ASN:152>  (489) 
0

>  <halogenbond:TYR:150>  (489) 
0

>  <hbond:ASP:83>  (489) 
0

>  <hydroph_interaction:VAL:155>  (489) 
0

>  <pication:TYR:161>  (489) 
0

>  <hbond:PRO:131>  (489) 
0

>  <hbond:LEU:128>  (489) 
0

>  <saltbridge:ASP:129>  (489) 
0

>  <hbond:THR:134>  (489) 
0

>  <pication:HIS:51>  (489) 
0

>  <hbond:SER:81>  (489) 
0

>  <hbond:GLY:159>  (489) 
0

>  <hydroph_interaction:PRO:101>  (489) 
0

>  <hydroph_interaction:THR:134>  (489) 
0

>  <hbond:GLY:82>  (489) 
0

>  <hydroph_interaction:GLU:104>  (489) 
0

>  <hydroph_interaction:VAL:36>  (489) 
0

>  <hydroph_interaction:MET:49>  (489) 
0

>  <halogenbond:GLU:104>  (489) 
0

>  <hydroph_interaction:LYS:107>  (489) 
0

$$$$
CSSB00011516059
     RDKit          3D

 24 25  0  0  0  0  0  0  0  0999 V2000
   -6.7913    5.3325  -20.0135 C   0  0  0  0  0  0  0  0  0  0  0  0
   -7.7581    5.1125  -18.8784 C   0  0  0  0  0  0  0  0  0  0  0  0
   -9.0665    4.6650  -19.1482 C   0  0  0  0  0  0  0  0  0  0  0  0
   -9.4719    4.4219  -20.4208 F   0  0  0  0  0  0  0  0  0  0  0  0
   -9.9744    4.4676  -18.1073 C   0  0  0  0  0  0  0  0  0  0  0  0
   -9.5949    4.7021  -16.7876 C   0  0  0  0  0  0  0  0  0  0  0  0
   -8.2926    5.1221  -16.4893 C   0  0  0  0  0  0  0  0  0  0  0  0
   -7.3674    5.3435  -17.5356 C   0  0  0  0  0  0  0  0  0  0  0  0
   -6.0284    5.7657  -17.2095 N   0  0  0  0  0  0  0  0  0  0  0  0
   -5.6805    6.2023  -15.8599 C   0  0  0  0  0  0  0  0  0  0  0  0
   -6.4023    5.3351  -14.8305 C   0  0  0  0  0  0  0  0  0  0  0  0
   -7.9172    5.4022  -15.0528 C   0  0  0  0  0  0  0  0  0  0  0  0
   -7.2783    5.2340  -21.0058 H   0  0  0  0  0  0  0  0  0  0  0  0
   -6.3651    6.3561  -19.9537 H   0  0  0  0  0  0  0  0  0  0  0  0
   -5.9720    4.5856  -19.9557 H   0  0  0  0  0  0  0  0  0  0  0  0
  -10.9807    4.1330  -18.3249 H   0  0  0  0  0  0  0  0  0  0  0  0
  -10.3171    4.5519  -15.9945 H   0  0  0  0  0  0  0  0  0  0  0  0
   -5.2630    5.7221  -17.9178 H   0  0  0  0  0  0  0  0  0  0  0  0
   -5.9800    7.2649  -15.7306 H   0  0  0  0  0  0  0  0  0  0  0  0
   -4.5817    6.1268  -15.7110 H   0  0  0  0  0  0  0  0  0  0  0  0
   -6.1600    5.6916  -13.8062 H   0  0  0  0  0  0  0  0  0  0  0  0
   -6.0567    4.2820  -14.9250 H   0  0  0  0  0  0  0  0  0  0  0  0
   -8.4068    4.6649  -14.3798 H   0  0  0  0  0  0  0  0  0  0  0  0
   -8.2858    6.4147  -14.7795 H   0  0  0  0  0  0  0  0  0  0  0  0
  1  2  1  0
  2  3  2  0
  3  4  1  0
  3  5  1  0
  5  6  2  0
  6  7  1  0
  7  8  2  0
  8  9  1  0
  9 10  1  0
 10 11  1  0
 11 12  1  0
  8  2  1  0
 12  7  1  0
  1 13  1  0
  1 14  1  0
  1 15  1  0
  5 16  1  0
  6 17  1  0
  9 18  1  0
 10 19  1  0
 10 20  1  0
 11 21  1  0
 11 22  1  0
 12 23  1  0
 12 24  1  0
A    1
 C1 
A    2
 C2 
A    3
 C3 
A    4
 F1 
A    5
 C4 
A    6
 C5 
A    7
 C6 
A    8
 C7 
A    9
 N1 
A   10
 C8 
A   11
 C9 
A   12
 C10
A   13
 H1 
A   14
 H2 
A   15
 H3 
A   16
 H4 
A   17
 H5 
A   18
 H6 
A   19
 H7 
A   20
 H8 
A   21
 H9 
A   22
 H10
A   23
 H11
A   24
 H12
M  END
>  <ref_pdb>  (490) 
x0051_0B

>  <ref_mols>  (490) 
x0455_0B,x0382_0B

>  <original SMILES>  (490) 
[H]c1c([H])c2c(c(C([H])([H])[H])c1F)N([H])C([H])([H])C([H])([H])C2([H])[H]

>  <index>  (490) 
773

>  <∆∆G>  (490) 
-5.411856

>  <∆G_bound>  (490) 
-5.39978

>  <∆G_unbound>  (490) 
0.012075

>  <comRMSD>  (490) 
0.429245

>  <N_constrained_atoms>  (490) 
11.0

>  <N_unconstrained_atoms>  (490) 
1.0

>  <runtime>  (490) 
19.016187

>  <LE>  (490) 
0.450988

>  <percent_hybrid>  (490) 
20.0

>  <dist>  (490) 
3.0

>  <ecfp4>  (490) 
0.311111

>  <daylight>  (490) 
0.38961

>  <topodist>  (490) 
2.0

>  <mces>  (490) 
12.0

>  <tdn>  (490) 
1.0

>  <tup>  (490) 
1.0

>  <rdn>  (490) 
0.0

>  <rup>  (490) 
0.0

>  <ldn>  (490) 
0.0

>  <lup>  (490) 
0.0

>  <mut>  (490) 
1.0

>  <maj>  (490) 
1.0

>  <min>  (490) 
0.0

>  <hyb>  (490) 
0.0

>  <sub>  (490) 
2.0

>  <query_index>  (490) 
293.0

>  <max_hit_Tanimoto>  (490) 
0.31811

>  <largest_ring>  (490) 
6

>  <N_interactions_kept>  (490) 
0.0

>  <N_interactions_lost>  (490) 
1.5

>  <interaction_uniqueness_metric>  (490) 
0.041883

>  <ad_hoc_penalty>  (490) 
-17.555948

>  <N_rotatable_bonds>  (490) 
1

>  <N_HA>  (490) 
12

>  <cluster>  (490) 
5510

>  <N_interactions>  (490) 
4

>  <Enamine>  (490) 
1

>  <Mcule>  (490) 
0

>  <N_PAINS>  (490) 
0

>  <UFF_Gibbs>  (490) 
42.424613

>  <strain_per_HA>  (490) 
3.535384

>  <saltbridge:HIS:51>  (490) 
0

>  <pistack:HIS:51>  (490) 
0

>  <hydroph_interaction:HIS:51>  (490) 
0

>  <hbond:ALA:132>  (490) 
0

>  <hbond:SER:135>  (490) 
0

>  <hydroph_interaction:TYR:150>  (490) 
1

>  <pistack:TYR:161>  (490) 
1

>  <hydroph_interaction:TYR:161>  (490) 
2

>  <hydroph_interaction:ASP:83>  (490) 
0

>  <hbond:TYR:130>  (490) 
0

>  <hydroph_interaction:ALA:132>  (490) 
0

>  <hbond:HIS:51>  (490) 
0

>  <hbond:ASP:129>  (490) 
0

>  <hbond:TYR:150>  (490) 
0

>  <hbond:GLY:151>  (490) 
0

>  <hbond:TYR:161>  (490) 
0

>  <hydroph_interaction:TYR:130>  (490) 
0

>  <hydroph_interaction:PRO:131>  (490) 
0

>  <hydroph_interaction:ASP:129>  (490) 
0

>  <saltbridge:ASP:75>  (490) 
0

>  <saltbridge:ASP:83>  (490) 
0

>  <hydroph_interaction:ASN:152>  (490) 
0

>  <halogenbond:TYR:150>  (490) 
0

>  <hbond:ASP:83>  (490) 
0

>  <hydroph_interaction:VAL:155>  (490) 
0

>  <pication:TYR:161>  (490) 
0

>  <hbond:PRO:131>  (490) 
0

>  <hbond:LEU:128>  (490) 
0

>  <saltbridge:ASP:129>  (490) 
0

>  <hbond:THR:134>  (490) 
0

>  <pication:HIS:51>  (490) 
0

>  <hbond:SER:81>  (490) 
0

>  <hbond:GLY:159>  (490) 
0

>  <hydroph_interaction:PRO:101>  (490) 
0

>  <hydroph_interaction:THR:134>  (490) 
0

>  <hbond:GLY:82>  (490) 
0

>  <hydroph_interaction:GLU:104>  (490) 
0

>  <hydroph_interaction:VAL:36>  (490) 
0

>  <hydroph_interaction:MET:49>  (490) 
0

>  <halogenbond:GLU:104>  (490) 
0

>  <hydroph_interaction:LYS:107>  (490) 
0

$$$$
MCULE-2247019462
     RDKit          3D

 46 49  0  0  0  0  0  0  0  0999 V2000
   -6.0795    6.6843  -18.9974 C   0  0  0  0  0  0  0  0  0  0  0  0
   -4.8457    6.2807  -18.4560 C   0  0  0  0  0  0  0  0  0  0  0  0
   -4.7226    5.9989  -17.0879 C   0  0  0  0  0  0  0  0  0  0  0  0
   -3.4044    5.5435  -16.5338 C   0  0  0  0  0  0  0  0  0  0  0  0
   -5.8494    6.0886  -16.2583 C   0  0  0  0  0  0  0  0  0  0  0  0
   -7.0901    6.4734  -16.7855 C   0  0  0  0  0  0  0  0  0  0  0  0
   -8.2797    6.6217  -15.8832 C   0  0  0  0  0  0  0  0  0  0  0  0
   -7.1959    6.7872  -18.1485 C   0  0  0  0  0  0  0  0  0  0  0  0
   -6.2028    6.9961  -20.4448 C   0  0  0  0  0  0  0  0  0  0  0  0
   -5.1880    7.7015  -21.1145 C   0  0  0  0  0  0  0  0  0  0  0  0
   -5.3071    7.9943  -22.4754 C   0  0  0  0  0  0  0  0  0  0  0  0
   -6.4461    7.6025  -23.1918 C   0  0  0  0  0  0  0  0  0  0  0  0
   -6.5339    7.9070  -24.5939 N   0  0  0  0  0  0  0  0  0  0  0  0
   -7.7485    8.3354  -25.2316 C   0  0  0  0  0  0  0  0  0  0  0  0
   -7.9036    8.2820  -26.6999 C   0  0  0  0  0  0  0  0  0  0  0  0
   -7.0368    7.5297  -27.5130 C   0  0  0  0  0  0  0  0  0  0  0  0
   -7.2280    7.5033  -28.8585 N   0  0  0  0  0  0  0  0  0  0  0  0
   -8.2464    8.1890  -29.4391 C   0  0  0  0  0  0  0  0  0  0  0  0
   -8.4310    8.1564  -30.8255 C   0  0  0  0  0  0  0  0  0  0  0  0
   -9.4896    8.8664  -31.4034 C   0  0  0  0  0  0  0  0  0  0  0  0
  -10.3634    9.6067  -30.5983 C   0  0  0  0  0  0  0  0  0  0  0  0
  -10.1830    9.6418  -29.2107 C   0  0  0  0  0  0  0  0  0  0  0  0
   -9.1251    8.9348  -28.6290 C   0  0  0  0  0  0  0  0  0  0  0  0
   -8.9310    8.9588  -27.2847 N   0  0  0  0  0  0  0  0  0  0  0  0
   -8.6887    8.8063  -24.5349 O   0  0  0  0  0  0  0  0  0  0  0  0
   -7.4530    6.8725  -22.5330 C   0  0  0  0  0  0  0  0  0  0  0  0
   -8.5261    6.3975  -23.2138 F   0  0  0  0  0  0  0  0  0  0  0  0
   -7.3334    6.5816  -21.1705 C   0  0  0  0  0  0  0  0  0  0  0  0
   -3.9802    6.1722  -19.0989 H   0  0  0  0  0  0  0  0  0  0  0  0
   -3.2578    4.4679  -16.7666 H   0  0  0  0  0  0  0  0  0  0  0  0
   -3.3637    5.6822  -15.4321 H   0  0  0  0  0  0  0  0  0  0  0  0
   -2.5752    6.1286  -16.9851 H   0  0  0  0  0  0  0  0  0  0  0  0
   -5.7618    5.8595  -15.2025 H   0  0  0  0  0  0  0  0  0  0  0  0
   -8.3172    7.6588  -15.4898 H   0  0  0  0  0  0  0  0  0  0  0  0
   -8.2171    5.9128  -15.0302 H   0  0  0  0  0  0  0  0  0  0  0  0
   -9.2195    6.4095  -16.4361 H   0  0  0  0  0  0  0  0  0  0  0  0
   -8.1471    7.1241  -18.5431 H   0  0  0  0  0  0  0  0  0  0  0  0
   -4.3093    8.0431  -20.5820 H   0  0  0  0  0  0  0  0  0  0  0  0
   -4.5159    8.5434  -22.9708 H   0  0  0  0  0  0  0  0  0  0  0  0
   -5.6412    7.9852  -25.1309 H   0  0  0  0  0  0  0  0  0  0  0  0
   -6.2270    6.9524  -27.0895 H   0  0  0  0  0  0  0  0  0  0  0  0
   -7.7603    7.5838  -31.4540 H   0  0  0  0  0  0  0  0  0  0  0  0
   -9.6333    8.8428  -32.4759 H   0  0  0  0  0  0  0  0  0  0  0  0
  -11.1815   10.1529  -31.0500 H   0  0  0  0  0  0  0  0  0  0  0  0
  -10.8619   10.2177  -28.5935 H   0  0  0  0  0  0  0  0  0  0  0  0
   -8.1133    6.0051  -20.6891 H   0  0  0  0  0  0  0  0  0  0  0  0
  1  2  2  0
  2  3  1  0
  3  4  1  0
  3  5  2  0
  5  6  1  0
  6  7  1  0
  6  8  2  0
  1  9  1  0
  9 10  2  0
 10 11  1  0
 11 12  2  0
 12 13  1  0
 13 14  1  0
 14 15  1  0
 15 16  2  0
 16 17  1  0
 17 18  2  0
 18 19  1  0
 19 20  2  0
 20 21  1  0
 21 22  2  0
 22 23  1  0
 23 24  2  0
 14 25  2  0
 12 26  1  0
 26 27  1  0
 26 28  2  0
  8  1  1  0
 28  9  1  0
 15 24  1  0
 18 23  1  0
  2 29  1  0
  4 30  1  0
  4 31  1  0
  4 32  1  0
  5 33  1  0
  7 34  1  0
  7 35  1  0
  7 36  1  0
  8 37  1  0
 10 38  1  0
 11 39  1  0
 13 40  1  0
 16 41  1  0
 19 42  1  0
 20 43  1  0
 21 44  1  0
 22 45  1  0
 28 46  1  0
A    1
 C1 
A    2
 C2 
A    3
 C3 
A    4
 C4 
A    5
 C5 
A    6
 C6 
A    7
 C7 
A    8
 C8 
A    9
 C9 
A   10
 C10
A   11
 C11
A   12
 C12
A   13
 N1 
A   14
 C13
A   15
 C14
A   16
 C15
A   17
 N2 
A   18
 C16
A   19
 C17
A   20
 C18
A   21
 C19
A   22
 C20
A   23
 C21
A   24
 N3 
A   25
 O1 
A   26
 C22
A   27
 F1 
A   28
 C23
A   29
 H1 
A   30
 H2 
A   31
 H3 
A   32
 H4 
A   33
 H5 
A   34
 H6 
A   35
 H7 
A   36
 H8 
A   37
 H9 
A   38
 H10
A   39
 H11
A   40
 H12
A   41
 H13
A   42
 H14
A   43
 H15
A   44
 H16
A   45
 H17
A   46
 H18
M  END
>  <ref_pdb>  (491) 
x0051_0B

>  <ref_mols>  (491) 
x0846_1B,x0425_0B

>  <original SMILES>  (491) 
[H]c1nc2c([H])c([H])c([H])c([H])c2nc1C(=O)N([H])c1c([H])c([H])c(-c2c([H])c(C([H])([H])[H])c([H])c(C([H])([H])[H])c2[H])c([H])c1F

>  <index>  (491) 
874

>  <∆∆G>  (491) 
-7.755229

>  <∆G_bound>  (491) 
-7.31409

>  <∆G_unbound>  (491) 
0.441139

>  <comRMSD>  (491) 
0.686314

>  <N_constrained_atoms>  (491) 
29.0

>  <N_unconstrained_atoms>  (491) 
2.0

>  <runtime>  (491) 
50.071052

>  <LE>  (491) 
0.250169

>  <percent_hybrid>  (491) 
38.0

>  <dist>  (491) 
11.0

>  <ecfp4>  (491) 
0.123711

>  <daylight>  (491) 
0.208494

>  <topodist>  (491) 
6.0

>  <mces>  (491) 
29.0

>  <tdn>  (491) 
2.0

>  <tup>  (491) 
1.0

>  <rdn>  (491) 
0.0

>  <rup>  (491) 
0.0

>  <ldn>  (491) 
2.0

>  <lup>  (491) 
1.0

>  <mut>  (491) 
4.0

>  <maj>  (491) 
4.0

>  <min>  (491) 
0.0

>  <hyb>  (491) 
1.0

>  <sub>  (491) 
1.0

>  <query_index>  (491) 
25.0

>  <max_hit_Tanimoto>  (491) 
0.27033

>  <largest_ring>  (491) 
6

>  <N_interactions_kept>  (491) 
0.0

>  <N_interactions_lost>  (491) 
2.5

>  <interaction_uniqueness_metric>  (491) 
0.153471

>  <ad_hoc_penalty>  (491) 
-17.552416

>  <N_rotatable_bonds>  (491) 
5

>  <N_HA>  (491) 
28

>  <cluster>  (491) 
517

>  <N_interactions>  (491) 
6

>  <Enamine>  (491) 
0

>  <Mcule>  (491) 
1

>  <N_PAINS>  (491) 
0

>  <UFF_Gibbs>  (491) 
119.443605

>  <strain_per_HA>  (491) 
3.85302

>  <saltbridge:HIS:51>  (491) 
0

>  <pistack:HIS:51>  (491) 
0

>  <hydroph_interaction:HIS:51>  (491) 
0

>  <hbond:ALA:132>  (491) 
0

>  <hbond:SER:135>  (491) 
0

>  <hydroph_interaction:TYR:150>  (491) 
0

>  <pistack:TYR:161>  (491) 
1

>  <hydroph_interaction:TYR:161>  (491) 
2

>  <hydroph_interaction:ASP:83>  (491) 
0

>  <hbond:TYR:130>  (491) 
0

>  <hydroph_interaction:ALA:132>  (491) 
1

>  <hbond:HIS:51>  (491) 
0

>  <hbond:ASP:129>  (491) 
0

>  <hbond:TYR:150>  (491) 
0

>  <hbond:GLY:151>  (491) 
0

>  <hbond:TYR:161>  (491) 
0

>  <hydroph_interaction:TYR:130>  (491) 
1

>  <hydroph_interaction:PRO:131>  (491) 
1

>  <hydroph_interaction:ASP:129>  (491) 
0

>  <saltbridge:ASP:75>  (491) 
0

>  <saltbridge:ASP:83>  (491) 
0

>  <hydroph_interaction:ASN:152>  (491) 
0

>  <halogenbond:TYR:150>  (491) 
0

>  <hbond:ASP:83>  (491) 
0

>  <hydroph_interaction:VAL:155>  (491) 
0

>  <pication:TYR:161>  (491) 
0

>  <hbond:PRO:131>  (491) 
0

>  <hbond:LEU:128>  (491) 
0

>  <saltbridge:ASP:129>  (491) 
0

>  <hbond:THR:134>  (491) 
0

>  <pication:HIS:51>  (491) 
0

>  <hbond:SER:81>  (491) 
0

>  <hbond:GLY:159>  (491) 
0

>  <hydroph_interaction:PRO:101>  (491) 
0

>  <hydroph_interaction:THR:134>  (491) 
0

>  <hbond:GLY:82>  (491) 
0

>  <hydroph_interaction:GLU:104>  (491) 
0

>  <hydroph_interaction:VAL:36>  (491) 
0

>  <hydroph_interaction:MET:49>  (491) 
0

>  <halogenbond:GLU:104>  (491) 
0

>  <hydroph_interaction:LYS:107>  (491) 
0

$$$$
BAAWFQCDPPHECU-UHFFFAOYSA-N
     RDKit          3D

 40 43  0  0  0  0  0  0  0  0999 V2000
   -6.8360    9.4486  -26.6888 C   0  0  0  0  0  0  0  0  0  0  0  0
   -6.1096   10.4761  -26.0082 N   0  0  0  0  0  0  0  0  0  0  0  0
   -6.4774   10.9247  -24.6691 C   0  0  0  0  0  0  0  0  0  0  0  0
   -6.0800    9.8914  -23.6516 C   0  0  0  0  0  0  0  0  0  0  0  0
   -7.0391    9.0375  -23.0857 C   0  0  0  0  0  0  0  0  0  0  0  0
   -6.6555    8.0600  -22.1632 C   0  0  0  0  0  0  0  0  0  0  0  0
   -5.3073    7.9269  -21.7898 C   0  0  0  0  0  0  0  0  0  0  0  0
   -4.8797    6.9468  -20.8823 O   0  0  0  0  0  0  0  0  0  0  0  0
   -5.6231    6.4533  -19.7995 C   0  0  0  0  0  0  0  0  0  0  0  0
   -5.3654    5.1527  -19.3469 C   0  0  0  0  0  0  0  0  0  0  0  0
   -6.0668    4.6310  -18.2551 C   0  0  0  0  0  0  0  0  0  0  0  0
   -7.0278    5.4103  -17.6033 C   0  0  0  0  0  0  0  0  0  0  0  0
   -7.7011    4.9063  -16.5391 F   0  0  0  0  0  0  0  0  0  0  0  0
   -7.2831    6.7140  -18.0394 C   0  0  0  0  0  0  0  0  0  0  0  0
   -6.5810    7.2395  -19.1285 C   0  0  0  0  0  0  0  0  0  0  0  0
   -4.3496    8.7606  -22.3771 C   0  0  0  0  0  0  0  0  0  0  0  0
   -4.7316    9.7377  -23.3001 C   0  0  0  0  0  0  0  0  0  0  0  0
   -6.4525    8.9559  -27.8961 N   0  0  0  0  0  0  0  0  0  0  0  0
   -7.4070    8.0387  -28.1288 C   0  0  0  0  0  0  0  0  0  0  0  0
   -8.2983    8.0127  -27.0981 C   0  0  0  0  0  0  0  0  0  0  0  0
   -9.3942    7.1542  -27.0825 C   0  0  0  0  0  0  0  0  0  0  0  0
   -9.5537    6.2868  -28.1799 C   0  0  0  0  0  0  0  0  0  0  0  0
  -10.6009    5.4275  -28.2110 F   0  0  0  0  0  0  0  0  0  0  0  0
   -8.6251    6.3055  -29.2480 C   0  0  0  0  0  0  0  0  0  0  0  0
   -7.5330    7.1946  -29.2296 C   0  0  0  0  0  0  0  0  0  0  0  0
   -7.9354    8.8924  -26.2063 O   0  0  0  0  0  0  0  0  0  0  0  0
   -5.2949   10.9222  -26.4854 H   0  0  0  0  0  0  0  0  0  0  0  0
   -7.5682   11.1377  -24.6272 H   0  0  0  0  0  0  0  0  0  0  0  0
   -5.9514   11.8775  -24.4439 H   0  0  0  0  0  0  0  0  0  0  0  0
   -8.0820    9.1262  -23.3598 H   0  0  0  0  0  0  0  0  0  0  0  0
   -7.4060    7.3945  -21.7603 H   0  0  0  0  0  0  0  0  0  0  0  0
   -4.6174    4.5461  -19.8422 H   0  0  0  0  0  0  0  0  0  0  0  0
   -5.8597    3.6232  -17.9120 H   0  0  0  0  0  0  0  0  0  0  0  0
   -8.0135    7.3249  -17.5245 H   0  0  0  0  0  0  0  0  0  0  0  0
   -6.7679    8.2623  -19.4288 H   0  0  0  0  0  0  0  0  0  0  0  0
   -3.3062    8.6550  -22.1113 H   0  0  0  0  0  0  0  0  0  0  0  0
   -3.9755   10.3761  -23.7410 H   0  0  0  0  0  0  0  0  0  0  0  0
  -10.0897    7.1472  -26.2534 H   0  0  0  0  0  0  0  0  0  0  0  0
   -8.7541    5.6335  -30.0865 H   0  0  0  0  0  0  0  0  0  0  0  0
   -6.8160    7.2180  -30.0407 H   0  0  0  0  0  0  0  0  0  0  0  0
  1  2  1  0
  2  3  1  0
  3  4  1  0
  4  5  2  0
  5  6  1  0
  6  7  2  0
  7  8  1  0
  8  9  1  0
  9 10  2  0
 10 11  1  0
 11 12  2  0
 12 13  1  0
 12 14  1  0
 14 15  2  0
  7 16  1  0
 16 17  2  0
  1 18  2  0
 18 19  1  0
 19 20  2  0
 20 21  1  0
 21 22  2  0
 22 23  1  0
 22 24  1  0
 24 25  2  0
 20 26  1  0
 26  1  1  0
 17  4  1  0
 15  9  1  0
 19 25  1  0
  2 27  1  0
  3 28  1  0
  3 29  1  0
  5 30  1  0
  6 31  1  0
 10 32  1  0
 11 33  1  0
 14 34  1  0
 15 35  1  0
 16 36  1  0
 17 37  1  0
 21 38  1  0
 24 39  1  0
 25 40  1  0
A    1
 C1 
A    2
 N1 
A    3
 C2 
A    4
 C3 
A    5
 C4 
A    6
 C5 
A    7
 C6 
A    8
 O1 
A    9
 C7 
A   10
 C8 
A   11
 C9 
A   12
 C10
A   13
 F1 
A   14
 C11
A   15
 C12
A   16
 C13
A   17
 C14
A   18
 N2 
A   19
 C15
A   20
 C16
A   21
 C17
A   22
 C18
A   23
 F2 
A   24
 C19
A   25
 C20
A   26
 O2 
A   27
 H1 
A   28
 H2 
A   29
 H3 
A   30
 H4 
A   31
 H5 
A   32
 H6 
A   33
 H7 
A   34
 H8 
A   35
 H9 
A   36
 H10
A   37
 H11
A   38
 H12
A   39
 H13
A   40
 H14
M  END
>  <ref_pdb>  (492) 
x0051_0B

>  <ref_mols>  (492) 
x0846_1B,x0680_0B

>  <original SMILES>  (492) 
[H]c1c([H])c(Oc2c([H])c([H])c(C([H])([H])N([H])c3nc4c([H])c([H])c(F)c([H])c4o3)c([H])c2[H])c([H])c([H])c1F

>  <index>  (492) 
2134

>  <∆∆G>  (492) 
-5.197153

>  <∆G_bound>  (492) 
-5.210279

>  <∆G_unbound>  (492) 
-0.013126

>  <comRMSD>  (492) 
0.505286

>  <N_constrained_atoms>  (492) 
26.0

>  <N_unconstrained_atoms>  (492) 
2.0

>  <runtime>  (492) 
46.619671

>  <LE>  (492) 
0.185613

>  <percent_hybrid>  (492) 
31.0

>  <dist>  (492) 
8.0

>  <ecfp4>  (492) 
0.21519

>  <daylight>  (492) 
0.392344

>  <topodist>  (492) 
6.0

>  <mces>  (492) 
28.0

>  <tdn>  (492) 
5.0

>  <tup>  (492) 
1.0

>  <rdn>  (492) 
0.0

>  <rup>  (492) 
0.0

>  <ldn>  (492) 
0.0

>  <lup>  (492) 
0.0

>  <mut>  (492) 
2.0

>  <maj>  (492) 
2.0

>  <min>  (492) 
0.0

>  <hyb>  (492) 
0.0

>  <sub>  (492) 
3.0

>  <query_index>  (492) 
100.0

>  <max_hit_Tanimoto>  (492) 
0.310976

>  <largest_ring>  (492) 
6

>  <N_interactions_kept>  (492) 
1.5

>  <N_interactions_lost>  (492) 
2.5

>  <interaction_uniqueness_metric>  (492) 
0.834714

>  <ad_hoc_penalty>  (492) 
-17.522493

>  <N_rotatable_bonds>  (492) 
5

>  <N_HA>  (492) 
26

>  <cluster>  (492) 
4260

>  <N_interactions>  (492) 
5

>  <Enamine>  (492) 
0

>  <Mcule>  (492) 
1

>  <N_PAINS>  (492) 
0

>  <UFF_Gibbs>  (492) 
119.678098

>  <strain_per_HA>  (492) 
4.274218

>  <saltbridge:HIS:51>  (492) 
0

>  <pistack:HIS:51>  (492) 
0

>  <hydroph_interaction:HIS:51>  (492) 
0

>  <hbond:ALA:132>  (492) 
0

>  <hbond:SER:135>  (492) 
0

>  <hydroph_interaction:TYR:150>  (492) 
0

>  <pistack:TYR:161>  (492) 
1

>  <hydroph_interaction:TYR:161>  (492) 
1

>  <hydroph_interaction:ASP:83>  (492) 
0

>  <hbond:TYR:130>  (492) 
0

>  <hydroph_interaction:ALA:132>  (492) 
0

>  <hbond:HIS:51>  (492) 
0

>  <hbond:ASP:129>  (492) 
0

>  <hbond:TYR:150>  (492) 
0

>  <hbond:GLY:151>  (492) 
0

>  <hbond:TYR:161>  (492) 
0

>  <hydroph_interaction:TYR:130>  (492) 
1

>  <hydroph_interaction:PRO:131>  (492) 
1

>  <hydroph_interaction:ASP:129>  (492) 
0

>  <saltbridge:ASP:75>  (492) 
0

>  <saltbridge:ASP:83>  (492) 
0

>  <hydroph_interaction:ASN:152>  (492) 
0

>  <halogenbond:TYR:150>  (492) 
0

>  <hbond:ASP:83>  (492) 
0

>  <hydroph_interaction:VAL:155>  (492) 
0

>  <pication:TYR:161>  (492) 
0

>  <hbond:PRO:131>  (492) 
0

>  <hbond:LEU:128>  (492) 
0

>  <saltbridge:ASP:129>  (492) 
0

>  <hbond:THR:134>  (492) 
0

>  <pication:HIS:51>  (492) 
0

>  <hbond:SER:81>  (492) 
0

>  <hbond:GLY:159>  (492) 
0

>  <hydroph_interaction:PRO:101>  (492) 
0

>  <hydroph_interaction:THR:134>  (492) 
0

>  <hbond:GLY:82>  (492) 
0

>  <hydroph_interaction:GLU:104>  (492) 
0

>  <hydroph_interaction:VAL:36>  (492) 
0

>  <hydroph_interaction:MET:49>  (492) 
0

>  <halogenbond:GLU:104>  (492) 
1

>  <hydroph_interaction:LYS:107>  (492) 
0

$$$$
CSSS00000579680
     RDKit          3D

 32 33  0  0  0  0  0  0  0  0999 V2000
  -11.1400    4.9564  -18.6100 C   0  0  0  0  0  0  0  0  0  0  0  0
   -9.8359    5.1270  -17.8878 C   0  0  0  0  0  0  0  0  0  0  0  0
   -9.7992    5.1240  -16.4883 C   0  0  0  0  0  0  0  0  0  0  0  0
   -8.5843    5.2622  -15.8156 C   0  0  0  0  0  0  0  0  0  0  0  0
   -7.3811    5.3821  -16.5302 C   0  0  0  0  0  0  0  0  0  0  0  0
   -6.0854    5.5252  -15.7794 C   0  0  0  0  0  0  0  0  0  0  0  0
   -7.4050    5.3542  -17.9436 C   0  0  0  0  0  0  0  0  0  0  0  0
   -6.1884    5.5068  -18.6980 N   0  0  0  0  0  0  0  0  0  0  0  0
   -5.8933    4.7563  -19.8878 C   0  0  0  0  0  0  0  0  0  0  0  0
   -6.6377    3.8025  -20.2430 O   0  0  0  0  0  0  0  0  0  0  0  0
   -4.7349    5.1109  -20.7269 C   0  0  0  0  0  0  0  0  0  0  0  0
   -4.9537    5.4272  -22.0779 C   0  0  0  0  0  0  0  0  0  0  0  0
   -3.8857    5.7893  -22.9024 C   0  0  0  0  0  0  0  0  0  0  0  0
   -2.5887    5.8292  -22.3891 C   0  0  0  0  0  0  0  0  0  0  0  0
   -2.3552    5.4964  -21.0530 C   0  0  0  0  0  0  0  0  0  0  0  0
   -3.4180    5.1318  -20.2162 C   0  0  0  0  0  0  0  0  0  0  0  0
   -2.9384    4.5223  -18.2414 I   0  0  0  0  0  0  0  0  0  0  0  0
   -8.6387    5.2332  -18.6091 C   0  0  0  0  0  0  0  0  0  0  0  0
  -11.9801    5.3618  -18.0067 H   0  0  0  0  0  0  0  0  0  0  0  0
  -11.1234    5.4969  -19.5803 H   0  0  0  0  0  0  0  0  0  0  0  0
  -11.3182    3.8774  -18.7994 H   0  0  0  0  0  0  0  0  0  0  0  0
  -10.7132    5.0224  -15.9160 H   0  0  0  0  0  0  0  0  0  0  0  0
   -8.5843    5.2710  -14.7325 H   0  0  0  0  0  0  0  0  0  0  0  0
   -5.6561    6.5328  -15.9602 H   0  0  0  0  0  0  0  0  0  0  0  0
   -5.3669    4.7505  -16.1183 H   0  0  0  0  0  0  0  0  0  0  0  0
   -6.2297    5.4000  -14.6852 H   0  0  0  0  0  0  0  0  0  0  0  0
   -5.4885    6.2092  -18.3704 H   0  0  0  0  0  0  0  0  0  0  0  0
   -5.9557    5.4080  -22.4898 H   0  0  0  0  0  0  0  0  0  0  0  0
   -4.0644    6.0405  -23.9400 H   0  0  0  0  0  0  0  0  0  0  0  0
   -1.7619    6.1080  -23.0296 H   0  0  0  0  0  0  0  0  0  0  0  0
   -1.3427    5.5089  -20.6706 H   0  0  0  0  0  0  0  0  0  0  0  0
   -8.6724    5.2485  -19.6913 H   0  0  0  0  0  0  0  0  0  0  0  0
  1  2  1  0
  2  3  2  0
  3  4  1  0
  4  5  2  0
  5  6  1  0
  5  7  1  0
  7  8  1  0
  8  9  1  0
  9 10  2  0
  9 11  1  0
 11 12  2  0
 12 13  1  0
 13 14  2  0
 14 15  1  0
 15 16  2  0
 16 17  1  0
  7 18  2  0
 18  2  1  0
 16 11  1  0
  1 19  1  0
  1 20  1  0
  1 21  1  0
  3 22  1  0
  4 23  1  0
  6 24  1  0
  6 25  1  0
  6 26  1  0
  8 27  1  0
 12 28  1  0
 13 29  1  0
 14 30  1  0
 15 31  1  0
 18 32  1  0
A    1
 C1 
A    2
 C2 
A    3
 C3 
A    4
 C4 
A    5
 C5 
A    6
 C6 
A    7
 C7 
A    8
 N1 
A    9
 C8 
A   10
 O1 
A   11
 C9 
A   12
 C10
A   13
 C11
A   14
 C12
A   15
 C13
A   16
 C14
A   17
 I1 
A   18
 C15
A   19
 H1 
A   20
 H2 
A   21
 H3 
A   22
 H4 
A   23
 H5 
A   24
 H6 
A   25
 H7 
A   26
 H8 
A   27
 H9 
A   28
 H10
A   29
 H11
A   30
 H12
A   31
 H13
A   32
 H14
M  END
>  <ref_pdb>  (493) 
x0051_0B

>  <ref_mols>  (493) 
x0852_0B,x0605_0B

>  <original SMILES>  (493) 
[H]c1c([H])c([H])c(C(=O)N([H])c2c([H])c(C([H])([H])[H])c([H])c([H])c2C([H])([H])[H])c(I)c1[H]

>  <index>  (493) 
670

>  <∆∆G>  (493) 
-7.67366

>  <∆G_bound>  (493) 
-7.698158

>  <∆G_unbound>  (493) 
-0.024497

>  <comRMSD>  (493) 
0.770779

>  <N_constrained_atoms>  (493) 
21.0

>  <N_unconstrained_atoms>  (493) 
0.0

>  <runtime>  (493) 
32.947075

>  <LE>  (493) 
0.365412

>  <percent_hybrid>  (493) 
20.0

>  <dist>  (493) 
3.0

>  <ecfp4>  (493) 
0.283333

>  <daylight>  (493) 
0.485294

>  <topodist>  (493) 
1.0

>  <mces>  (493) 
19.0

>  <tdn>  (493) 
1.0

>  <tup>  (493) 
0.0

>  <rdn>  (493) 
0.0

>  <rup>  (493) 
0.0

>  <ldn>  (493) 
0.0

>  <lup>  (493) 
0.0

>  <mut>  (493) 
2.0

>  <maj>  (493) 
1.0

>  <min>  (493) 
1.0

>  <hyb>  (493) 
0.0

>  <sub>  (493) 
1.0

>  <query_index>  (493) 
176.0

>  <max_hit_Tanimoto>  (493) 
0.430464

>  <largest_ring>  (493) 
6

>  <N_interactions_kept>  (493) 
3.0

>  <N_interactions_lost>  (493) 
3.0

>  <interaction_uniqueness_metric>  (493) 
0.095402

>  <ad_hoc_penalty>  (493) 
-17.500706

>  <N_rotatable_bonds>  (493) 
4

>  <N_HA>  (493) 
18

>  <cluster>  (493) 
5604

>  <N_interactions>  (493) 
7

>  <Enamine>  (493) 
1

>  <Mcule>  (493) 
0

>  <N_PAINS>  (493) 
0

>  <UFF_Gibbs>  (493) 
106.234449

>  <strain_per_HA>  (493) 
5.058783

>  <saltbridge:HIS:51>  (493) 
0

>  <pistack:HIS:51>  (493) 
0

>  <hydroph_interaction:HIS:51>  (493) 
0

>  <hbond:ALA:132>  (493) 
0

>  <hbond:SER:135>  (493) 
0

>  <hydroph_interaction:TYR:150>  (493) 
1

>  <pistack:TYR:161>  (493) 
0

>  <hydroph_interaction:TYR:161>  (493) 
4

>  <hydroph_interaction:ASP:83>  (493) 
0

>  <hbond:TYR:130>  (493) 
1

>  <hydroph_interaction:ALA:132>  (493) 
0

>  <hbond:HIS:51>  (493) 
0

>  <hbond:ASP:129>  (493) 
0

>  <hbond:TYR:150>  (493) 
0

>  <hbond:GLY:151>  (493) 
0

>  <hbond:TYR:161>  (493) 
0

>  <hydroph_interaction:TYR:130>  (493) 
0

>  <hydroph_interaction:PRO:131>  (493) 
0

>  <hydroph_interaction:ASP:129>  (493) 
1

>  <saltbridge:ASP:75>  (493) 
0

>  <saltbridge:ASP:83>  (493) 
0

>  <hydroph_interaction:ASN:152>  (493) 
0

>  <halogenbond:TYR:150>  (493) 
0

>  <hbond:ASP:83>  (493) 
0

>  <hydroph_interaction:VAL:155>  (493) 
0

>  <pication:TYR:161>  (493) 
0

>  <hbond:PRO:131>  (493) 
0

>  <hbond:LEU:128>  (493) 
0

>  <saltbridge:ASP:129>  (493) 
0

>  <hbond:THR:134>  (493) 
0

>  <pication:HIS:51>  (493) 
0

>  <hbond:SER:81>  (493) 
0

>  <hbond:GLY:159>  (493) 
0

>  <hydroph_interaction:PRO:101>  (493) 
0

>  <hydroph_interaction:THR:134>  (493) 
0

>  <hbond:GLY:82>  (493) 
0

>  <hydroph_interaction:GLU:104>  (493) 
0

>  <hydroph_interaction:VAL:36>  (493) 
0

>  <hydroph_interaction:MET:49>  (493) 
0

>  <halogenbond:GLU:104>  (493) 
0

>  <hydroph_interaction:LYS:107>  (493) 
0

$$$$
ZCWBCGVNRYPBRY-UHFFFAOYSA-N
     RDKit          3D

 47 50  0  0  0  0  0  0  0  0999 V2000
   -8.7403    5.7879  -14.2699 C   0  0  0  0  0  0  0  0  0  0  0  0
   -9.0708    4.8944  -15.3468 N   0  0  0  0  0  0  0  0  0  0  0  0
   -8.5877    5.0519  -16.6922 C   0  0  0  0  0  0  0  0  0  0  0  0
   -9.3712    4.5734  -17.7695 C   0  0  0  0  0  0  0  0  0  0  0  0
   -8.9204    4.6892  -19.0955 C   0  0  0  0  0  0  0  0  0  0  0  0
   -7.6779    5.2758  -19.3285 C   0  0  0  0  0  0  0  0  0  0  0  0
   -6.9870    5.4931  -20.6457 C   0  0  0  0  0  0  0  0  0  0  0  0
   -5.7199    6.1193  -20.2571 N   0  0  0  0  0  0  0  0  0  0  0  0
   -4.6663    6.5378  -21.1720 C   0  0  0  0  0  0  0  0  0  0  0  0
   -5.6859    6.2502  -18.8405 C   0  0  0  0  0  0  0  0  0  0  0  0
   -4.7278    6.7495  -18.1929 O   0  0  0  0  0  0  0  0  0  0  0  0
   -6.9056    5.7259  -18.2802 C   0  0  0  0  0  0  0  0  0  0  0  0
   -7.3224    5.6245  -16.9548 C   0  0  0  0  0  0  0  0  0  0  0  0
   -8.3641    6.9643  -14.5276 O   0  0  0  0  0  0  0  0  0  0  0  0
   -8.8849    5.3614  -12.8567 C   0  0  0  0  0  0  0  0  0  0  0  0
   -8.9617    6.3214  -11.8321 C   0  0  0  0  0  0  0  0  0  0  0  0
   -9.0916    5.9279  -10.4974 C   0  0  0  0  0  0  0  0  0  0  0  0
   -9.1383    4.5675  -10.1575 C   0  0  0  0  0  0  0  0  0  0  0  0
   -9.2769    4.1687   -8.7800 N   0  0  0  0  0  0  0  0  0  0  0  0
  -10.1332    3.0345   -8.4200 C   0  0  0  0  0  0  0  0  0  0  0  0
  -10.6585    3.2182   -6.9928 C   0  0  0  0  0  0  0  0  0  0  0  0
   -9.5939    3.4592   -6.0918 O   0  0  0  0  0  0  0  0  0  0  0  0
   -8.9704    4.6906   -6.4052 C   0  0  0  0  0  0  0  0  0  0  0  0
   -8.3046    4.6280   -7.7830 C   0  0  0  0  0  0  0  0  0  0  0  0
   -9.0571    3.6062  -11.1780 C   0  0  0  0  0  0  0  0  0  0  0  0
   -8.9270    3.9983  -12.5133 C   0  0  0  0  0  0  0  0  0  0  0  0
   -9.7878    4.1553  -15.1692 H   0  0  0  0  0  0  0  0  0  0  0  0
  -10.3343    4.1172  -17.5783 H   0  0  0  0  0  0  0  0  0  0  0  0
   -9.5239    4.3269  -19.9176 H   0  0  0  0  0  0  0  0  0  0  0  0
   -6.7994    4.5237  -21.1544 H   0  0  0  0  0  0  0  0  0  0  0  0
   -7.5770    6.1796  -21.2891 H   0  0  0  0  0  0  0  0  0  0  0  0
   -3.7285    5.9934  -20.9347 H   0  0  0  0  0  0  0  0  0  0  0  0
   -4.4947    7.6296  -21.0687 H   0  0  0  0  0  0  0  0  0  0  0  0
   -4.9572    6.3157  -22.2204 H   0  0  0  0  0  0  0  0  0  0  0  0
   -6.6726    5.9582  -16.1568 H   0  0  0  0  0  0  0  0  0  0  0  0
   -8.9347    7.3791  -12.0633 H   0  0  0  0  0  0  0  0  0  0  0  0
   -9.1745    6.6868   -9.7301 H   0  0  0  0  0  0  0  0  0  0  0  0
  -10.9970    2.9637   -9.1168 H   0  0  0  0  0  0  0  0  0  0  0  0
   -9.5439    2.0939   -8.4802 H   0  0  0  0  0  0  0  0  0  0  0  0
  -11.4088    4.0410   -6.9572 H   0  0  0  0  0  0  0  0  0  0  0  0
  -11.1801    2.2882   -6.6831 H   0  0  0  0  0  0  0  0  0  0  0  0
   -8.1907    4.8963   -5.6419 H   0  0  0  0  0  0  0  0  0  0  0  0
   -9.6991    5.5324   -6.3634 H   0  0  0  0  0  0  0  0  0  0  0  0
   -7.4531    3.9143   -7.7506 H   0  0  0  0  0  0  0  0  0  0  0  0
   -7.9064    5.6325   -8.0391 H   0  0  0  0  0  0  0  0  0  0  0  0
   -9.0759    2.5506  -10.9398 H   0  0  0  0  0  0  0  0  0  0  0  0
   -8.8387    3.2303  -13.2704 H   0  0  0  0  0  0  0  0  0  0  0  0
  1  2  1  0
  2  3  1  0
  3  4  2  0
  4  5  1  0
  5  6  2  0
  6  7  1  0
  7  8  1  0
  8  9  1  0
  8 10  1  0
 10 11  2  0
 10 12  1  0
 12 13  2  0
  1 14  2  0
  1 15  1  0
 15 16  2  0
 16 17  1  0
 17 18  2  0
 18 19  1  0
 19 20  1  0
 20 21  1  0
 21 22  1  0
 22 23  1  0
 23 24  1  0
 18 25  1  0
 25 26  2  0
  3 13  1  0
  6 12  1  0
 26 15  1  0
 24 19  1  0
  2 27  1  0
  4 28  1  0
  5 29  1  0
  7 30  1  0
  7 31  1  0
  9 32  1  0
  9 33  1  0
  9 34  1  0
 13 35  1  0
 16 36  1  0
 17 37  1  0
 20 38  1  0
 20 39  1  0
 21 40  1  0
 21 41  1  0
 23 42  1  0
 23 43  1  0
 24 44  1  0
 24 45  1  0
 25 46  1  0
 26 47  1  0
A    1
 C1 
A    2
 N1 
A    3
 C2 
A    4
 C3 
A    5
 C4 
A    6
 C5 
A    7
 C6 
A    8
 N2 
A    9
 C7 
A   10
 C8 
A   11
 O1 
A   12
 C9 
A   13
 C10
A   14
 O2 
A   15
 C11
A   16
 C12
A   17
 C13
A   18
 C14
A   19
 N3 
A   20
 C15
A   21
 C16
A   22
 O3 
A   23
 C17
A   24
 C18
A   25
 C19
A   26
 C20
A   27
 H1 
A   28
 H2 
A   29
 H3 
A   30
 H4 
A   31
 H5 
A   32
 H6 
A   33
 H7 
A   34
 H8 
A   35
 H9 
A   36
 H10
A   37
 H11
A   38
 H12
A   39
 H13
A   40
 H14
A   41
 H15
A   42
 H16
A   43
 H17
A   44
 H18
A   45
 H19
A   46
 H20
A   47
 H21
M  END
>  <ref_pdb>  (494) 
x0051_0B

>  <ref_mols>  (494) 
x0904_0B,x0404_0B

>  <original SMILES>  (494) 
[H]c1c([H])c(N2C([H])([H])C([H])([H])OC([H])([H])C2([H])[H])c([H])c([H])c1C(=O)N([H])c1c([H])c([H])c2c(c1[H])C(=O)N(C([H])([H])[H])C2([H])[H]

>  <index>  (494) 
618

>  <∆∆G>  (494) 
-6.061411

>  <∆G_bound>  (494) 
-5.721181

>  <∆G_unbound>  (494) 
0.34023

>  <comRMSD>  (494) 
0.888559

>  <N_constrained_atoms>  (494) 
27.0

>  <N_unconstrained_atoms>  (494) 
2.0

>  <runtime>  (494) 
110.880728

>  <LE>  (494) 
0.209014

>  <percent_hybrid>  (494) 
45.0

>  <dist>  (494) 
7.0

>  <ecfp4>  (494) 
0.22619

>  <daylight>  (494) 
0.211009

>  <topodist>  (494) 
4.0

>  <mces>  (494) 
28.0

>  <tdn>  (494) 
1.0

>  <tup>  (494) 
0.0

>  <rdn>  (494) 
0.0

>  <rup>  (494) 
1.0

>  <ldn>  (494) 
2.0

>  <lup>  (494) 
0.0

>  <mut>  (494) 
2.0

>  <maj>  (494) 
2.0

>  <min>  (494) 
0.0

>  <hyb>  (494) 
1.0

>  <sub>  (494) 
2.0

>  <query_index>  (494) 
19.0

>  <max_hit_Tanimoto>  (494) 
0.220025

>  <largest_ring>  (494) 
6

>  <N_interactions_kept>  (494) 
2.0

>  <N_interactions_lost>  (494) 
2.5

>  <interaction_uniqueness_metric>  (494) 
0.153969

>  <ad_hoc_penalty>  (494) 
-17.462167

>  <N_rotatable_bonds>  (494) 
4

>  <N_HA>  (494) 
26

>  <cluster>  (494) 
513

>  <N_interactions>  (494) 
7

>  <Enamine>  (494) 
0

>  <Mcule>  (494) 
1

>  <N_PAINS>  (494) 
0

>  <UFF_Gibbs>  (494) 
186.222463

>  <strain_per_HA>  (494) 
6.421464

>  <saltbridge:HIS:51>  (494) 
0

>  <pistack:HIS:51>  (494) 
1

>  <hydroph_interaction:HIS:51>  (494) 
1

>  <hbond:ALA:132>  (494) 
0

>  <hbond:SER:135>  (494) 
0

>  <hydroph_interaction:TYR:150>  (494) 
1

>  <pistack:TYR:161>  (494) 
0

>  <hydroph_interaction:TYR:161>  (494) 
2

>  <hydroph_interaction:ASP:83>  (494) 
0

>  <hbond:TYR:130>  (494) 
0

>  <hydroph_interaction:ALA:132>  (494) 
1

>  <hbond:HIS:51>  (494) 
0

>  <hbond:ASP:129>  (494) 
0

>  <hbond:TYR:150>  (494) 
0

>  <hbond:GLY:151>  (494) 
1

>  <hbond:TYR:161>  (494) 
0

>  <hydroph_interaction:TYR:130>  (494) 
0

>  <hydroph_interaction:PRO:131>  (494) 
0

>  <hydroph_interaction:ASP:129>  (494) 
0

>  <saltbridge:ASP:75>  (494) 
0

>  <saltbridge:ASP:83>  (494) 
0

>  <hydroph_interaction:ASN:152>  (494) 
0

>  <halogenbond:TYR:150>  (494) 
0

>  <hbond:ASP:83>  (494) 
0

>  <hydroph_interaction:VAL:155>  (494) 
0

>  <pication:TYR:161>  (494) 
0

>  <hbond:PRO:131>  (494) 
0

>  <hbond:LEU:128>  (494) 
0

>  <saltbridge:ASP:129>  (494) 
0

>  <hbond:THR:134>  (494) 
0

>  <pication:HIS:51>  (494) 
0

>  <hbond:SER:81>  (494) 
0

>  <hbond:GLY:159>  (494) 
0

>  <hydroph_interaction:PRO:101>  (494) 
0

>  <hydroph_interaction:THR:134>  (494) 
0

>  <hbond:GLY:82>  (494) 
0

>  <hydroph_interaction:GLU:104>  (494) 
0

>  <hydroph_interaction:VAL:36>  (494) 
0

>  <hydroph_interaction:MET:49>  (494) 
0

>  <halogenbond:GLU:104>  (494) 
0

>  <hydroph_interaction:LYS:107>  (494) 
0

$$$$
AWQRASSYQUFVNT-UHFFFAOYSA-N
     RDKit          3D

 49 51  0  0  0  0  0  0  0  0999 V2000
   -9.8418    6.0293  -14.4961 C   0  0  0  0  0  0  0  0  0  0  0  0
  -10.1999    4.9845  -15.4097 N   0  0  0  0  0  0  0  0  0  0  0  0
   -9.5482    4.7785  -16.6767 C   0  0  0  0  0  0  0  0  0  0  0  0
  -10.0796    3.8449  -17.5808 C   0  0  0  0  0  0  0  0  0  0  0  0
   -9.4525    3.6094  -18.8054 C   0  0  0  0  0  0  0  0  0  0  0  0
   -8.2791    4.2890  -19.1354 C   0  0  0  0  0  0  0  0  0  0  0  0
   -7.7120    5.2010  -18.2316 C   0  0  0  0  0  0  0  0  0  0  0  0
   -6.4752    5.9246  -18.5934 C   0  0  0  0  0  0  0  0  0  0  0  0
   -5.3973    6.0656  -17.7112 O   0  0  0  0  0  0  0  0  0  0  0  0
   -5.1292    5.1881  -16.6182 C   0  0  0  0  0  0  0  0  0  0  0  0
   -6.3836    6.4351  -19.7410 O   0  0  0  0  0  0  0  0  0  0  0  0
   -8.3596    5.4577  -17.0135 C   0  0  0  0  0  0  0  0  0  0  0  0
   -9.7834    7.2164  -14.9159 O   0  0  0  0  0  0  0  0  0  0  0  0
   -9.5470    5.7328  -13.0729 C   0  0  0  0  0  0  0  0  0  0  0  0
   -9.0925    6.7523  -12.2150 C   0  0  0  0  0  0  0  0  0  0  0  0
   -8.7545    6.4705  -10.8883 C   0  0  0  0  0  0  0  0  0  0  0  0
   -8.8770    5.1645  -10.3839 C   0  0  0  0  0  0  0  0  0  0  0  0
   -8.5306    4.8671   -9.0138 N   0  0  0  0  0  0  0  0  0  0  0  0
   -7.6709    3.7244   -8.6907 C   0  0  0  0  0  0  0  0  0  0  0  0
   -8.1827    3.0280   -7.4226 C   0  0  0  0  0  0  0  0  0  0  0  0
   -8.3966    3.9686   -6.3038 N   0  0  0  0  0  0  0  0  0  0  0  0
   -7.1319    4.4109   -5.6915 C   0  0  0  0  0  0  0  0  0  0  0  0
   -9.2740    5.0978   -6.6814 C   0  0  0  0  0  0  0  0  0  0  0  0
   -8.7950    5.8310   -7.9421 C   0  0  0  0  0  0  0  0  0  0  0  0
   -9.3575    4.1509  -11.2316 C   0  0  0  0  0  0  0  0  0  0  0  0
   -9.6732    4.4274  -12.5639 C   0  0  0  0  0  0  0  0  0  0  0  0
  -10.9906    4.3571  -15.1420 H   0  0  0  0  0  0  0  0  0  0  0  0
  -10.9837    3.3028  -17.3369 H   0  0  0  0  0  0  0  0  0  0  0  0
   -9.8723    2.8929  -19.4968 H   0  0  0  0  0  0  0  0  0  0  0  0
   -7.8010    4.0916  -20.0873 H   0  0  0  0  0  0  0  0  0  0  0  0
   -4.1731    5.4887  -16.1420 H   0  0  0  0  0  0  0  0  0  0  0  0
   -5.9223    5.2460  -15.8464 H   0  0  0  0  0  0  0  0  0  0  0  0
   -5.0258    4.1422  -16.9811 H   0  0  0  0  0  0  0  0  0  0  0  0
   -7.9404    6.1908  -16.3377 H   0  0  0  0  0  0  0  0  0  0  0  0
   -8.9764    7.7674  -12.5717 H   0  0  0  0  0  0  0  0  0  0  0  0
   -8.3800    7.2711  -10.2623 H   0  0  0  0  0  0  0  0  0  0  0  0
   -6.6268    4.0741   -8.5476 H   0  0  0  0  0  0  0  0  0  0  0  0
   -7.6487    2.9820   -9.5157 H   0  0  0  0  0  0  0  0  0  0  0  0
   -9.1458    2.5241   -7.6557 H   0  0  0  0  0  0  0  0  0  0  0  0
   -7.4693    2.2276   -7.1250 H   0  0  0  0  0  0  0  0  0  0  0  0
   -6.5666    3.5324   -5.3166 H   0  0  0  0  0  0  0  0  0  0  0  0
   -7.3366    5.0631   -4.8167 H   0  0  0  0  0  0  0  0  0  0  0  0
   -6.4960    4.9680   -6.4077 H   0  0  0  0  0  0  0  0  0  0  0  0
  -10.2974    4.7062   -6.8657 H   0  0  0  0  0  0  0  0  0  0  0  0
   -9.3601    5.8219   -5.8424 H   0  0  0  0  0  0  0  0  0  0  0  0
   -9.5884    6.5473   -8.2472 H   0  0  0  0  0  0  0  0  0  0  0  0
   -7.8726    6.4077   -7.7248 H   0  0  0  0  0  0  0  0  0  0  0  0
   -9.4925    3.1440  -10.8596 H   0  0  0  0  0  0  0  0  0  0  0  0
  -10.0189    3.6134  -13.1879 H   0  0  0  0  0  0  0  0  0  0  0  0
  1  2  1  0
  2  3  1  0
  3  4  2  0
  4  5  1  0
  5  6  2  0
  6  7  1  0
  7  8  1  0
  8  9  1  0
  9 10  1  0
  8 11  2  0
  7 12  2  0
  1 13  2  0
  1 14  1  0
 14 15  2  0
 15 16  1  0
 16 17  2  0
 17 18  1  0
 18 19  1  0
 19 20  1  0
 20 21  1  0
 21 22  1  0
 21 23  1  0
 23 24  1  0
 17 25  1  0
 25 26  2  0
  3 12  1  0
 26 14  1  0
 24 18  1  0
  2 27  1  0
  4 28  1  0
  5 29  1  0
  6 30  1  0
 10 31  1  0
 10 32  1  0
 10 33  1  0
 12 34  1  0
 15 35  1  0
 16 36  1  0
 19 37  1  0
 19 38  1  0
 20 39  1  0
 20 40  1  0
 22 41  1  0
 22 42  1  0
 22 43  1  0
 23 44  1  0
 23 45  1  0
 24 46  1  0
 24 47  1  0
 25 48  1  0
 26 49  1  0
A    1
 C1 
A    2
 N1 
A    3
 C2 
A    4
 C3 
A    5
 C4 
A    6
 C5 
A    7
 C6 
A    8
 C7 
A    9
 O1 
A   10
 C8 
A   11
 O2 
A   12
 C9 
A   13
 O3 
A   14
 C10
A   15
 C11
A   16
 C12
A   17
 C13
A   18
 N2 
A   19
 C14
A   20
 C15
A   21
 N3 
A   22
 C16
A   23
 C17
A   24
 C18
A   25
 C19
A   26
 C20
A   27
 H1 
A   28
 H2 
A   29
 H3 
A   30
 H4 
A   31
 H5 
A   32
 H6 
A   33
 H7 
A   34
 H8 
A   35
 H9 
A   36
 H10
A   37
 H11
A   38
 H12
A   39
 H13
A   40
 H14
A   41
 H15
A   42
 H16
A   43
 H17
A   44
 H18
A   45
 H19
A   46
 H20
A   47
 H21
A   48
 H22
A   49
 H23
M  END
>  <ref_pdb>  (495) 
x0051_0B

>  <ref_mols>  (495) 
x0435_0B,x0404_0B

>  <original SMILES>  (495) 
[H]c1c([H])c(C(=O)OC([H])([H])[H])c([H])c(N([H])C(=O)c2c([H])c([H])c(N3C([H])([H])C([H])([H])N(C([H])([H])[H])C([H])([H])C3([H])[H])c([H])c2[H])c1[H]

>  <index>  (495) 
44

>  <∆∆G>  (495) 
-7.807986

>  <∆G_bound>  (495) 
-7.216893

>  <∆G_unbound>  (495) 
0.591093

>  <comRMSD>  (495) 
0.629913

>  <N_constrained_atoms>  (495) 
25.0

>  <N_unconstrained_atoms>  (495) 
1.0

>  <runtime>  (495) 
112.390897

>  <LE>  (495) 
0.300307

>  <percent_hybrid>  (495) 
40.0

>  <dist>  (495) 
10.0

>  <ecfp4>  (495) 
0.183908

>  <daylight>  (495) 
0.208163

>  <topodist>  (495) 
4.0

>  <mces>  (495) 
27.0

>  <tdn>  (495) 
1.0

>  <tup>  (495) 
1.0

>  <rdn>  (495) 
1.0

>  <rup>  (495) 
0.0

>  <ldn>  (495) 
1.0

>  <lup>  (495) 
0.0

>  <mut>  (495) 
5.0

>  <maj>  (495) 
5.0

>  <min>  (495) 
0.0

>  <hyb>  (495) 
1.0

>  <sub>  (495) 
2.0

>  <query_index>  (495) 
26.0

>  <max_hit_Tanimoto>  (495) 
0.309668

>  <largest_ring>  (495) 
6

>  <N_interactions_kept>  (495) 
3.5

>  <N_interactions_lost>  (495) 
1.0

>  <interaction_uniqueness_metric>  (495) 
0.218685

>  <ad_hoc_penalty>  (495) 
-17.457042

>  <N_rotatable_bonds>  (495) 
6

>  <N_HA>  (495) 
26

>  <cluster>  (495) 
6175

>  <N_interactions>  (495) 
7

>  <Enamine>  (495) 
0

>  <Mcule>  (495) 
1

>  <N_PAINS>  (495) 
0

>  <UFF_Gibbs>  (495) 
575.907443

>  <strain_per_HA>  (495) 
22.150286

>  <saltbridge:HIS:51>  (495) 
0

>  <pistack:HIS:51>  (495) 
1

>  <hydroph_interaction:HIS:51>  (495) 
0

>  <hbond:ALA:132>  (495) 
0

>  <hbond:SER:135>  (495) 
0

>  <hydroph_interaction:TYR:150>  (495) 
1

>  <pistack:TYR:161>  (495) 
0

>  <hydroph_interaction:TYR:161>  (495) 
2

>  <hydroph_interaction:ASP:83>  (495) 
0

>  <hbond:TYR:130>  (495) 
0

>  <hydroph_interaction:ALA:132>  (495) 
1

>  <hbond:HIS:51>  (495) 
0

>  <hbond:ASP:129>  (495) 
0

>  <hbond:TYR:150>  (495) 
0

>  <hbond:GLY:151>  (495) 
1

>  <hbond:TYR:161>  (495) 
0

>  <hydroph_interaction:TYR:130>  (495) 
0

>  <hydroph_interaction:PRO:131>  (495) 
0

>  <hydroph_interaction:ASP:129>  (495) 
0

>  <saltbridge:ASP:75>  (495) 
1

>  <saltbridge:ASP:83>  (495) 
0

>  <hydroph_interaction:ASN:152>  (495) 
0

>  <halogenbond:TYR:150>  (495) 
0

>  <hbond:ASP:83>  (495) 
0

>  <hydroph_interaction:VAL:155>  (495) 
0

>  <pication:TYR:161>  (495) 
0

>  <hbond:PRO:131>  (495) 
0

>  <hbond:LEU:128>  (495) 
0

>  <saltbridge:ASP:129>  (495) 
0

>  <hbond:THR:134>  (495) 
0

>  <pication:HIS:51>  (495) 
0

>  <hbond:SER:81>  (495) 
0

>  <hbond:GLY:159>  (495) 
0

>  <hydroph_interaction:PRO:101>  (495) 
0

>  <hydroph_interaction:THR:134>  (495) 
0

>  <hbond:GLY:82>  (495) 
0

>  <hydroph_interaction:GLU:104>  (495) 
0

>  <hydroph_interaction:VAL:36>  (495) 
0

>  <hydroph_interaction:MET:49>  (495) 
0

>  <halogenbond:GLU:104>  (495) 
0

>  <hydroph_interaction:LYS:107>  (495) 
0

$$$$
IZBBTVCLPWYLCU-UHFFFAOYSA-N
     RDKit          3D

 50 54  0  0  0  0  0  0  0  0999 V2000
   -6.1502    8.9402  -25.1105 O   0  0  0  0  0  0  0  0  0  0  0  0
   -5.1473    9.5105  -24.3151 C   0  0  0  0  0  0  0  0  0  0  0  0
   -4.6191   10.6072  -24.6488 O   0  0  0  0  0  0  0  0  0  0  0  0
   -4.7201    8.8277  -23.0753 C   0  0  0  0  0  0  0  0  0  0  0  0
   -5.1893    7.5365  -22.7812 C   0  0  0  0  0  0  0  0  0  0  0  0
   -4.8018    6.8945  -21.6025 C   0  0  0  0  0  0  0  0  0  0  0  0
   -3.9471    7.5360  -20.6924 C   0  0  0  0  0  0  0  0  0  0  0  0
   -3.5870    6.8757  -19.3896 C   0  0  0  0  0  0  0  0  0  0  0  0
   -4.5146    7.6136  -17.9973 S   0  0  0  0  0  0  0  0  0  0  0  0
   -6.1075    6.9834  -18.5198 C   0  0  0  0  0  0  0  0  0  0  0  0
   -7.2388    7.8788  -19.4066 S   0  0  0  0  0  0  0  0  0  0  0  0
   -8.3002    6.5819  -19.4809 C   0  0  0  0  0  0  0  0  0  0  0  0
   -7.7495    5.5013  -18.8083 C   0  0  0  0  0  0  0  0  0  0  0  0
   -8.4424    4.2920  -18.7288 C   0  0  0  0  0  0  0  0  0  0  0  0
   -9.6999    4.1943  -19.3487 C   0  0  0  0  0  0  0  0  0  0  0  0
  -10.2480    5.2975  -20.0330 C   0  0  0  0  0  0  0  0  0  0  0  0
   -9.5439    6.5103  -20.1027 C   0  0  0  0  0  0  0  0  0  0  0  0
   -6.5237    5.7195  -18.2683 N   0  0  0  0  0  0  0  0  0  0  0  0
   -3.4733    8.8225  -20.9846 C   0  0  0  0  0  0  0  0  0  0  0  0
   -3.8515    9.4619  -22.1686 C   0  0  0  0  0  0  0  0  0  0  0  0
   -6.6191    9.5190  -26.3287 C   0  0  0  0  0  0  0  0  0  0  0  0
   -5.6365    9.2298  -27.4649 C   0  0  0  0  0  0  0  0  0  0  0  0
   -7.9652    8.9474  -26.6584 C   0  0  0  0  0  0  0  0  0  0  0  0
   -8.3107    7.6579  -26.3933 N   0  0  0  0  0  0  0  0  0  0  0  0
   -9.5592    7.5786  -26.8882 C   0  0  0  0  0  0  0  0  0  0  0  0
   -9.9317    8.7708  -27.4342 C   0  0  0  0  0  0  0  0  0  0  0  0
  -11.1791    8.9602  -28.0252 C   0  0  0  0  0  0  0  0  0  0  0  0
  -12.0640    7.8653  -28.0417 C   0  0  0  0  0  0  0  0  0  0  0  0
  -11.6799    6.6264  -27.4765 C   0  0  0  0  0  0  0  0  0  0  0  0
  -10.4078    6.4732  -26.8899 C   0  0  0  0  0  0  0  0  0  0  0  0
   -8.9307    9.6493  -27.3038 N   0  0  0  0  0  0  0  0  0  0  0  0
   -5.8590    7.0222  -23.4596 H   0  0  0  0  0  0  0  0  0  0  0  0
   -5.1896    5.9058  -21.3876 H   0  0  0  0  0  0  0  0  0  0  0  0
   -2.5014    7.0114  -19.1971 H   0  0  0  0  0  0  0  0  0  0  0  0
   -3.7774    5.7814  -19.4273 H   0  0  0  0  0  0  0  0  0  0  0  0
   -8.0190    3.4448  -18.2048 H   0  0  0  0  0  0  0  0  0  0  0  0
  -10.2518    3.2643  -19.2985 H   0  0  0  0  0  0  0  0  0  0  0  0
  -11.2173    5.2110  -20.5058 H   0  0  0  0  0  0  0  0  0  0  0  0
   -9.9567    7.3627  -20.6254 H   0  0  0  0  0  0  0  0  0  0  0  0
   -2.8187    9.3353  -20.2896 H   0  0  0  0  0  0  0  0  0  0  0  0
   -3.4765   10.4593  -22.3659 H   0  0  0  0  0  0  0  0  0  0  0  0
   -6.7268   10.6204  -26.2045 H   0  0  0  0  0  0  0  0  0  0  0  0
   -6.0105    9.6680  -28.4159 H   0  0  0  0  0  0  0  0  0  0  0  0
   -4.6480    9.6816  -27.2390 H   0  0  0  0  0  0  0  0  0  0  0  0
   -5.5053    8.1334  -27.5959 H   0  0  0  0  0  0  0  0  0  0  0  0
  -11.4582    9.9127  -28.4541 H   0  0  0  0  0  0  0  0  0  0  0  0
  -13.0437    7.9720  -28.4899 H   0  0  0  0  0  0  0  0  0  0  0  0
  -12.3676    5.7901  -27.4950 H   0  0  0  0  0  0  0  0  0  0  0  0
  -10.1005    5.5292  -26.4586 H   0  0  0  0  0  0  0  0  0  0  0  0
   -8.8990   10.6416  -27.6288 H   0  0  0  0  0  0  0  0  0  0  0  0
  1  2  1  0
  2  3  2  0
  2  4  1  0
  4  5  2  0
  5  6  1  0
  6  7  2  0
  7  8  1  0
  8  9  1  0
  9 10  1  0
 10 11  1  0
 11 12  1  0
 12 13  2  0
 13 14  1  0
 14 15  2  0
 15 16  1  0
 16 17  2  0
 13 18  1  0
  7 19  1  0
 19 20  2  0
  1 21  1  0
 21 22  1  0
 21 23  1  0
 23 24  2  0
 24 25  1  0
 25 26  2  0
 26 27  1  0
 27 28  2  0
 28 29  1  0
 29 30  2  0
 26 31  1  0
 20  4  1  0
 10 18  2  0
 17 12  1  0
 31 23  1  0
 30 25  1  0
  5 32  1  0
  6 33  1  0
  8 34  1  0
  8 35  1  0
 14 36  1  0
 15 37  1  0
 16 38  1  0
 17 39  1  0
 19 40  1  0
 20 41  1  0
 21 42  1  0
 22 43  1  0
 22 44  1  0
 22 45  1  0
 27 46  1  0
 28 47  1  0
 29 48  1  0
 30 49  1  0
 31 50  1  0
A    1
 O1 
A    2
 C1 
A    3
 O2 
A    4
 C2 
A    5
 C3 
A    6
 C4 
A    7
 C5 
A    8
 C6 
A    9
 S1 
A   10
 C7 
A   11
 S2 
A   12
 C8 
A   13
 C9 
A   14
 C10
A   15
 C11
A   16
 C12
A   17
 C13
A   18
 N1 
A   19
 C14
A   20
 C15
A   21
 C16
A   22
 C17
A   23
 C18
A   24
 N2 
A   25
 C19
A   26
 C20
A   27
 C21
A   28
 C22
A   29
 C23
A   30
 C24
A   31
 N3 
A   32
 H1 
A   33
 H2 
A   34
 H3 
A   35
 H4 
A   36
 H5 
A   37
 H6 
A   38
 H7 
A   39
 H8 
A   40
 H9 
A   41
 H10
A   42
 H11
A   43
 H12
A   44
 H13
A   45
 H14
A   46
 H15
A   47
 H16
A   48
 H17
A   49
 H18
A   50
 H19
M  END
>  <ref_pdb>  (496) 
x0051_0B

>  <ref_mols>  (496) 
x0846_1B,x0490_0B

>  <original SMILES>  (496) 
[H]c1c([H])c(C([H])([H])Sc2nc3c([H])c([H])c([H])c([H])c3s2)c([H])c([H])c1C(=O)OC([H])(c1nc2c([H])c([H])c([H])c([H])c2n1[H])C([H])([H])[H]

>  <index>  (496) 
1056

>  <∆∆G>  (496) 
-9.589511

>  <∆G_bound>  (496) 
-8.961371

>  <∆G_unbound>  (496) 
0.62814

>  <comRMSD>  (496) 
0.901601

>  <N_constrained_atoms>  (496) 
27.0

>  <N_unconstrained_atoms>  (496) 
4.0

>  <runtime>  (496) 
42.351388

>  <LE>  (496) 
0.309339

>  <percent_hybrid>  (496) 
34.0

>  <dist>  (496) 
8.0

>  <ecfp4>  (496) 
0.230769

>  <daylight>  (496) 
0.250909

>  <topodist>  (496) 
6.0

>  <mces>  (496) 
32.0

>  <tdn>  (496) 
3.0

>  <tup>  (496) 
2.0

>  <rdn>  (496) 
0.0

>  <rup>  (496) 
0.0

>  <ldn>  (496) 
0.0

>  <lup>  (496) 
1.0

>  <mut>  (496) 
2.0

>  <maj>  (496) 
2.0

>  <min>  (496) 
0.0

>  <hyb>  (496) 
0.0

>  <sub>  (496) 
3.0

>  <query_index>  (496) 
51.0

>  <max_hit_Tanimoto>  (496) 
0.244313

>  <largest_ring>  (496) 
6

>  <N_interactions_kept>  (496) 
0.0

>  <N_interactions_lost>  (496) 
3.0

>  <interaction_uniqueness_metric>  (496) 
0.183756

>  <ad_hoc_penalty>  (496) 
-17.455358

>  <N_rotatable_bonds>  (496) 
7

>  <N_HA>  (496) 
31

>  <cluster>  (496) 
5247

>  <N_interactions>  (496) 
7

>  <Enamine>  (496) 
0

>  <Mcule>  (496) 
1

>  <N_PAINS>  (496) 
0

>  <UFF_Gibbs>  (496) 
81.610767

>  <strain_per_HA>  (496) 
2.632605

>  <saltbridge:HIS:51>  (496) 
0

>  <pistack:HIS:51>  (496) 
0

>  <hydroph_interaction:HIS:51>  (496) 
0

>  <hbond:ALA:132>  (496) 
0

>  <hbond:SER:135>  (496) 
0

>  <hydroph_interaction:TYR:150>  (496) 
1

>  <pistack:TYR:161>  (496) 
1

>  <hydroph_interaction:TYR:161>  (496) 
2

>  <hydroph_interaction:ASP:83>  (496) 
0

>  <hbond:TYR:130>  (496) 
0

>  <hydroph_interaction:ALA:132>  (496) 
0

>  <hbond:HIS:51>  (496) 
0

>  <hbond:ASP:129>  (496) 
0

>  <hbond:TYR:150>  (496) 
0

>  <hbond:GLY:151>  (496) 
0

>  <hbond:TYR:161>  (496) 
0

>  <hydroph_interaction:TYR:130>  (496) 
1

>  <hydroph_interaction:PRO:131>  (496) 
1

>  <hydroph_interaction:ASP:129>  (496) 
1

>  <saltbridge:ASP:75>  (496) 
0

>  <saltbridge:ASP:83>  (496) 
0

>  <hydroph_interaction:ASN:152>  (496) 
0

>  <halogenbond:TYR:150>  (496) 
0

>  <hbond:ASP:83>  (496) 
0

>  <hydroph_interaction:VAL:155>  (496) 
0

>  <pication:TYR:161>  (496) 
0

>  <hbond:PRO:131>  (496) 
0

>  <hbond:LEU:128>  (496) 
0

>  <saltbridge:ASP:129>  (496) 
0

>  <hbond:THR:134>  (496) 
0

>  <pication:HIS:51>  (496) 
0

>  <hbond:SER:81>  (496) 
0

>  <hbond:GLY:159>  (496) 
0

>  <hydroph_interaction:PRO:101>  (496) 
0

>  <hydroph_interaction:THR:134>  (496) 
0

>  <hbond:GLY:82>  (496) 
0

>  <hydroph_interaction:GLU:104>  (496) 
0

>  <hydroph_interaction:VAL:36>  (496) 
0

>  <hydroph_interaction:MET:49>  (496) 
0

>  <halogenbond:GLU:104>  (496) 
0

>  <hydroph_interaction:LYS:107>  (496) 
0

$$$$
CSSB00000048370
     RDKit          3D

 31 31  0  0  0  0  0  0  0  0999 V2000
   -3.8606    4.0251  -19.3962 C   0  0  0  0  0  0  0  0  0  0  0  0
   -5.0860    4.4367  -18.8026 O   0  0  0  0  0  0  0  0  0  0  0  0
   -6.3283    4.2295  -19.4125 C   0  0  0  0  0  0  0  0  0  0  0  0
   -6.3916    3.6564  -20.5354 O   0  0  0  0  0  0  0  0  0  0  0  0
   -7.5659    4.6833  -18.7391 C   0  0  0  0  0  0  0  0  0  0  0  0
   -8.8212    4.4837  -19.3388 C   0  0  0  0  0  0  0  0  0  0  0  0
   -9.9848    4.9173  -18.7015 C   0  0  0  0  0  0  0  0  0  0  0  0
   -9.9136    5.5493  -17.4588 C   0  0  0  0  0  0  0  0  0  0  0  0
   -8.6708    5.7507  -16.8333 C   0  0  0  0  0  0  0  0  0  0  0  0
   -7.5006    5.3215  -17.4872 C   0  0  0  0  0  0  0  0  0  0  0  0
   -8.5804    6.4266  -15.5161 C   0  0  0  0  0  0  0  0  0  0  0  0
   -7.5016    6.9901  -15.1831 O   0  0  0  0  0  0  0  0  0  0  0  0
   -9.6956    6.4335  -14.6089 N   0  0  0  0  0  0  0  0  0  0  0  0
   -9.6730    7.1782  -13.3474 C   0  0  0  0  0  0  0  0  0  0  0  0
   -9.1283    6.2873  -12.2294 C   0  0  0  0  0  0  0  0  0  0  0  0
  -11.0810    7.6746  -13.0097 C   0  0  0  0  0  0  0  0  0  0  0  0
   -3.7214    4.5347  -20.3732 H   0  0  0  0  0  0  0  0  0  0  0  0
   -3.0207    4.2985  -18.7252 H   0  0  0  0  0  0  0  0  0  0  0  0
   -3.8603    2.9243  -19.5432 H   0  0  0  0  0  0  0  0  0  0  0  0
   -8.9045    3.9969  -20.3024 H   0  0  0  0  0  0  0  0  0  0  0  0
  -10.9462    4.7685  -19.1761 H   0  0  0  0  0  0  0  0  0  0  0  0
  -10.8310    5.8984  -17.0041 H   0  0  0  0  0  0  0  0  0  0  0  0
   -6.5387    5.4758  -17.0135 H   0  0  0  0  0  0  0  0  0  0  0  0
  -10.4693    5.7468  -14.7572 H   0  0  0  0  0  0  0  0  0  0  0  0
   -9.0158    8.0707  -13.4454 H   0  0  0  0  0  0  0  0  0  0  0  0
   -8.0976    5.9565  -12.4778 H   0  0  0  0  0  0  0  0  0  0  0  0
   -9.0937    6.8497  -11.2721 H   0  0  0  0  0  0  0  0  0  0  0  0
   -9.7697    5.3892  -12.0996 H   0  0  0  0  0  0  0  0  0  0  0  0
  -11.0619    8.2766  -12.0762 H   0  0  0  0  0  0  0  0  0  0  0  0
  -11.7767    6.8190  -12.8729 H   0  0  0  0  0  0  0  0  0  0  0  0
  -11.4610    8.3164  -13.8329 H   0  0  0  0  0  0  0  0  0  0  0  0
  1  2  1  0
  2  3  1  0
  3  4  2  0
  3  5  1  0
  5  6  2  0
  6  7  1  0
  7  8  2  0
  8  9  1  0
  9 10  2  0
  9 11  1  0
 11 12  2  0
 11 13  1  0
 13 14  1  0
 14 15  1  0
 14 16  1  0
 10  5  1  0
  1 17  1  0
  1 18  1  0
  1 19  1  0
  6 20  1  0
  7 21  1  0
  8 22  1  0
 10 23  1  0
 13 24  1  0
 14 25  1  0
 15 26  1  0
 15 27  1  0
 15 28  1  0
 16 29  1  0
 16 30  1  0
 16 31  1  0
A    1
 C1 
A    2
 O1 
A    3
 C2 
A    4
 O2 
A    5
 C3 
A    6
 C4 
A    7
 C5 
A    8
 C6 
A    9
 C7 
A   10
 C8 
A   11
 C9 
A   12
 O3 
A   13
 N1 
A   14
 C10
A   15
 C11
A   16
 C12
A   17
 H1 
A   18
 H2 
A   19
 H3 
A   20
 H4 
A   21
 H5 
A   22
 H6 
A   23
 H7 
A   24
 H8 
A   25
 H9 
A   26
 H10
A   27
 H11
A   28
 H12
A   29
 H13
A   30
 H14
A   31
 H15
M  END
>  <ref_pdb>  (497) 
x0051_0B

>  <ref_mols>  (497) 
x0089_0B,x0951_0B

>  <original SMILES>  (497) 
[H]c1c([H])c(C(=O)OC([H])([H])[H])c([H])c(C(=O)N([H])C([H])(C([H])([H])[H])C([H])([H])[H])c1[H]

>  <index>  (497) 
769

>  <∆∆G>  (497) 
-6.661709

>  <∆G_bound>  (497) 
-6.538338

>  <∆G_unbound>  (497) 
0.123371

>  <comRMSD>  (497) 
0.913939

>  <N_constrained_atoms>  (497) 
17.0

>  <N_unconstrained_atoms>  (497) 
2.0

>  <runtime>  (497) 
53.091903

>  <LE>  (497) 
0.350616

>  <percent_hybrid>  (497) 
50.0

>  <dist>  (497) 
8.0

>  <ecfp4>  (497) 
0.177419

>  <daylight>  (497) 
0.204545

>  <topodist>  (497) 
3.0

>  <mces>  (497) 
16.0

>  <tdn>  (497) 
1.0

>  <tup>  (497) 
0.0

>  <rdn>  (497) 
0.0

>  <rup>  (497) 
0.0

>  <ldn>  (497) 
2.0

>  <lup>  (497) 
0.0

>  <mut>  (497) 
3.0

>  <maj>  (497) 
3.0

>  <min>  (497) 
0.0

>  <hyb>  (497) 
2.0

>  <sub>  (497) 
0.0

>  <query_index>  (497) 
292.0

>  <max_hit_Tanimoto>  (497) 
0.116697

>  <largest_ring>  (497) 
6

>  <N_interactions_kept>  (497) 
2.0

>  <N_interactions_lost>  (497) 
1.5

>  <interaction_uniqueness_metric>  (497) 
0.127935

>  <ad_hoc_penalty>  (497) 
-17.450533

>  <N_rotatable_bonds>  (497) 
6

>  <N_HA>  (497) 
16

>  <cluster>  (497) 
5514

>  <N_interactions>  (497) 
6

>  <Enamine>  (497) 
1

>  <Mcule>  (497) 
0

>  <N_PAINS>  (497) 
0

>  <UFF_Gibbs>  (497) 
87.589795

>  <strain_per_HA>  (497) 
4.609989

>  <saltbridge:HIS:51>  (497) 
0

>  <pistack:HIS:51>  (497) 
0

>  <hydroph_interaction:HIS:51>  (497) 
1

>  <hbond:ALA:132>  (497) 
0

>  <hbond:SER:135>  (497) 
0

>  <hydroph_interaction:TYR:150>  (497) 
1

>  <pistack:TYR:161>  (497) 
0

>  <hydroph_interaction:TYR:161>  (497) 
2

>  <hydroph_interaction:ASP:83>  (497) 
0

>  <hbond:TYR:130>  (497) 
1

>  <hydroph_interaction:ALA:132>  (497) 
0

>  <hbond:HIS:51>  (497) 
0

>  <hbond:ASP:129>  (497) 
0

>  <hbond:TYR:150>  (497) 
0

>  <hbond:GLY:151>  (497) 
1

>  <hbond:TYR:161>  (497) 
0

>  <hydroph_interaction:TYR:130>  (497) 
0

>  <hydroph_interaction:PRO:131>  (497) 
0

>  <hydroph_interaction:ASP:129>  (497) 
0

>  <saltbridge:ASP:75>  (497) 
0

>  <saltbridge:ASP:83>  (497) 
0

>  <hydroph_interaction:ASN:152>  (497) 
0

>  <halogenbond:TYR:150>  (497) 
0

>  <hbond:ASP:83>  (497) 
0

>  <hydroph_interaction:VAL:155>  (497) 
0

>  <pication:TYR:161>  (497) 
0

>  <hbond:PRO:131>  (497) 
0

>  <hbond:LEU:128>  (497) 
0

>  <saltbridge:ASP:129>  (497) 
0

>  <hbond:THR:134>  (497) 
0

>  <pication:HIS:51>  (497) 
0

>  <hbond:SER:81>  (497) 
0

>  <hbond:GLY:159>  (497) 
0

>  <hydroph_interaction:PRO:101>  (497) 
0

>  <hydroph_interaction:THR:134>  (497) 
0

>  <hbond:GLY:82>  (497) 
0

>  <hydroph_interaction:GLU:104>  (497) 
0

>  <hydroph_interaction:VAL:36>  (497) 
0

>  <hydroph_interaction:MET:49>  (497) 
0

>  <halogenbond:GLU:104>  (497) 
0

>  <hydroph_interaction:LYS:107>  (497) 
0

$$$$
Z929192768
     RDKit          3D

 56 59  0  0  0  0  0  0  0  0999 V2000
   -8.0391    7.7159  -16.0680 C   0  0  0  0  0  0  0  0  0  0  0  0
   -8.9497    6.5900  -16.4958 C   0  0  0  0  0  0  0  0  0  0  0  0
   -8.4239    5.4684  -17.1846 C   0  0  0  0  0  0  0  0  0  0  0  0
   -7.0097    5.3381  -17.4123 N   0  0  0  0  0  0  0  0  0  0  0  0
   -6.4618    4.9925  -18.6965 C   0  0  0  0  0  0  0  0  0  0  0  0
   -7.2174    4.9480  -19.7047 O   0  0  0  0  0  0  0  0  0  0  0  0
   -5.0111    4.7392  -18.8699 C   0  0  0  0  0  0  0  0  0  0  0  0
   -4.2072    4.3297  -17.7894 C   0  0  0  0  0  0  0  0  0  0  0  0
   -2.8399    4.0987  -17.9724 C   0  0  0  0  0  0  0  0  0  0  0  0
   -2.2617    4.2689  -19.2319 C   0  0  0  0  0  0  0  0  0  0  0  0
   -3.0501    4.6646  -20.3132 C   0  0  0  0  0  0  0  0  0  0  0  0
   -4.4176    4.8940  -20.1371 C   0  0  0  0  0  0  0  0  0  0  0  0
   -9.2929    4.4631  -17.6378 C   0  0  0  0  0  0  0  0  0  0  0  0
  -10.6663    4.5687  -17.4343 C   0  0  0  0  0  0  0  0  0  0  0  0
  -11.1888    5.6600  -16.7461 C   0  0  0  0  0  0  0  0  0  0  0  0
  -10.3435    6.6543  -16.2397 C   0  0  0  0  0  0  0  0  0  0  0  0
  -10.9301    7.7301  -15.4891 N   0  0  0  0  0  0  0  0  0  0  0  0
  -10.5199    8.0897  -14.1600 C   0  0  0  0  0  0  0  0  0  0  0  0
  -10.7158    9.2685  -13.7596 O   0  0  0  0  0  0  0  0  0  0  0  0
   -9.8852    7.1111  -13.2476 C   0  0  0  0  0  0  0  0  0  0  0  0
   -8.8830    7.5220  -12.3605 C   0  0  0  0  0  0  0  0  0  0  0  0
   -8.2715    6.6032  -11.5022 C   0  0  0  0  0  0  0  0  0  0  0  0
   -8.6490    5.2398  -11.5018 C   0  0  0  0  0  0  0  0  0  0  0  0
   -7.9976    4.2719  -10.6207 N   0  0  0  0  0  0  0  0  0  0  0  0
   -8.4894    2.8773  -10.5847 C   0  0  0  0  0  0  0  0  0  0  0  0
   -7.6374    1.9460   -9.7176 C   0  0  0  0  0  0  0  0  0  0  0  0
   -7.1918    2.6018   -8.5547 O   0  0  0  0  0  0  0  0  0  0  0  0
   -6.2644    3.5903   -8.9302 C   0  0  0  0  0  0  0  0  0  0  0  0
   -6.9567    4.7325   -9.6752 C   0  0  0  0  0  0  0  0  0  0  0  0
   -9.6917    4.8513  -12.3755 C   0  0  0  0  0  0  0  0  0  0  0  0
  -10.2982    5.7736  -13.2309 C   0  0  0  0  0  0  0  0  0  0  0  0
   -7.6376    7.5093  -15.0557 H   0  0  0  0  0  0  0  0  0  0  0  0
   -8.5740    8.6856  -16.0669 H   0  0  0  0  0  0  0  0  0  0  0  0
   -7.1933    7.8366  -16.7729 H   0  0  0  0  0  0  0  0  0  0  0  0
   -6.3584    5.6440  -16.6547 H   0  0  0  0  0  0  0  0  0  0  0  0
   -4.6317    4.1661  -16.8088 H   0  0  0  0  0  0  0  0  0  0  0  0
   -2.2281    3.7824  -17.1379 H   0  0  0  0  0  0  0  0  0  0  0  0
   -1.2034    4.0913  -19.3715 H   0  0  0  0  0  0  0  0  0  0  0  0
   -2.6011    4.7950  -21.2893 H   0  0  0  0  0  0  0  0  0  0  0  0
   -5.0080    5.2054  -20.9895 H   0  0  0  0  0  0  0  0  0  0  0  0
   -8.9034    3.5903  -18.1467 H   0  0  0  0  0  0  0  0  0  0  0  0
  -11.3267    3.7927  -17.7981 H   0  0  0  0  0  0  0  0  0  0  0  0
  -12.2560    5.7175  -16.5748 H   0  0  0  0  0  0  0  0  0  0  0  0
  -11.7262    8.2533  -15.9173 H   0  0  0  0  0  0  0  0  0  0  0  0
   -8.5604    8.5564  -12.3407 H   0  0  0  0  0  0  0  0  0  0  0  0
   -7.5074    6.9824  -10.8404 H   0  0  0  0  0  0  0  0  0  0  0  0
   -8.4889    2.4523  -11.6106 H   0  0  0  0  0  0  0  0  0  0  0  0
   -9.5302    2.8756  -10.1959 H   0  0  0  0  0  0  0  0  0  0  0  0
   -8.2571    1.0760   -9.4153 H   0  0  0  0  0  0  0  0  0  0  0  0
   -6.7873    1.5291  -10.3073 H   0  0  0  0  0  0  0  0  0  0  0  0
   -5.7898    3.9967   -8.0103 H   0  0  0  0  0  0  0  0  0  0  0  0
   -5.4354    3.1671   -9.5463 H   0  0  0  0  0  0  0  0  0  0  0  0
   -6.1664    5.2853  -10.2258 H   0  0  0  0  0  0  0  0  0  0  0  0
   -7.4228    5.4152   -8.9313 H   0  0  0  0  0  0  0  0  0  0  0  0
  -10.0651    3.8385  -12.4026 H   0  0  0  0  0  0  0  0  0  0  0  0
  -11.1129    5.4428  -13.8603 H   0  0  0  0  0  0  0  0  0  0  0  0
  1  2  1  0
  2  3  2  0
  3  4  1  0
  4  5  1  0
  5  6  2  0
  5  7  1  0
  7  8  2  0
  8  9  1  0
  9 10  2  0
 10 11  1  0
 11 12  2  0
  3 13  1  0
 13 14  2  0
 14 15  1  0
 15 16  2  0
 16 17  1  0
 17 18  1  0
 18 19  2  0
 18 20  1  0
 20 21  2  0
 21 22  1  0
 22 23  2  0
 23 24  1  0
 24 25  1  0
 25 26  1  0
 26 27  1  0
 27 28  1  0
 28 29  1  0
 23 30  1  0
 30 31  2  0
 16  2  1  0
 12  7  1  0
 31 20  1  0
 29 24  1  0
  1 32  1  0
  1 33  1  0
  1 34  1  0
  4 35  1  0
  8 36  1  0
  9 37  1  0
 10 38  1  0
 11 39  1  0
 12 40  1  0
 13 41  1  0
 14 42  1  0
 15 43  1  0
 17 44  1  0
 21 45  1  0
 22 46  1  0
 25 47  1  0
 25 48  1  0
 26 49  1  0
 26 50  1  0
 28 51  1  0
 28 52  1  0
 29 53  1  0
 29 54  1  0
 30 55  1  0
 31 56  1  0
A    1
 C1 
A    2
 C2 
A    3
 C3 
A    4
 N1 
A    5
 C4 
A    6
 O1 
A    7
 C5 
A    8
 C6 
A    9
 C7 
A   10
 C8 
A   11
 C9 
A   12
 C10
A   13
 C11
A   14
 C12
A   15
 C13
A   16
 C14
A   17
 N2 
A   18
 C15
A   19
 O2 
A   20
 C16
A   21
 C17
A   22
 C18
A   23
 C19
A   24
 N3 
A   25
 C20
A   26
 C21
A   27
 O3 
A   28
 C22
A   29
 C23
A   30
 C24
A   31
 C25
A   32
 H1 
A   33
 H2 
A   34
 H3 
A   35
 H4 
A   36
 H5 
A   37
 H6 
A   38
 H7 
A   39
 H8 
A   40
 H9 
A   41
 H10
A   42
 H11
A   43
 H12
A   44
 H13
A   45
 H14
A   46
 H15
A   47
 H16
A   48
 H17
A   49
 H18
A   50
 H19
A   51
 H20
A   52
 H21
A   53
 H22
A   54
 H23
A   55
 H24
A   56
 H25
M  END
>  <ref_pdb>  (498) 
x0051_0B

>  <ref_mols>  (498) 
x0852_0B,x0404_0B

>  <original SMILES>  (498) 
[H]c1c([H])c([H])c(C(=O)N([H])c2c([H])c([H])c([H])c(N([H])C(=O)c3c([H])c([H])c(N4C([H])([H])C([H])([H])OC([H])([H])C4([H])[H])c([H])c3[H])c2C([H])([H])[H])c([H])c1[H]

>  <index>  (498) 
756

>  <∆∆G>  (498) 
-6.491971

>  <∆G_bound>  (498) 
-6.401288

>  <∆G_unbound>  (498) 
0.090683

>  <comRMSD>  (498) 
0.81123

>  <N_constrained_atoms>  (498) 
34.0

>  <N_unconstrained_atoms>  (498) 
0.0

>  <runtime>  (498) 
119.825565

>  <LE>  (498) 
0.19094

>  <percent_hybrid>  (498) 
48.0

>  <dist>  (498) 
8.0

>  <ecfp4>  (498) 
0.258427

>  <daylight>  (498) 
0.283333

>  <topodist>  (498) 
4.0

>  <mces>  (498) 
34.0

>  <tdn>  (498) 
3.0

>  <tup>  (498) 
0.0

>  <rdn>  (498) 
0.0

>  <rup>  (498) 
0.0

>  <ldn>  (498) 
1.0

>  <lup>  (498) 
0.0

>  <mut>  (498) 
3.0

>  <maj>  (498) 
3.0

>  <min>  (498) 
0.0

>  <hyb>  (498) 
1.0

>  <sub>  (498) 
2.0

>  <query_index>  (498) 
6.0

>  <max_hit_Tanimoto>  (498) 
0.434783

>  <largest_ring>  (498) 
6

>  <N_interactions_kept>  (498) 
3.0

>  <N_interactions_lost>  (498) 
4.0

>  <interaction_uniqueness_metric>  (498) 
0.218051

>  <ad_hoc_penalty>  (498) 
-17.431357

>  <N_rotatable_bonds>  (498) 
6

>  <N_HA>  (498) 
31

>  <cluster>  (498) 
5527

>  <N_interactions>  (498) 
10

>  <Enamine>  (498) 
1

>  <Mcule>  (498) 
0

>  <N_PAINS>  (498) 
0

>  <UFF_Gibbs>  (498) 
191.772001

>  <strain_per_HA>  (498) 
5.640353

>  <saltbridge:HIS:51>  (498) 
0

>  <pistack:HIS:51>  (498) 
1

>  <hydroph_interaction:HIS:51>  (498) 
1

>  <hbond:ALA:132>  (498) 
0

>  <hbond:SER:135>  (498) 
0

>  <hydroph_interaction:TYR:150>  (498) 
1

>  <pistack:TYR:161>  (498) 
0

>  <hydroph_interaction:TYR:161>  (498) 
3

>  <hydroph_interaction:ASP:83>  (498) 
0

>  <hbond:TYR:130>  (498) 
1

>  <hydroph_interaction:ALA:132>  (498) 
1

>  <hbond:HIS:51>  (498) 
0

>  <hbond:ASP:129>  (498) 
0

>  <hbond:TYR:150>  (498) 
0

>  <hbond:GLY:151>  (498) 
1

>  <hbond:TYR:161>  (498) 
0

>  <hydroph_interaction:TYR:130>  (498) 
0

>  <hydroph_interaction:PRO:131>  (498) 
0

>  <hydroph_interaction:ASP:129>  (498) 
1

>  <saltbridge:ASP:75>  (498) 
0

>  <saltbridge:ASP:83>  (498) 
0

>  <hydroph_interaction:ASN:152>  (498) 
0

>  <halogenbond:TYR:150>  (498) 
0

>  <hbond:ASP:83>  (498) 
0

>  <hydroph_interaction:VAL:155>  (498) 
0

>  <pication:TYR:161>  (498) 
0

>  <hbond:PRO:131>  (498) 
0

>  <hbond:LEU:128>  (498) 
0

>  <saltbridge:ASP:129>  (498) 
0

>  <hbond:THR:134>  (498) 
0

>  <pication:HIS:51>  (498) 
0

>  <hbond:SER:81>  (498) 
0

>  <hbond:GLY:159>  (498) 
0

>  <hydroph_interaction:PRO:101>  (498) 
0

>  <hydroph_interaction:THR:134>  (498) 
0

>  <hbond:GLY:82>  (498) 
0

>  <hydroph_interaction:GLU:104>  (498) 
0

>  <hydroph_interaction:VAL:36>  (498) 
0

>  <hydroph_interaction:MET:49>  (498) 
0

>  <halogenbond:GLU:104>  (498) 
0

>  <hydroph_interaction:LYS:107>  (498) 
0

$$$$
CSSS00025738498
     RDKit          3D

 30 31  0  0  0  0  0  0  0  0999 V2000
  -10.4543    4.7698  -18.5746 C   0  0  0  0  0  0  0  0  0  0  0  0
   -9.2301    5.1926  -17.8264 C   0  0  0  0  0  0  0  0  0  0  0  0
   -9.2236    5.2016  -16.4291 C   0  0  0  0  0  0  0  0  0  0  0  0
   -8.0695    5.6027  -15.7335 C   0  0  0  0  0  0  0  0  0  0  0  0
   -6.9280    5.9926  -16.4750 C   0  0  0  0  0  0  0  0  0  0  0  0
   -5.7493    6.4948  -15.8039 C   0  0  0  0  0  0  0  0  0  0  0  0
   -4.8077    6.8984  -15.2654 N   0  0  0  0  0  0  0  0  0  0  0  0
   -6.9714    5.9446  -17.8844 C   0  0  0  0  0  0  0  0  0  0  0  0
   -8.1153    5.5580  -18.5091 N   0  0  0  0  0  0  0  0  0  0  0  0
   -5.8339    6.3082  -18.6822 N   0  0  0  0  0  0  0  0  0  0  0  0
   -5.9360    7.2160  -19.8117 C   0  0  0  0  0  0  0  0  0  0  0  0
   -4.6963    6.9625  -20.6607 C   0  0  0  0  0  0  0  0  0  0  0  0
   -3.7397    6.1627  -19.7803 C   0  0  0  0  0  0  0  0  0  0  0  0
   -4.5999    5.5406  -18.6897 C   0  0  0  0  0  0  0  0  0  0  0  0
   -8.0671    5.6388  -14.2171 C   0  0  0  0  0  0  0  0  0  0  0  0
   -7.8996    6.9423  -13.7860 F   0  0  0  0  0  0  0  0  0  0  0  0
   -7.0280    4.8637  -13.7340 F   0  0  0  0  0  0  0  0  0  0  0  0
   -9.2502    5.1527  -13.6871 F   0  0  0  0  0  0  0  0  0  0  0  0
  -11.3149    5.4057  -18.2782 H   0  0  0  0  0  0  0  0  0  0  0  0
  -10.6859    3.7087  -18.3439 H   0  0  0  0  0  0  0  0  0  0  0  0
  -10.2975    4.8715  -19.6695 H   0  0  0  0  0  0  0  0  0  0  0  0
  -10.1194    4.9046  -15.8980 H   0  0  0  0  0  0  0  0  0  0  0  0
   -6.8556    7.0135  -20.4029 H   0  0  0  0  0  0  0  0  0  0  0  0
   -5.9517    8.2639  -19.4422 H   0  0  0  0  0  0  0  0  0  0  0  0
   -4.2338    7.9162  -20.9961 H   0  0  0  0  0  0  0  0  0  0  0  0
   -4.9717    6.3576  -21.5526 H   0  0  0  0  0  0  0  0  0  0  0  0
   -3.2031    5.3853  -20.3664 H   0  0  0  0  0  0  0  0  0  0  0  0
   -2.9968    6.8516  -19.3209 H   0  0  0  0  0  0  0  0  0  0  0  0
   -4.0831    5.5999  -17.7101 H   0  0  0  0  0  0  0  0  0  0  0  0
   -4.8233    4.4787  -18.9319 H   0  0  0  0  0  0  0  0  0  0  0  0
  1  2  1  0
  2  3  2  0
  3  4  1  0
  4  5  2  0
  5  6  1  0
  6  7  3  0
  5  8  1  0
  8  9  2  0
  8 10  1  0
 10 11  1  0
 11 12  1  0
 12 13  1  0
 13 14  1  0
  4 15  1  0
 15 16  1  0
 15 17  1  0
 15 18  1  0
  9  2  1  0
 14 10  1  0
  1 19  1  0
  1 20  1  0
  1 21  1  0
  3 22  1  0
 11 23  1  0
 11 24  1  0
 12 25  1  0
 12 26  1  0
 13 27  1  0
 13 28  1  0
 14 29  1  0
 14 30  1  0
A    1
 C1 
A    2
 C2 
A    3
 C3 
A    4
 C4 
A    5
 C5 
A    6
 C6 
A    7
 N1 
A    8
 C7 
A    9
 N2 
A   10
 N3 
A   11
 C8 
A   12
 C9 
A   13
 C10
A   14
 C11
A   15
 C12
A   16
 F1 
A   17
 F2 
A   18
 F3 
A   19
 H1 
A   20
 H2 
A   21
 H3 
A   22
 H4 
A   23
 H5 
A   24
 H6 
A   25
 H7 
A   26
 H8 
A   27
 H9 
A   28
 H10
A   29
 H11
A   30
 H12
M  END
>  <ref_pdb>  (499) 
x0051_0B

>  <ref_mols>  (499) 
x0917_1B,x0693_0B

>  <original SMILES>  (499) 
[H]c1c(C([H])([H])[H])nc(N2C([H])([H])C([H])([H])C([H])([H])C2([H])[H])c(C#N)c1C(F)(F)F

>  <index>  (499) 
843

>  <∆∆G>  (499) 
-5.652955

>  <∆G_bound>  (499) 
-4.050958

>  <∆G_unbound>  (499) 
1.601997

>  <comRMSD>  (499) 
0.843432

>  <N_constrained_atoms>  (499) 
20.0

>  <N_unconstrained_atoms>  (499) 
1.0

>  <runtime>  (499) 
24.822205

>  <LE>  (499) 
0.269188

>  <percent_hybrid>  (499) 
29.0

>  <dist>  (499) 
8.0

>  <ecfp4>  (499) 
0.094595

>  <daylight>  (499) 
0.243802

>  <topodist>  (499) 
5.0

>  <mces>  (499) 
17.0

>  <tdn>  (499) 
2.0

>  <tup>  (499) 
1.0

>  <rdn>  (499) 
0.0

>  <rup>  (499) 
0.0

>  <ldn>  (499) 
1.0

>  <lup>  (499) 
1.0

>  <mut>  (499) 
2.0

>  <maj>  (499) 
2.0

>  <min>  (499) 
0.0

>  <hyb>  (499) 
1.0

>  <sub>  (499) 
0.0

>  <query_index>  (499) 
144.0

>  <max_hit_Tanimoto>  (499) 
0.239072

>  <largest_ring>  (499) 
6

>  <N_interactions_kept>  (499) 
4.0

>  <N_interactions_lost>  (499) 
0.5

>  <interaction_uniqueness_metric>  (499) 
0.037497

>  <ad_hoc_penalty>  (499) 
-17.388364

>  <N_rotatable_bonds>  (499) 
2

>  <N_HA>  (499) 
18

>  <cluster>  (499) 
5447

>  <N_interactions>  (499) 
2

>  <Enamine>  (499) 
1

>  <Mcule>  (499) 
0

>  <N_PAINS>  (499) 
0

>  <UFF_Gibbs>  (499) 
64.249797

>  <strain_per_HA>  (499) 
3.059514

>  <saltbridge:HIS:51>  (499) 
0

>  <pistack:HIS:51>  (499) 
0

>  <hydroph_interaction:HIS:51>  (499) 
0

>  <hbond:ALA:132>  (499) 
0

>  <hbond:SER:135>  (499) 
0

>  <hydroph_interaction:TYR:150>  (499) 
1

>  <pistack:TYR:161>  (499) 
0

>  <hydroph_interaction:TYR:161>  (499) 
0

>  <hydroph_interaction:ASP:83>  (499) 
0

>  <hbond:TYR:130>  (499) 
0

>  <hydroph_interaction:ALA:132>  (499) 
1

>  <hbond:HIS:51>  (499) 
0

>  <hbond:ASP:129>  (499) 
0

>  <hbond:TYR:150>  (499) 
0

>  <hbond:GLY:151>  (499) 
0

>  <hbond:TYR:161>  (499) 
0

>  <hydroph_interaction:TYR:130>  (499) 
0

>  <hydroph_interaction:PRO:131>  (499) 
0

>  <hydroph_interaction:ASP:129>  (499) 
0

>  <saltbridge:ASP:75>  (499) 
0

>  <saltbridge:ASP:83>  (499) 
0

>  <hydroph_interaction:ASN:152>  (499) 
0

>  <halogenbond:TYR:150>  (499) 
0

>  <hbond:ASP:83>  (499) 
0

>  <hydroph_interaction:VAL:155>  (499) 
0

>  <pication:TYR:161>  (499) 
0

>  <hbond:PRO:131>  (499) 
0

>  <hbond:LEU:128>  (499) 
0

>  <saltbridge:ASP:129>  (499) 
0

>  <hbond:THR:134>  (499) 
0

>  <pication:HIS:51>  (499) 
0

>  <hbond:SER:81>  (499) 
0

>  <hbond:GLY:159>  (499) 
0

>  <hydroph_interaction:PRO:101>  (499) 
0

>  <hydroph_interaction:THR:134>  (499) 
0

>  <hbond:GLY:82>  (499) 
0

>  <hydroph_interaction:GLU:104>  (499) 
0

>  <hydroph_interaction:VAL:36>  (499) 
0

>  <hydroph_interaction:MET:49>  (499) 
0

>  <halogenbond:GLU:104>  (499) 
0

>  <hydroph_interaction:LYS:107>  (499) 
0

$$$$
Z2974226583
     RDKit          3D

 39 42  0  0  0  0  0  0  0  0999 V2000
   -9.3753    6.6653  -16.7522 C   0  0  0  0  0  0  0  0  0  0  0  0
   -8.7910    6.3372  -17.9838 C   0  0  0  0  0  0  0  0  0  0  0  0
   -7.6566    5.5957  -17.9593 N   0  0  0  0  0  0  0  0  0  0  0  0
   -6.8928    5.1384  -18.9654 C   0  0  0  0  0  0  0  0  0  0  0  0
   -5.8357    4.4257  -18.5073 N   0  0  0  0  0  0  0  0  0  0  0  0
   -5.9563    4.4470  -17.1578 C   0  0  0  0  0  0  0  0  0  0  0  0
   -7.0822    5.1716  -16.8290 C   0  0  0  0  0  0  0  0  0  0  0  0
   -7.6485    5.4861  -15.5890 C   0  0  0  0  0  0  0  0  0  0  0  0
   -7.0557    5.0515  -14.3547 N   0  0  0  0  0  0  0  0  0  0  0  0
   -7.6646    5.3225  -13.0541 C   0  0  0  0  0  0  0  0  0  0  0  0
   -8.8635    4.4000  -12.8225 C   0  0  0  0  0  0  0  0  0  0  0  0
   -9.4766    4.6616  -11.4805 C   0  0  0  0  0  0  0  0  0  0  0  0
   -9.1314    4.1085  -10.2648 C   0  0  0  0  0  0  0  0  0  0  0  0
   -8.1496    3.0071   -9.9932 C   0  0  0  0  0  0  0  0  0  0  0  0
   -7.8189    2.9431   -8.4936 C   0  0  0  0  0  0  0  0  0  0  0  0
   -9.0898    3.0448   -7.6337 C   0  0  0  0  0  0  0  0  0  0  0  0
   -9.8143    4.3781   -7.8824 C   0  0  0  0  0  0  0  0  0  0  0  0
   -9.9126    4.6524   -9.3147 N   0  0  0  0  0  0  0  0  0  0  0  0
  -10.7050    5.5677   -9.8506 N   0  0  0  0  0  0  0  0  0  0  0  0
  -10.4586    5.5904  -11.1780 C   0  0  0  0  0  0  0  0  0  0  0  0
   -8.7930    6.2353  -15.5916 N   0  0  0  0  0  0  0  0  0  0  0  0
  -10.2810    7.2555  -16.7169 H   0  0  0  0  0  0  0  0  0  0  0  0
   -9.2293    6.6633  -18.9187 H   0  0  0  0  0  0  0  0  0  0  0  0
   -7.0940    5.3145  -20.0144 H   0  0  0  0  0  0  0  0  0  0  0  0
   -5.2676    3.9637  -16.4783 H   0  0  0  0  0  0  0  0  0  0  0  0
   -6.1304    4.5674  -14.3680 H   0  0  0  0  0  0  0  0  0  0  0  0
   -6.9093    5.1461  -12.2571 H   0  0  0  0  0  0  0  0  0  0  0  0
   -7.9754    6.3888  -12.9979 H   0  0  0  0  0  0  0  0  0  0  0  0
   -9.6301    4.5651  -13.6091 H   0  0  0  0  0  0  0  0  0  0  0  0
   -8.5362    3.3397  -12.8820 H   0  0  0  0  0  0  0  0  0  0  0  0
   -8.5978    2.0431  -10.3160 H   0  0  0  0  0  0  0  0  0  0  0  0
   -7.2168    3.1765  -10.5720 H   0  0  0  0  0  0  0  0  0  0  0  0
   -7.1292    3.7753   -8.2304 H   0  0  0  0  0  0  0  0  0  0  0  0
   -7.2984    1.9863   -8.2735 H   0  0  0  0  0  0  0  0  0  0  0  0
   -8.8197    2.9664   -6.5586 H   0  0  0  0  0  0  0  0  0  0  0  0
   -9.7711    2.2012   -7.8810 H   0  0  0  0  0  0  0  0  0  0  0  0
   -9.2495    5.2022   -7.3955 H   0  0  0  0  0  0  0  0  0  0  0  0
  -10.8316    4.3370   -7.4374 H   0  0  0  0  0  0  0  0  0  0  0  0
  -10.9556    6.2479  -11.8788 H   0  0  0  0  0  0  0  0  0  0  0  0
  1  2  2  0
  2  3  1  0
  3  4  1  0
  4  5  2  0
  5  6  1  0
  6  7  2  0
  7  8  1  0
  8  9  1  0
  9 10  1  0
 10 11  1  0
 11 12  1  0
 12 13  2  0
 13 14  1  0
 14 15  1  0
 15 16  1  0
 16 17  1  0
 17 18  1  0
 18 19  1  0
 19 20  2  0
  8 21  2  0
 21  1  1  0
  7  3  1  0
 20 12  1  0
 18 13  1  0
  1 22  1  0
  2 23  1  0
  4 24  1  0
  6 25  1  0
  9 26  1  0
 10 27  1  0
 10 28  1  0
 11 29  1  0
 11 30  1  0
 14 31  1  0
 14 32  1  0
 15 33  1  0
 15 34  1  0
 16 35  1  0
 16 36  1  0
 17 37  1  0
 17 38  1  0
 20 39  1  0
A    1
 C1 
A    2
 C2 
A    3
 N1 
A    4
 C3 
A    5
 N2 
A    6
 C4 
A    7
 C5 
A    8
 C6 
A    9
 N3 
A   10
 C7 
A   11
 C8 
A   12
 C9 
A   13
 C10
A   14
 C11
A   15
 C12
A   16
 C13
A   17
 C14
A   18
 N4 
A   19
 N5 
A   20
 C15
A   21
 N6 
A   22
 H1 
A   23
 H2 
A   24
 H3 
A   25
 H4 
A   26
 H5 
A   27
 H6 
A   28
 H7 
A   29
 H8 
A   30
 H9 
A   31
 H10
A   32
 H11
A   33
 H12
A   34
 H13
A   35
 H14
A   36
 H15
A   37
 H16
A   38
 H17
A   39
 H18
M  END
>  <ref_pdb>  (500) 
x0051_0B

>  <ref_mols>  (500) 
x0435_0B,x0969_1B

>  <original SMILES>  (500) 
[H]c1nn2c(c1C([H])([H])C([H])([H])N([H])c1nc([H])c([H])n3c([H])nc([H])c13)C([H])([H])C([H])([H])C([H])([H])C2([H])[H]

>  <index>  (500) 
693

>  <∆∆G>  (500) 
-5.237142

>  <∆G_bound>  (500) 
-4.218083

>  <∆G_unbound>  (500) 
1.019059

>  <comRMSD>  (500) 
0.406083

>  <N_constrained_atoms>  (500) 
20.0

>  <N_unconstrained_atoms>  (500) 
2.0

>  <runtime>  (500) 
47.987917

>  <LE>  (500) 
0.238052

>  <percent_hybrid>  (500) 
50.0

>  <dist>  (500) 
5.0

>  <ecfp4>  (500) 
0.24359

>  <daylight>  (500) 
0.268786

>  <topodist>  (500) 
1.0

>  <mces>  (500) 
24.0

>  <tdn>  (500) 
1.0

>  <tup>  (500) 
0.0

>  <rdn>  (500) 
0.0

>  <rup>  (500) 
0.0

>  <ldn>  (500) 
0.0

>  <lup>  (500) 
0.0

>  <mut>  (500) 
4.0

>  <maj>  (500) 
4.0

>  <min>  (500) 
0.0

>  <hyb>  (500) 
0.0

>  <sub>  (500) 
1.0

>  <query_index>  (500) 
311.0

>  <max_hit_Tanimoto>  (500) 
0.302718

>  <largest_ring>  (500) 
6

>  <N_interactions_kept>  (500) 
2.5

>  <N_interactions_lost>  (500) 
1.0

>  <interaction_uniqueness_metric>  (500) 
0.131133

>  <ad_hoc_penalty>  (500) 
-17.375964

>  <N_rotatable_bonds>  (500) 
4

>  <N_HA>  (500) 
21

>  <cluster>  (500) 
5583

>  <N_interactions>  (500) 
4

>  <Enamine>  (500) 
1

>  <Mcule>  (500) 
0

>  <N_PAINS>  (500) 
0

>  <UFF_Gibbs>  (500) 
49.73829

>  <strain_per_HA>  (500) 
2.260831

>  <saltbridge:HIS:51>  (500) 
0

>  <pistack:HIS:51>  (500) 
1

>  <hydroph_interaction:HIS:51>  (500) 
0

>  <hbond:ALA:132>  (500) 
0

>  <hbond:SER:135>  (500) 
0

>  <hydroph_interaction:TYR:150>  (500) 
0

>  <pistack:TYR:161>  (500) 
2

>  <hydroph_interaction:TYR:161>  (500) 
0

>  <hydroph_interaction:ASP:83>  (500) 
1

>  <hbond:TYR:130>  (500) 
0

>  <hydroph_interaction:ALA:132>  (500) 
0

>  <hbond:HIS:51>  (500) 
0

>  <hbond:ASP:129>  (500) 
0

>  <hbond:TYR:150>  (500) 
0

>  <hbond:GLY:151>  (500) 
0

>  <hbond:TYR:161>  (500) 
0

>  <hydroph_interaction:TYR:130>  (500) 
0

>  <hydroph_interaction:PRO:131>  (500) 
0

>  <hydroph_interaction:ASP:129>  (500) 
0

>  <saltbridge:ASP:75>  (500) 
0

>  <saltbridge:ASP:83>  (500) 
0

>  <hydroph_interaction:ASN:152>  (500) 
0

>  <halogenbond:TYR:150>  (500) 
0

>  <hbond:ASP:83>  (500) 
0

>  <hydroph_interaction:VAL:155>  (500) 
0

>  <pication:TYR:161>  (500) 
0

>  <hbond:PRO:131>  (500) 
0

>  <hbond:LEU:128>  (500) 
0

>  <saltbridge:ASP:129>  (500) 
0

>  <hbond:THR:134>  (500) 
0

>  <pication:HIS:51>  (500) 
0

>  <hbond:SER:81>  (500) 
0

>  <hbond:GLY:159>  (500) 
0

>  <hydroph_interaction:PRO:101>  (500) 
0

>  <hydroph_interaction:THR:134>  (500) 
0

>  <hbond:GLY:82>  (500) 
0

>  <hydroph_interaction:GLU:104>  (500) 
0

>  <hydroph_interaction:VAL:36>  (500) 
0

>  <hydroph_interaction:MET:49>  (500) 
0

>  <halogenbond:GLU:104>  (500) 
0

>  <hydroph_interaction:LYS:107>  (500) 
0

$$$$
