untitled-dbase-3867_68
  -OEChem-10092318153D

 35 36  0     0  0  0  0  0  0999 V2000
   -8.6791    0.2367  -15.2532 C   0  0  0  0  0  0  0  0  0  0  0  0
   -9.3176   -2.6052  -17.5808 C   0  0  0  0  0  0  0  0  0  0  0  0
   -7.1717   -1.5830  -18.1771 C   0  0  0  0  0  0  0  0  0  0  0  0
   -8.9683   -2.1179  -16.1753 C   0  0  0  0  0  0  0  0  0  0  0  0
   -7.7359   -0.3746  -17.4408 C   0  0  0  0  0  0  0  0  0  0  0  0
   -9.8734    0.6843  -13.1505 C   0  0  0  0  0  0  0  0  0  0  0  0
   -8.2716   -1.2109  -13.1988 C   0  0  0  0  0  0  0  0  0  0  0  0
  -10.3979   -0.0546  -11.9238 C   0  0  0  0  0  0  0  0  0  0  0  0
   -8.0743   -0.8286  -11.7299 C   0  0  0  0  0  0  0  0  0  0  0  0
   -9.7588   -1.5214  -10.1209 C   0  0  0  0  0  0  0  0  0  0  0  0
   -8.1955   -2.5705  -18.5174 N   0  0  0  0  0  0  0  0  0  0  0  0
   -8.4049   -0.7621  -16.1983 N   0  0  0  0  0  0  0  0  0  0  0  0
   -8.9786   -0.1603  -13.9424 N   0  0  0  0  0  0  0  0  0  0  0  0
   -9.3118   -0.4680  -11.0277 N   0  0  0  0  0  0  0  0  0  0  0  0
   -8.6582    1.4350  -15.5674 O   0  0  0  0  0  0  0  0  0  0  0  0
   -9.6984   -3.6410  -17.5222 H   0  0  0  0  0  0  0  0  0  0  0  0
  -10.1564   -2.0091  -17.9884 H   0  0  0  0  0  0  0  0  0  0  0  0
   -6.6438   -1.2632  -19.0932 H   0  0  0  0  0  0  0  0  0  0  0  0
   -6.4075   -2.0704  -17.5484 H   0  0  0  0  0  0  0  0  0  0  0  0
   -9.8617   -2.1327  -15.5403 H   0  0  0  0  0  0  0  0  0  0  0  0
   -8.2223   -2.7729  -15.7070 H   0  0  0  0  0  0  0  0  0  0  0  0
   -6.9189    0.3049  -17.1543 H   0  0  0  0  0  0  0  0  0  0  0  0
   -8.3864    0.2174  -18.0919 H   0  0  0  0  0  0  0  0  0  0  0  0
  -10.7111    1.0186  -13.7743 H   0  0  0  0  0  0  0  0  0  0  0  0
   -9.3064    1.5779  -12.8581 H   0  0  0  0  0  0  0  0  0  0  0  0
   -7.2941   -1.3308  -13.6871 H   0  0  0  0  0  0  0  0  0  0  0  0
   -8.7633   -2.1823  -13.2916 H   0  0  0  0  0  0  0  0  0  0  0  0
  -11.0858    0.6150  -11.3874 H   0  0  0  0  0  0  0  0  0  0  0  0
  -10.9888   -0.9259  -12.2473 H   0  0  0  0  0  0  0  0  0  0  0  0
   -7.5521   -1.6588  -11.2023 H   0  0  0  0  0  0  0  0  0  0  0  0
   -7.3683    0.0292  -11.6947 H   0  0  0  0  0  0  0  0  0  0  0  0
   -8.9291   -1.8140   -9.4606 H   0  0  0  0  0  0  0  0  0  0  0  0
  -10.5975   -1.1506   -9.5134 H   0  0  0  0  0  0  0  0  0  0  0  0
  -10.0869   -2.3935  -10.7056 H   0  0  0  0  0  0  0  0  0  0  0  0
   -7.7571   -3.5038  -18.5369 H   0  0  0  0  0  0  0  0  0  0  0  0
  1 12  1  0  0  0  0
  1 13  1  0  0  0  0
  1 15  2  0  0  0  0
  2  4  1  0  0  0  0
  2 11  1  0  0  0  0
  3  5  1  0  0  0  0
  3 11  1  0  0  0  0
  4 12  1  0  0  0  0
  5 12  1  0  0  0  0
  6  8  1  0  0  0  0
  6 13  1  0  0  0  0
  7  9  1  0  0  0  0
  7 13  1  0  0  0  0
  8 14  1  0  0  0  0
  9 14  1  0  0  0  0
 10 14  1  0  0  0  0
  2 16  1  0  0  0  0
  2 17  1  0  0  0  0
  3 18  1  0  0  0  0
  3 19  1  0  0  0  0
  4 20  1  0  0  0  0
  4 21  1  0  0  0  0
  5 22  1  0  0  0  0
  5 23  1  0  0  0  0
  6 24  1  0  0  0  0
  6 25  1  0  0  0  0
  7 26  1  0  0  0  0
  7 27  1  0  0  0  0
  8 28  1  0  0  0  0
  8 29  1  0  0  0  0
  9 30  1  0  0  0  0
  9 31  1  0  0  0  0
 10 32  1  0  0  0  0
 10 33  1  0  0  0  0
 10 34  1  0  0  0  0
 11 35  1  0  0  0  0
M  END
> <id>
EN300-145860

> <smiles>
CN1CCN(CC1)C(=O)N2CCNCC2

> <MDLNUMBER>
MFCD09045935

> <IUPAC Name>
1-methyl-4-(piperazine-1-carbonyl)piperazine

> <CAS>
205061-56-9

> <URL>
https://www.enaminestore.com/catalog/EN300-145860

> <ROCS_ShapeQuery>
amalgated

> <ROCS_TanimotoCombo>
1.016 

> <ROCS_ShapeTanimoto>
0.579 

> <ROCS_ColorTanimoto>
0.437 

> <ROCS_RefTversky>
0.524 

> <ROCS_RefColorTversky>
0.569 

> <ROCS_RefTverskyCombo>
1.093 

> <ROCS_FitTversky>
1.222 

> <ROCS_FitColorTversky>
0.654 

> <ROCS_FitTverskyCombo>
1.876 

> <ROCS_ColorScore>
-3.956

> <ROCS_Overlap>
858.044

> <ROCS_Rank>
1                   

$$$$
untitled-dbase-15135_68
  -OEChem-10092318153D

 35 36  0     0  0  0  0  0  0999 V2000
   -8.6791    0.2367  -15.2532 C   0  0  0  0  0  0  0  0  0  0  0  0
   -9.3176   -2.6052  -17.5808 C   0  0  0  0  0  0  0  0  0  0  0  0
   -7.1717   -1.5830  -18.1771 C   0  0  0  0  0  0  0  0  0  0  0  0
   -8.9683   -2.1179  -16.1753 C   0  0  0  0  0  0  0  0  0  0  0  0
   -7.7359   -0.3746  -17.4408 C   0  0  0  0  0  0  0  0  0  0  0  0
   -9.8734    0.6843  -13.1505 C   0  0  0  0  0  0  0  0  0  0  0  0
   -8.2716   -1.2109  -13.1988 C   0  0  0  0  0  0  0  0  0  0  0  0
  -10.3979   -0.0546  -11.9238 C   0  0  0  0  0  0  0  0  0  0  0  0
   -8.0743   -0.8286  -11.7299 C   0  0  0  0  0  0  0  0  0  0  0  0
   -9.7588   -1.5214  -10.1209 C   0  0  0  0  0  0  0  0  0  0  0  0
   -8.1955   -2.5705  -18.5174 N   0  0  0  0  0  0  0  0  0  0  0  0
   -8.4049   -0.7621  -16.1983 N   0  0  0  0  0  0  0  0  0  0  0  0
   -8.9786   -0.1603  -13.9424 N   0  0  0  0  0  0  0  0  0  0  0  0
   -9.3118   -0.4680  -11.0277 N   0  0  0  0  0  0  0  0  0  0  0  0
   -8.6582    1.4350  -15.5674 O   0  0  0  0  0  0  0  0  0  0  0  0
   -9.6984   -3.6410  -17.5222 H   0  0  0  0  0  0  0  0  0  0  0  0
  -10.1564   -2.0091  -17.9884 H   0  0  0  0  0  0  0  0  0  0  0  0
   -6.6438   -1.2632  -19.0932 H   0  0  0  0  0  0  0  0  0  0  0  0
   -6.4075   -2.0704  -17.5484 H   0  0  0  0  0  0  0  0  0  0  0  0
   -9.8617   -2.1327  -15.5403 H   0  0  0  0  0  0  0  0  0  0  0  0
   -8.2223   -2.7729  -15.7070 H   0  0  0  0  0  0  0  0  0  0  0  0
   -6.9189    0.3049  -17.1543 H   0  0  0  0  0  0  0  0  0  0  0  0
   -8.3864    0.2174  -18.0919 H   0  0  0  0  0  0  0  0  0  0  0  0
  -10.7111    1.0186  -13.7743 H   0  0  0  0  0  0  0  0  0  0  0  0
   -9.3064    1.5779  -12.8581 H   0  0  0  0  0  0  0  0  0  0  0  0
   -7.2941   -1.3308  -13.6871 H   0  0  0  0  0  0  0  0  0  0  0  0
   -8.7633   -2.1823  -13.2916 H   0  0  0  0  0  0  0  0  0  0  0  0
  -11.0858    0.6150  -11.3874 H   0  0  0  0  0  0  0  0  0  0  0  0
  -10.9888   -0.9259  -12.2473 H   0  0  0  0  0  0  0  0  0  0  0  0
   -7.5521   -1.6588  -11.2023 H   0  0  0  0  0  0  0  0  0  0  0  0
   -7.3683    0.0292  -11.6947 H   0  0  0  0  0  0  0  0  0  0  0  0
   -8.9291   -1.8140   -9.4606 H   0  0  0  0  0  0  0  0  0  0  0  0
  -10.5975   -1.1506   -9.5134 H   0  0  0  0  0  0  0  0  0  0  0  0
  -10.0869   -2.3935  -10.7056 H   0  0  0  0  0  0  0  0  0  0  0  0
   -7.7571   -3.5038  -18.5369 H   0  0  0  0  0  0  0  0  0  0  0  0
  1 12  1  0  0  0  0
  1 13  1  0  0  0  0
  1 15  2  0  0  0  0
  2  4  1  0  0  0  0
  2 11  1  0  0  0  0
  3  5  1  0  0  0  0
  3 11  1  0  0  0  0
  4 12  1  0  0  0  0
  5 12  1  0  0  0  0
  6  8  1  0  0  0  0
  6 13  1  0  0  0  0
  7  9  1  0  0  0  0
  7 13  1  0  0  0  0
  8 14  1  0  0  0  0
  9 14  1  0  0  0  0
 10 14  1  0  0  0  0
  2 16  1  0  0  0  0
  2 17  1  0  0  0  0
  3 18  1  0  0  0  0
  3 19  1  0  0  0  0
  4 20  1  0  0  0  0
  4 21  1  0  0  0  0
  5 22  1  0  0  0  0
  5 23  1  0  0  0  0
  6 24  1  0  0  0  0
  6 25  1  0  0  0  0
  7 26  1  0  0  0  0
  7 27  1  0  0  0  0
  8 28  1  0  0  0  0
  8 29  1  0  0  0  0
  9 30  1  0  0  0  0
  9 31  1  0  0  0  0
 10 32  1  0  0  0  0
 10 33  1  0  0  0  0
 10 34  1  0  0  0  0
 11 35  1  0  0  0  0
M  END
> <id>
EN300-69642

> <smiles>
Cl.Cl.CN1CCN(CC1)C(=O)N2CCNCC2

> <MDLNUMBER>
MFCD18089380

> <IUPAC Name>
1-methyl-4-(piperazine-1-carbonyl)piperazine dihydrochloride

> <CAS>
1305711-94-7

> <Purity>
95

> <URL>
https://www.enaminestore.com/catalog/EN300-69642

> <Saltdate>
Cl

> <ROCS_ShapeQuery>
amalgated

> <ROCS_TanimotoCombo>
1.016 

> <ROCS_ShapeTanimoto>
0.579 

> <ROCS_ColorTanimoto>
0.437 

> <ROCS_RefTversky>
0.524 

> <ROCS_RefColorTversky>
0.569 

> <ROCS_RefTverskyCombo>
1.093 

> <ROCS_FitTversky>
1.222 

> <ROCS_FitColorTversky>
0.654 

> <ROCS_FitTverskyCombo>
1.876 

> <ROCS_ColorScore>
-3.956

> <ROCS_Overlap>
858.044

> <ROCS_Rank>
2                   

$$$$
untitled-dbase-27125_8
  -OEChem-10092318153D

 38 41  0     0  0  0  0  0  0999 V2000
   -5.4831    2.8413  -17.9985 C   0  0  0  0  0  0  0  0  0  0  0  0
   -6.2236    2.5894  -19.1507 C   0  0  0  0  0  0  0  0  0  0  0  0
   -5.9455    2.3960  -16.7577 C   0  0  0  0  0  0  0  0  0  0  0  0
   -7.4223    1.8871  -19.0632 C   0  0  0  0  0  0  0  0  0  0  0  0
   -9.2803   -1.5689  -18.2513 C   0  0  0  0  0  0  0  0  0  0  0  0
   -9.1688   -2.9037  -17.8678 C   0  0  0  0  0  0  0  0  0  0  0  0
   -8.3704   -2.2124  -15.6916 C   0  0  0  0  0  0  0  0  0  0  0  0
   -8.4818   -0.8680  -16.0687 C   0  0  0  0  0  0  0  0  0  0  0  0
   -7.1444    1.6785  -16.6498 C   0  0  0  0  0  0  0  0  0  0  0  0
   -8.9204   -0.5559  -17.3581 C   0  0  0  0  0  0  0  0  0  0  0  0
   -7.8673    1.4261  -17.8204 C   0  0  0  0  0  0  0  0  0  0  0  0
   -8.7091   -3.2249  -16.5919 C   0  0  0  0  0  0  0  0  0  0  0  0
   -8.1814    0.2045  -15.0748 C   0  0  0  0  0  0  0  0  0  0  0  0
   -9.7504    0.9431  -11.9192 C   0  0  0  0  0  0  0  0  0  0  0  0
   -7.7135   -0.2709  -11.5363 C   0  0  0  0  0  0  0  0  0  0  0  0
   -9.8691    0.3723  -13.3322 C   0  0  0  0  0  0  0  0  0  0  0  0
   -7.7686   -0.8793  -12.9375 C   0  0  0  0  0  0  0  0  0  0  0  0
   -7.5906    1.3337  -15.3656 N   0  0  0  0  0  0  0  0  0  0  0  0
   -9.0532    0.0209  -11.0185 N   0  0  0  0  0  0  0  0  0  0  0  0
   -8.5499   -0.0206  -13.8276 N   0  0  0  0  0  0  0  0  0  0  0  0
   -9.0571    0.7390  -17.7946 O   0  0  0  0  0  0  0  0  0  0  0  0
   -8.5671   -4.8748  -16.1218 Cl  0  0  0  0  0  0  0  0  0  0  0  0
   -4.5503    3.3941  -18.0624 H   0  0  0  0  0  0  0  0  0  0  0  0
   -5.8685    2.9428  -20.1142 H   0  0  0  0  0  0  0  0  0  0  0  0
   -5.3634    2.6219  -15.8669 H   0  0  0  0  0  0  0  0  0  0  0  0
   -8.0002    1.6931  -19.9626 H   0  0  0  0  0  0  0  0  0  0  0  0
   -9.6376   -1.3238  -19.2478 H   0  0  0  0  0  0  0  0  0  0  0  0
   -9.4427   -3.6833  -18.5742 H   0  0  0  0  0  0  0  0  0  0  0  0
   -8.0149   -2.4788  -14.6986 H   0  0  0  0  0  0  0  0  0  0  0  0
   -9.1956    1.8872  -11.9544 H   0  0  0  0  0  0  0  0  0  0  0  0
  -10.7433    1.1795  -11.5170 H   0  0  0  0  0  0  0  0  0  0  0  0
   -7.1844   -0.9418  -10.8483 H   0  0  0  0  0  0  0  0  0  0  0  0
   -7.1376    0.6606  -11.5679 H   0  0  0  0  0  0  0  0  0  0  0  0
  -10.5608   -0.4795  -13.3185 H   0  0  0  0  0  0  0  0  0  0  0  0
  -10.2914    1.1199  -14.0167 H   0  0  0  0  0  0  0  0  0  0  0  0
   -6.7577   -0.9856  -13.3531 H   0  0  0  0  0  0  0  0  0  0  0  0
   -8.1990   -1.8869  -12.8750 H   0  0  0  0  0  0  0  0  0  0  0  0
   -8.9635    0.4605  -10.1021 H   0  0  0  0  0  0  0  0  0  0  0  0
  1  2  2  0  0  0  0
  1  3  1  0  0  0  0
  2  4  1  0  0  0  0
  3  9  2  0  0  0  0
  4 11  2  0  0  0  0
  5  6  1  0  0  0  0
  5 10  2  0  0  0  0
  6 12  2  0  0  0  0
  7  8  2  0  0  0  0
  7 12  1  0  0  0  0
  8 10  1  0  0  0  0
  8 13  1  0  0  0  0
  9 11  1  0  0  0  0
  9 18  1  0  0  0  0
 10 21  1  0  0  0  0
 11 21  1  0  0  0  0
 12 22  1  0  0  0  0
 13 18  2  0  0  0  0
 13 20  1  0  0  0  0
 14 16  1  0  0  0  0
 14 19  1  0  0  0  0
 15 17  1  0  0  0  0
 15 19  1  0  0  0  0
 16 20  1  0  0  0  0
 17 20  1  0  0  0  0
  1 23  1  0  0  0  0
  2 24  1  0  0  0  0
  3 25  1  0  0  0  0
  4 26  1  0  0  0  0
  5 27  1  0  0  0  0
  6 28  1  0  0  0  0
  7 29  1  0  0  0  0
 14 30  1  0  0  0  0
 14 31  1  0  0  0  0
 15 32  1  0  0  0  0
 15 33  1  0  0  0  0
 16 34  1  0  0  0  0
 16 35  1  0  0  0  0
 17 36  1  0  0  0  0
 17 37  1  0  0  0  0
 19 38  1  0  0  0  0
M  END
> <id>
EN300-123014

> <smiles>
ClC=1C=CC=2OC=3C=CC=CC3N=C(N4CCNCC4)C2C1

> <MDLNUMBER>
MFCD00069210

> <IUPAC Name>
13-chloro-10-(piperazin-1-yl)-2-oxa-9-azatricyclo[9.4.0.0,3,8]pentadeca-1(11),3(8),4,6,9,12,14-heptaene

> <CAS>
14028-44-5

> <URL>
https://www.enaminestore.com/catalog/EN300-123014

> <MP>
178-180

> <ROCS_ShapeQuery>
amalgated

> <ROCS_TanimotoCombo>
0.993 

> <ROCS_ShapeTanimoto>
0.649 

> <ROCS_ColorTanimoto>
0.343 

> <ROCS_RefTversky>
0.644 

> <ROCS_RefColorTversky>
0.544 

> <ROCS_RefTverskyCombo>
1.188 

> <ROCS_FitTversky>
1.013 

> <ROCS_FitColorTversky>
0.482 

> <ROCS_FitTverskyCombo>
1.495 

> <ROCS_ColorScore>
-3.836

> <ROCS_Overlap>
1066.579

> <ROCS_Rank>
3                   

$$$$
untitled-dbase-53288_91
  -OEChem-10092318153D

 48 50  0     0  0  0  0  0  0999 V2000
   -5.9945    2.7726  -18.8081 C   0  0  0  0  0  0  0  0  0  0  0  0
   -6.4954    1.7468  -19.5982 C   0  0  0  0  0  0  0  0  0  0  0  0
   -6.2841    2.7962  -17.4475 C   0  0  0  0  0  0  0  0  0  0  0  0
   -7.2888    0.7482  -19.0293 C   0  0  0  0  0  0  0  0  0  0  0  0
   -7.0806    1.7958  -16.8618 C   0  0  0  0  0  0  0  0  0  0  0  0
   -7.6055    0.7531  -17.6580 C   0  0  0  0  0  0  0  0  0  0  0  0
   -8.1897    0.4832  -13.4840 C   0  0  0  0  0  0  0  0  0  0  0  0
   -7.3376    1.8921  -15.3786 C   0  0  0  0  0  0  0  0  0  0  0  0
   -9.5988   -0.8940  -17.9415 C   0  0  0  0  0  0  0  0  0  0  0  0
   -7.5453   -1.5269  -16.5814 C   0  0  0  0  0  0  0  0  0  0  0  0
   -9.4073   -2.3550  -18.3673 C   0  0  0  0  0  0  0  0  0  0  0  0
   -7.0575   -2.3929  -17.7499 C   0  0  0  0  0  0  0  0  0  0  0  0
   -9.1517    0.2451  -15.7581 C   0  0  0  0  0  0  0  0  0  0  0  0
   -8.4634   -0.3514  -17.0144 C   0  0  0  0  0  0  0  0  0  0  0  0
  -10.4174    0.7548  -11.7091 C   0  0  0  0  0  0  0  0  0  0  0  0
  -10.5690   -1.7503  -11.8121 C   0  0  0  0  0  0  0  0  0  0  0  0
   -8.5104   -0.6595  -10.8738 C   0  0  0  0  0  0  0  0  0  0  0  0
   -9.6362   -0.5444  -11.9005 C   0  0  0  0  0  0  0  0  0  0  0  0
   -8.0451   -2.6110  -18.8044 N   0  0  0  0  0  0  0  0  0  0  0  0
   -8.1849    0.8326  -14.8388 N   0  0  0  0  0  0  0  0  0  0  0  0
   -7.4947    1.0216  -12.6245 O   0  0  0  0  0  0  0  0  0  0  0  0
   -9.0592   -0.5403  -13.2113 O   0  0  0  0  0  0  0  0  0  0  0  0
   -5.3715    3.5460  -19.2468 H   0  0  0  0  0  0  0  0  0  0  0  0
   -6.2667    1.7173  -20.6598 H   0  0  0  0  0  0  0  0  0  0  0  0
   -5.8775    3.5981  -16.8354 H   0  0  0  0  0  0  0  0  0  0  0  0
   -7.6402   -0.0432  -19.6849 H   0  0  0  0  0  0  0  0  0  0  0  0
   -6.3752    1.8993  -14.8475 H   0  0  0  0  0  0  0  0  0  0  0  0
   -7.8466    2.8430  -15.1609 H   0  0  0  0  0  0  0  0  0  0  0  0
   -9.6669   -0.3041  -18.8660 H   0  0  0  0  0  0  0  0  0  0  0  0
  -10.5764   -0.7798  -17.4485 H   0  0  0  0  0  0  0  0  0  0  0  0
   -8.0513   -2.1689  -15.8458 H   0  0  0  0  0  0  0  0  0  0  0  0
   -6.6586   -1.1314  -16.0615 H   0  0  0  0  0  0  0  0  0  0  0  0
   -9.6916   -3.0418  -17.5596 H   0  0  0  0  0  0  0  0  0  0  0  0
  -10.0900   -2.5672  -19.2005 H   0  0  0  0  0  0  0  0  0  0  0  0
   -6.1726   -1.9018  -18.2017 H   0  0  0  0  0  0  0  0  0  0  0  0
   -6.6782   -3.3674  -17.3799 H   0  0  0  0  0  0  0  0  0  0  0  0
   -9.8402    1.0540  -16.0420 H   0  0  0  0  0  0  0  0  0  0  0  0
   -9.7574   -0.4967  -15.2293 H   0  0  0  0  0  0  0  0  0  0  0  0
   -9.7514    1.6228  -11.7718 H   0  0  0  0  0  0  0  0  0  0  0  0
  -11.2055    0.8661  -12.4609 H   0  0  0  0  0  0  0  0  0  0  0  0
  -10.8792    0.7907  -10.7157 H   0  0  0  0  0  0  0  0  0  0  0  0
  -10.0127   -2.6847  -11.9488 H   0  0  0  0  0  0  0  0  0  0  0  0
  -11.3222   -1.7203  -12.6077 H   0  0  0  0  0  0  0  0  0  0  0  0
  -11.0850   -1.7921  -10.8474 H   0  0  0  0  0  0  0  0  0  0  0  0
   -7.9499   -1.5913  -11.0108 H   0  0  0  0  0  0  0  0  0  0  0  0
   -7.8102    0.1790  -10.9473 H   0  0  0  0  0  0  0  0  0  0  0  0
   -8.9136   -0.6882   -9.8550 H   0  0  0  0  0  0  0  0  0  0  0  0
   -7.9702   -3.5770  -19.1392 H   0  0  0  0  0  0  0  0  0  0  0  0
  1  2  2  0  0  0  0
  1  3  1  0  0  0  0
  2  4  1  0  0  0  0
  3  5  2  0  0  0  0
  4  6  2  0  0  0  0
  5  6  1  0  0  0  0
  5  8  1  0  0  0  0
  6 14  1  0  0  0  0
  7 20  1  0  0  0  0
  7 21  2  0  0  0  0
  7 22  1  0  0  0  0
  8 20  1  0  0  0  0
  9 11  1  0  0  0  0
  9 14  1  0  0  0  0
 10 12  1  0  0  0  0
 10 14  1  0  0  0  0
 11 19  1  0  0  0  0
 12 19  1  0  0  0  0
 13 14  1  0  0  0  0
 13 20  1  0  0  0  0
 15 18  1  0  0  0  0
 16 18  1  0  0  0  0
 17 18  1  0  0  0  0
 18 22  1  0  0  0  0
  1 23  1  0  0  0  0
  2 24  1  0  0  0  0
  3 25  1  0  0  0  0
  4 26  1  0  0  0  0
  8 27  1  0  0  0  0
  8 28  1  0  0  0  0
  9 29  1  0  0  0  0
  9 30  1  0  0  0  0
 10 31  1  0  0  0  0
 10 32  1  0  0  0  0
 11 33  1  0  0  0  0
 11 34  1  0  0  0  0
 12 35  1  0  0  0  0
 12 36  1  0  0  0  0
 13 37  1  0  0  0  0
 13 38  1  0  0  0  0
 15 39  1  0  0  0  0
 15 40  1  0  0  0  0
 15 41  1  0  0  0  0
 16 42  1  0  0  0  0
 16 43  1  0  0  0  0
 16 44  1  0  0  0  0
 17 45  1  0  0  0  0
 17 46  1  0  0  0  0
 17 47  1  0  0  0  0
 19 48  1  0  0  0  0
M  END
> <id>
EN300-7363662

> <smiles>
Cl.CC(C)(C)OC(=O)N1CC=2C=CC=CC2C3(CCNCC3)C1

> <MDLNUMBER>
MFCD11519417

> <IUPAC Name>
tert-butyl 2,3-dihydro-1H-spiro[isoquinoline-4,4'-piperidine]-2-carboxylate hydrochloride

> <CAS>
889139-52-0

> <Purity>
95

> <URL>
https://www.enaminestore.com/catalog/EN300-7363662

> <Saltdate>
Cl

> <ROCS_ShapeQuery>
amalgated

> <ROCS_TanimotoCombo>
0.991 

> <ROCS_ShapeTanimoto>
0.660 

> <ROCS_ColorTanimoto>
0.331 

> <ROCS_RefTversky>
0.642 

> <ROCS_RefColorTversky>
0.498 

> <ROCS_RefTverskyCombo>
1.140 

> <ROCS_FitTversky>
1.044 

> <ROCS_FitColorTversky>
0.497 

> <ROCS_FitTverskyCombo>
1.541 

> <ROCS_ColorScore>
-3.483

> <ROCS_Overlap>
1062.477

> <ROCS_Rank>
4                   

$$$$
untitled-dbase-53174_91
  -OEChem-10092318153D

 48 50  0     0  0  0  0  0  0999 V2000
   -5.9945    2.7726  -18.8081 C   0  0  0  0  0  0  0  0  0  0  0  0
   -6.4954    1.7468  -19.5982 C   0  0  0  0  0  0  0  0  0  0  0  0
   -6.2841    2.7962  -17.4475 C   0  0  0  0  0  0  0  0  0  0  0  0
   -7.2888    0.7482  -19.0293 C   0  0  0  0  0  0  0  0  0  0  0  0
   -7.0806    1.7958  -16.8618 C   0  0  0  0  0  0  0  0  0  0  0  0
   -7.6055    0.7531  -17.6580 C   0  0  0  0  0  0  0  0  0  0  0  0
   -8.1897    0.4832  -13.4840 C   0  0  0  0  0  0  0  0  0  0  0  0
   -7.3376    1.8921  -15.3786 C   0  0  0  0  0  0  0  0  0  0  0  0
   -9.5988   -0.8940  -17.9415 C   0  0  0  0  0  0  0  0  0  0  0  0
   -7.5453   -1.5269  -16.5814 C   0  0  0  0  0  0  0  0  0  0  0  0
   -9.4073   -2.3550  -18.3673 C   0  0  0  0  0  0  0  0  0  0  0  0
   -7.0575   -2.3929  -17.7499 C   0  0  0  0  0  0  0  0  0  0  0  0
   -9.1517    0.2451  -15.7581 C   0  0  0  0  0  0  0  0  0  0  0  0
   -8.4634   -0.3514  -17.0144 C   0  0  0  0  0  0  0  0  0  0  0  0
  -10.4174    0.7548  -11.7091 C   0  0  0  0  0  0  0  0  0  0  0  0
  -10.5690   -1.7503  -11.8121 C   0  0  0  0  0  0  0  0  0  0  0  0
   -8.5104   -0.6595  -10.8738 C   0  0  0  0  0  0  0  0  0  0  0  0
   -9.6362   -0.5444  -11.9005 C   0  0  0  0  0  0  0  0  0  0  0  0
   -8.0451   -2.6110  -18.8044 N   0  0  0  0  0  0  0  0  0  0  0  0
   -8.1849    0.8326  -14.8388 N   0  0  0  0  0  0  0  0  0  0  0  0
   -7.4947    1.0216  -12.6245 O   0  0  0  0  0  0  0  0  0  0  0  0
   -9.0592   -0.5403  -13.2113 O   0  0  0  0  0  0  0  0  0  0  0  0
   -5.3715    3.5460  -19.2468 H   0  0  0  0  0  0  0  0  0  0  0  0
   -6.2667    1.7173  -20.6598 H   0  0  0  0  0  0  0  0  0  0  0  0
   -5.8775    3.5981  -16.8354 H   0  0  0  0  0  0  0  0  0  0  0  0
   -7.6402   -0.0432  -19.6849 H   0  0  0  0  0  0  0  0  0  0  0  0
   -6.3752    1.8993  -14.8475 H   0  0  0  0  0  0  0  0  0  0  0  0
   -7.8466    2.8430  -15.1609 H   0  0  0  0  0  0  0  0  0  0  0  0
   -9.6669   -0.3041  -18.8660 H   0  0  0  0  0  0  0  0  0  0  0  0
  -10.5764   -0.7798  -17.4485 H   0  0  0  0  0  0  0  0  0  0  0  0
   -8.0513   -2.1689  -15.8458 H   0  0  0  0  0  0  0  0  0  0  0  0
   -6.6586   -1.1314  -16.0615 H   0  0  0  0  0  0  0  0  0  0  0  0
   -9.6916   -3.0418  -17.5596 H   0  0  0  0  0  0  0  0  0  0  0  0
  -10.0900   -2.5672  -19.2005 H   0  0  0  0  0  0  0  0  0  0  0  0
   -6.1726   -1.9018  -18.2017 H   0  0  0  0  0  0  0  0  0  0  0  0
   -6.6782   -3.3674  -17.3799 H   0  0  0  0  0  0  0  0  0  0  0  0
   -9.8402    1.0540  -16.0420 H   0  0  0  0  0  0  0  0  0  0  0  0
   -9.7574   -0.4967  -15.2293 H   0  0  0  0  0  0  0  0  0  0  0  0
   -9.7514    1.6228  -11.7718 H   0  0  0  0  0  0  0  0  0  0  0  0
  -11.2055    0.8661  -12.4609 H   0  0  0  0  0  0  0  0  0  0  0  0
  -10.8792    0.7907  -10.7157 H   0  0  0  0  0  0  0  0  0  0  0  0
  -10.0127   -2.6847  -11.9488 H   0  0  0  0  0  0  0  0  0  0  0  0
  -11.3222   -1.7203  -12.6077 H   0  0  0  0  0  0  0  0  0  0  0  0
  -11.0850   -1.7921  -10.8474 H   0  0  0  0  0  0  0  0  0  0  0  0
   -7.9499   -1.5913  -11.0108 H   0  0  0  0  0  0  0  0  0  0  0  0
   -7.8102    0.1790  -10.9473 H   0  0  0  0  0  0  0  0  0  0  0  0
   -8.9136   -0.6882   -9.8550 H   0  0  0  0  0  0  0  0  0  0  0  0
   -7.9702   -3.5770  -19.1392 H   0  0  0  0  0  0  0  0  0  0  0  0
  1  2  2  0  0  0  0
  1  3  1  0  0  0  0
  2  4  1  0  0  0  0
  3  5  2  0  0  0  0
  4  6  2  0  0  0  0
  5  6  1  0  0  0  0
  5  8  1  0  0  0  0
  6 14  1  0  0  0  0
  7 20  1  0  0  0  0
  7 21  2  0  0  0  0
  7 22  1  0  0  0  0
  8 20  1  0  0  0  0
  9 11  1  0  0  0  0
  9 14  1  0  0  0  0
 10 12  1  0  0  0  0
 10 14  1  0  0  0  0
 11 19  1  0  0  0  0
 12 19  1  0  0  0  0
 13 14  1  0  0  0  0
 13 20  1  0  0  0  0
 15 18  1  0  0  0  0
 16 18  1  0  0  0  0
 17 18  1  0  0  0  0
 18 22  1  0  0  0  0
  1 23  1  0  0  0  0
  2 24  1  0  0  0  0
  3 25  1  0  0  0  0
  4 26  1  0  0  0  0
  8 27  1  0  0  0  0
  8 28  1  0  0  0  0
  9 29  1  0  0  0  0
  9 30  1  0  0  0  0
 10 31  1  0  0  0  0
 10 32  1  0  0  0  0
 11 33  1  0  0  0  0
 11 34  1  0  0  0  0
 12 35  1  0  0  0  0
 12 36  1  0  0  0  0
 13 37  1  0  0  0  0
 13 38  1  0  0  0  0
 15 39  1  0  0  0  0
 15 40  1  0  0  0  0
 15 41  1  0  0  0  0
 16 42  1  0  0  0  0
 16 43  1  0  0  0  0
 16 44  1  0  0  0  0
 17 45  1  0  0  0  0
 17 46  1  0  0  0  0
 17 47  1  0  0  0  0
 19 48  1  0  0  0  0
M  END
> <id>
EN300-3442705

> <smiles>
CC(C)(C)OC(=O)N1CC=2C=CC=CC2C3(CCNCC3)C1

> <MDLNUMBER>
MFCD09959723

> <IUPAC Name>
tert-butyl 2,3-dihydro-1H-spiro[isoquinoline-4,4'-piperidine]-2-carboxylate

> <URL>
https://www.enaminestore.com/catalog/EN300-3442705

> <ROCS_ShapeQuery>
amalgated

> <ROCS_TanimotoCombo>
0.991 

> <ROCS_ShapeTanimoto>
0.660 

> <ROCS_ColorTanimoto>
0.331 

> <ROCS_RefTversky>
0.642 

> <ROCS_RefColorTversky>
0.498 

> <ROCS_RefTverskyCombo>
1.140 

> <ROCS_FitTversky>
1.044 

> <ROCS_FitColorTversky>
0.497 

> <ROCS_FitTverskyCombo>
1.541 

> <ROCS_ColorScore>
-3.483

> <ROCS_Overlap>
1062.477

> <ROCS_Rank>
5                   

$$$$
untitled-dbase-24194_10
  -OEChem-10092318153D

 41 44  0     0  0  0  0  0  0999 V2000
   -5.3881    2.7164  -17.7277 C   0  0  0  0  0  0  0  0  0  0  0  0
   -6.2126    2.8168  -18.8432 C   0  0  0  0  0  0  0  0  0  0  0  0
   -5.8700    2.1324  -16.5559 C   0  0  0  0  0  0  0  0  0  0  0  0
   -7.5169    2.3287  -18.7889 C   0  0  0  0  0  0  0  0  0  0  0  0
   -9.5501   -1.6087  -18.2301 C   0  0  0  0  0  0  0  0  0  0  0  0
   -9.1860   -2.9407  -18.0286 C   0  0  0  0  0  0  0  0  0  0  0  0
   -8.1422   -2.3424  -15.9365 C   0  0  0  0  0  0  0  0  0  0  0  0
   -8.5040   -1.0025  -16.1337 C   0  0  0  0  0  0  0  0  0  0  0  0
   -7.1766    1.6264  -16.4827 C   0  0  0  0  0  0  0  0  0  0  0  0
   -9.2097   -0.6289  -17.2880 C   0  0  0  0  0  0  0  0  0  0  0  0
   -8.0027    1.7343  -17.6155 C   0  0  0  0  0  0  0  0  0  0  0  0
   -8.4800   -3.3062  -16.8856 C   0  0  0  0  0  0  0  0  0  0  0  0
   -8.1818   -0.0228  -15.0518 C   0  0  0  0  0  0  0  0  0  0  0  0
   -9.9258   -0.6698  -13.4708 C   0  0  0  0  0  0  0  0  0  0  0  0
   -7.5097   -0.5398  -12.7626 C   0  0  0  0  0  0  0  0  0  0  0  0
  -10.2856    0.1163  -12.2120 C   0  0  0  0  0  0  0  0  0  0  0  0
   -7.9640    0.2414  -11.5317 C   0  0  0  0  0  0  0  0  0  0  0  0
   -9.4482   -1.3762  -10.4811 C   0  0  0  0  0  0  0  0  0  0  0  0
   -7.6080    1.1376  -15.2370 N   0  0  0  0  0  0  0  0  0  0  0  0
   -8.5224   -0.3857  -13.8230 N   0  0  0  0  0  0  0  0  0  0  0  0
   -9.3371   -0.0596  -11.1035 N   0  0  0  0  0  0  0  0  0  0  0  0
   -9.6604    1.0666  -17.6222 S   0  0  0  0  0  0  0  0  0  0  0  0
   -8.0172   -4.9472  -16.6485 Cl  0  0  0  0  0  0  0  0  0  0  0  0
   -4.3671    3.0843  -17.7707 H   0  0  0  0  0  0  0  0  0  0  0  0
   -5.8415    3.2756  -19.7548 H   0  0  0  0  0  0  0  0  0  0  0  0
   -5.2116    2.0658  -15.6923 H   0  0  0  0  0  0  0  0  0  0  0  0
   -8.1493    2.4269  -19.6684 H   0  0  0  0  0  0  0  0  0  0  0  0
  -10.1087   -1.3507  -19.1271 H   0  0  0  0  0  0  0  0  0  0  0  0
   -9.4635   -3.6835  -18.7722 H   0  0  0  0  0  0  0  0  0  0  0  0
   -7.5987   -2.6366  -15.0410 H   0  0  0  0  0  0  0  0  0  0  0  0
  -10.0876   -1.7403  -13.2940 H   0  0  0  0  0  0  0  0  0  0  0  0
  -10.5635   -0.3743  -14.3139 H   0  0  0  0  0  0  0  0  0  0  0  0
   -6.5511   -0.1585  -13.1377 H   0  0  0  0  0  0  0  0  0  0  0  0
   -7.3641   -1.5939  -12.4956 H   0  0  0  0  0  0  0  0  0  0  0  0
  -10.3351    1.1903  -12.4876 H   0  0  0  0  0  0  0  0  0  0  0  0
  -11.3161   -0.1527  -11.8910 H   0  0  0  0  0  0  0  0  0  0  0  0
   -7.2477    0.0673  -10.6986 H   0  0  0  0  0  0  0  0  0  0  0  0
   -7.8804    1.3226  -11.7683 H   0  0  0  0  0  0  0  0  0  0  0  0
   -8.7200   -1.4570   -9.6606 H   0  0  0  0  0  0  0  0  0  0  0  0
  -10.4650   -1.5089  -10.0832 H   0  0  0  0  0  0  0  0  0  0  0  0
   -9.2434   -2.1545  -11.2309 H   0  0  0  0  0  0  0  0  0  0  0  0
  1  2  2  0  0  0  0
  1  3  1  0  0  0  0
  2  4  1  0  0  0  0
  3  9  2  0  0  0  0
  4 11  2  0  0  0  0
  5  6  1  0  0  0  0
  5 10  2  0  0  0  0
  6 12  2  0  0  0  0
  7  8  2  0  0  0  0
  7 12  1  0  0  0  0
  8 10  1  0  0  0  0
  8 13  1  0  0  0  0
  9 11  1  0  0  0  0
  9 19  1  0  0  0  0
 10 22  1  0  0  0  0
 11 22  1  0  0  0  0
 12 23  1  0  0  0  0
 13 19  2  0  0  0  0
 13 20  1  0  0  0  0
 14 16  1  0  0  0  0
 14 20  1  0  0  0  0
 15 17  1  0  0  0  0
 15 20  1  0  0  0  0
 16 21  1  0  0  0  0
 17 21  1  0  0  0  0
 18 21  1  0  0  0  0
  1 24  1  0  0  0  0
  2 25  1  0  0  0  0
  3 26  1  0  0  0  0
  4 27  1  0  0  0  0
  5 28  1  0  0  0  0
  6 29  1  0  0  0  0
  7 30  1  0  0  0  0
 14 31  1  0  0  0  0
 14 32  1  0  0  0  0
 15 33  1  0  0  0  0
 15 34  1  0  0  0  0
 16 35  1  0  0  0  0
 16 36  1  0  0  0  0
 17 37  1  0  0  0  0
 17 38  1  0  0  0  0
 18 39  1  0  0  0  0
 18 40  1  0  0  0  0
 18 41  1  0  0  0  0
M  END
> <id>
EN300-26485788

> <smiles>
CN1CCN(CC1)C2=NC=3C=CC=CC3SC=4C=CC(Cl)=CC24

> <MDLNUMBER>
MFCD00866705

> <IUPAC Name>
13-chloro-10-(4-methylpiperazin-1-yl)-2-thia-9-azatricyclo[9.4.0.0,3,8]pentadeca-1(11),3(8),4,6,9,12,14-heptaene

> <CAS>
2058-52-8

> <URL>
https://www.enaminestore.com/catalog/EN300-26485788

> <ROCS_ShapeQuery>
amalgated

> <ROCS_TanimotoCombo>
0.972 

> <ROCS_ShapeTanimoto>
0.674 

> <ROCS_ColorTanimoto>
0.298 

> <ROCS_RefTversky>
0.662 

> <ROCS_RefColorTversky>
0.430 

> <ROCS_RefTverskyCombo>
1.092 

> <ROCS_FitTversky>
1.029 

> <ROCS_FitColorTversky>
0.494 

> <ROCS_FitTverskyCombo>
1.523 

> <ROCS_ColorScore>
-2.989

> <ROCS_Overlap>
1096.310

> <ROCS_Rank>
6                   

$$$$
untitled-dbase-23246_6
  -OEChem-10092318153D

 41 44  0     0  0  0  0  0  0999 V2000
   -5.5170    2.9053  -17.6935 C   0  0  0  0  0  0  0  0  0  0  0  0
   -6.2745    2.7713  -18.8543 C   0  0  0  0  0  0  0  0  0  0  0  0
   -5.9578    2.3297  -16.4993 C   0  0  0  0  0  0  0  0  0  0  0  0
   -7.4687    2.0566  -18.8227 C   0  0  0  0  0  0  0  0  0  0  0  0
   -9.2988   -1.4764  -18.3495 C   0  0  0  0  0  0  0  0  0  0  0  0
   -9.1756   -2.8434  -18.1099 C   0  0  0  0  0  0  0  0  0  0  0  0
   -8.3459   -2.3793  -15.8856 C   0  0  0  0  0  0  0  0  0  0  0  0
   -8.4689   -1.0034  -16.1179 C   0  0  0  0  0  0  0  0  0  0  0  0
   -7.1518    1.5978  -16.4489 C   0  0  0  0  0  0  0  0  0  0  0  0
   -8.9292   -0.5605  -17.3606 C   0  0  0  0  0  0  0  0  0  0  0  0
   -7.8920    1.4653  -17.6285 C   0  0  0  0  0  0  0  0  0  0  0  0
   -8.6944   -3.2938  -16.8819 C   0  0  0  0  0  0  0  0  0  0  0  0
   -8.1574   -0.0393  -15.0217 C   0  0  0  0  0  0  0  0  0  0  0  0
   -7.5032   -0.5353  -12.7227 C   0  0  0  0  0  0  0  0  0  0  0  0
   -9.9108   -0.6928  -13.4538 C   0  0  0  0  0  0  0  0  0  0  0  0
   -7.9771    0.2494  -11.5013 C   0  0  0  0  0  0  0  0  0  0  0  0
  -10.2906    0.0977  -12.2038 C   0  0  0  0  0  0  0  0  0  0  0  0
   -9.4562   -1.3756  -10.4551 C   0  0  0  0  0  0  0  0  0  0  0  0
   -7.5762    1.1177  -15.2014 N   0  0  0  0  0  0  0  0  0  0  0  0
   -8.5068   -0.3976  -13.7940 N   0  0  0  0  0  0  0  0  0  0  0  0
   -9.3515   -0.0620  -11.0849 N   0  0  0  0  0  0  0  0  0  0  0  0
   -9.0783    0.7722  -17.6566 O   0  0  0  0  0  0  0  0  0  0  0  0
   -8.5380   -4.9830  -16.5897 Cl  0  0  0  0  0  0  0  0  0  0  0  0
   -4.5877    3.4673  -17.7133 H   0  0  0  0  0  0  0  0  0  0  0  0
   -5.9362    3.2257  -19.7807 H   0  0  0  0  0  0  0  0  0  0  0  0
   -5.3626    2.4645  -15.5987 H   0  0  0  0  0  0  0  0  0  0  0  0
   -8.0599    1.9545  -19.7285 H   0  0  0  0  0  0  0  0  0  0  0  0
   -9.6729   -1.1303  -19.3092 H   0  0  0  0  0  0  0  0  0  0  0  0
   -9.4573   -3.5462  -18.8899 H   0  0  0  0  0  0  0  0  0  0  0  0
   -7.9736   -2.7462  -14.9315 H   0  0  0  0  0  0  0  0  0  0  0  0
   -6.5216   -0.1624  -13.0404 H   0  0  0  0  0  0  0  0  0  0  0  0
   -7.3905   -1.6009  -12.4852 H   0  0  0  0  0  0  0  0  0  0  0  0
  -10.0081   -1.7723  -13.2801 H   0  0  0  0  0  0  0  0  0  0  0  0
  -10.5878   -0.4283  -14.2756 H   0  0  0  0  0  0  0  0  0  0  0  0
   -7.2801    0.0275  -10.6666 H   0  0  0  0  0  0  0  0  0  0  0  0
   -7.8652    1.3387  -11.6964 H   0  0  0  0  0  0  0  0  0  0  0  0
  -10.4058    1.1723  -12.4672 H   0  0  0  0  0  0  0  0  0  0  0  0
  -11.3009   -0.2359  -11.8874 H   0  0  0  0  0  0  0  0  0  0  0  0
  -10.5004   -1.5605  -10.1627 H   0  0  0  0  0  0  0  0  0  0  0  0
   -9.1322   -2.1499  -11.1661 H   0  0  0  0  0  0  0  0  0  0  0  0
   -8.8146   -1.4062   -9.5621 H   0  0  0  0  0  0  0  0  0  0  0  0
  1  2  2  0  0  0  0
  1  3  1  0  0  0  0
  2  4  1  0  0  0  0
  3  9  2  0  0  0  0
  4 11  2  0  0  0  0
  5  6  1  0  0  0  0
  5 10  2  0  0  0  0
  6 12  2  0  0  0  0
  7  8  2  0  0  0  0
  7 12  1  0  0  0  0
  8 10  1  0  0  0  0
  8 13  1  0  0  0  0
  9 11  1  0  0  0  0
  9 19  1  0  0  0  0
 10 22  1  0  0  0  0
 11 22  1  0  0  0  0
 12 23  1  0  0  0  0
 13 19  2  0  0  0  0
 13 20  1  0  0  0  0
 14 16  1  0  0  0  0
 14 20  1  0  0  0  0
 15 17  1  0  0  0  0
 15 20  1  0  0  0  0
 16 21  1  0  0  0  0
 17 21  1  0  0  0  0
 18 21  1  0  0  0  0
  1 24  1  0  0  0  0
  2 25  1  0  0  0  0
  3 26  1  0  0  0  0
  4 27  1  0  0  0  0
  5 28  1  0  0  0  0
  6 29  1  0  0  0  0
  7 30  1  0  0  0  0
 14 31  1  0  0  0  0
 14 32  1  0  0  0  0
 15 33  1  0  0  0  0
 15 34  1  0  0  0  0
 16 35  1  0  0  0  0
 16 36  1  0  0  0  0
 17 37  1  0  0  0  0
 17 38  1  0  0  0  0
 18 39  1  0  0  0  0
 18 40  1  0  0  0  0
 18 41  1  0  0  0  0
M  END
> <id>
EN300-6479125

> <smiles>
CN1CCN(CC1)C2=NC=3C=CC=CC3OC=4C=CC(Cl)=CC24

> <MDLNUMBER>
MFCD00242836

> <IUPAC Name>
13-chloro-10-(4-methylpiperazin-1-yl)-2-oxa-9-azatricyclo[9.4.0.0,3,8]pentadeca-1(11),3(8),4,6,9,12,14-heptaene

> <CAS>
1977-10-2

> <URL>
https://www.enaminestore.com/catalog/EN300-6479125

> <ROCS_ShapeQuery>
amalgated

> <ROCS_TanimotoCombo>
0.972 

> <ROCS_ShapeTanimoto>
0.693 

> <ROCS_ColorTanimoto>
0.279 

> <ROCS_RefTversky>
0.679 

> <ROCS_RefColorTversky>
0.436 

> <ROCS_RefTverskyCombo>
1.115 

> <ROCS_FitTversky>
1.030 

> <ROCS_FitColorTversky>
0.436 

> <ROCS_FitTverskyCombo>
1.466 

> <ROCS_ColorScore>
-3.053

> <ROCS_Overlap>
1126.263

> <ROCS_Rank>
7                   

$$$$
untitled-dbase-42964_21
  -OEChem-10092318153D

 32 33  0     0  0  0  0  0  0999 V2000
   -9.0399    0.3428  -15.3260 C   0  0  0  0  0  0  0  0  0  0  0  0
   -9.1987   -2.7660  -17.3970 C   0  0  0  0  0  0  0  0  0  0  0  0
   -7.4781   -1.2906  -18.3285 C   0  0  0  0  0  0  0  0  0  0  0  0
  -10.2442   -0.0705  -11.7916 C   0  0  0  0  0  0  0  0  0  0  0  0
   -7.8032   -0.2754  -11.8558 C   0  0  0  0  0  0  0  0  0  0  0  0
   -8.8663   -2.0834  -16.0715 C   0  0  0  0  0  0  0  0  0  0  0  0
   -8.2745   -0.2170  -17.5960 C   0  0  0  0  0  0  0  0  0  0  0  0
  -10.0431    0.6754  -13.1049 C   0  0  0  0  0  0  0  0  0  0  0  0
   -8.0477   -0.7902  -13.2735 C   0  0  0  0  0  0  0  0  0  0  0  0
   -8.1540   -2.5850  -18.4037 N   0  0  0  0  0  0  0  0  0  0  0  0
   -9.0066   -0.2234  -11.0274 N   0  0  0  0  0  0  0  0  0  0  0  0
   -8.6512   -0.6415  -16.2470 N   0  0  0  0  0  0  0  0  0  0  0  0
   -9.0738   -0.0017  -13.9671 N   0  0  0  0  0  0  0  0  0  0  0  0
   -9.3467    1.4826  -15.7021 O   0  0  0  0  0  0  0  0  0  0  0  0
   -9.3451   -3.8426  -17.2263 H   0  0  0  0  0  0  0  0  0  0  0  0
  -10.1569   -2.3874  -17.7865 H   0  0  0  0  0  0  0  0  0  0  0  0
   -7.2208   -0.9461  -19.3513 H   0  0  0  0  0  0  0  0  0  0  0  0
   -6.5038   -1.4320  -17.8207 H   0  0  0  0  0  0  0  0  0  0  0  0
  -10.9782    0.4685  -11.1726 H   0  0  0  0  0  0  0  0  0  0  0  0
  -10.6840   -1.0635  -11.9830 H   0  0  0  0  0  0  0  0  0  0  0  0
   -7.0315   -0.8934  -11.3533 H   0  0  0  0  0  0  0  0  0  0  0  0
   -7.3675    0.7413  -11.9090 H   0  0  0  0  0  0  0  0  0  0  0  0
   -9.6757   -2.2480  -15.3510 H   0  0  0  0  0  0  0  0  0  0  0  0
   -7.9489   -2.4989  -15.6353 H   0  0  0  0  0  0  0  0  0  0  0  0
   -7.6597    0.6888  -17.4759 H   0  0  0  0  0  0  0  0  0  0  0  0
   -9.1411    0.1030  -18.1847 H   0  0  0  0  0  0  0  0  0  0  0  0
  -11.0005    0.7718  -13.6329 H   0  0  0  0  0  0  0  0  0  0  0  0
   -9.6672    1.6923  -12.9257 H   0  0  0  0  0  0  0  0  0  0  0  0
   -7.1290   -0.6943  -13.8697 H   0  0  0  0  0  0  0  0  0  0  0  0
   -8.2810   -1.8581  -13.2712 H   0  0  0  0  0  0  0  0  0  0  0  0
   -7.4506   -3.3297  -18.2826 H   0  0  0  0  0  0  0  0  0  0  0  0
   -8.9234    0.5733  -10.3775 H   0  0  0  0  0  0  0  0  0  0  0  0
  1 12  1  0  0  0  0
  1 13  1  0  0  0  0
  1 14  2  0  0  0  0
  2  6  1  0  0  0  0
  2 10  1  0  0  0  0
  3  7  1  0  0  0  0
  3 10  1  0  0  0  0
  4  8  1  0  0  0  0
  4 11  1  0  0  0  0
  5  9  1  0  0  0  0
  5 11  1  0  0  0  0
  6 12  1  0  0  0  0
  7 12  1  0  0  0  0
  8 13  1  0  0  0  0
  9 13  1  0  0  0  0
  2 15  1  0  0  0  0
  2 16  1  0  0  0  0
  3 17  1  0  0  0  0
  3 18  1  0  0  0  0
  4 19  1  0  0  0  0
  4 20  1  0  0  0  0
  5 21  1  0  0  0  0
  5 22  1  0  0  0  0
  6 23  1  0  0  0  0
  6 24  1  0  0  0  0
  7 25  1  0  0  0  0
  7 26  1  0  0  0  0
  8 27  1  0  0  0  0
  8 28  1  0  0  0  0
  9 29  1  0  0  0  0
  9 30  1  0  0  0  0
 10 31  1  0  0  0  0
 11 32  1  0  0  0  0
M  END
> <id>
EN300-2889217

> <smiles>
O=C(N1CCNCC1)N2CCNCC2

> <MDLNUMBER>
MFCD20664791

> <IUPAC Name>
1-(piperazine-1-carbonyl)piperazine

> <CAS>
17159-16-9

> <URL>
https://www.enaminestore.com/catalog/EN300-2889217

> <ROCS_ShapeQuery>
amalgated

> <ROCS_TanimotoCombo>
0.969 

> <ROCS_ShapeTanimoto>
0.518 

> <ROCS_ColorTanimoto>
0.451 

> <ROCS_RefTversky>
0.479 

> <ROCS_RefColorTversky>
0.622 

> <ROCS_RefTverskyCombo>
1.101 

> <ROCS_FitTversky>
1.186 

> <ROCS_FitColorTversky>
0.622 

> <ROCS_FitTverskyCombo>
1.808 

> <ROCS_ColorScore>
-4.352

> <ROCS_Overlap>
784.288

> <ROCS_Rank>
8                   

$$$$
untitled-dbase-2992_10
  -OEChem-10092318153D

 42 45  0     0  0  0  0  0  0999 V2000
   -8.5976    0.6018  -11.2410 C   0  0  0  0  0  0  0  0  0  0  0  0
   -9.3973   -0.5252  -11.1985 C   0  0  0  0  0  0  0  0  0  0  0  0
   -8.1437    1.0704  -12.4723 C   0  0  0  0  0  0  0  0  0  0  0  0
   -9.7242   -1.1734  -12.3873 C   0  0  0  0  0  0  0  0  0  0  0  0
   -7.8890   -1.0444  -17.9274 C   0  0  0  0  0  0  0  0  0  0  0  0
   -8.2768   -0.5548  -16.6215 C   0  0  0  0  0  0  0  0  0  0  0  0
   -8.4628    0.4302  -13.6910 C   0  0  0  0  0  0  0  0  0  0  0  0
   -9.2634   -0.7176  -13.6474 C   0  0  0  0  0  0  0  0  0  0  0  0
   -8.4531   -2.2522  -18.2570 C   0  0  0  0  0  0  0  0  0  0  0  0
   -9.0905   -1.4842  -15.9960 C   0  0  0  0  0  0  0  0  0  0  0  0
   -7.8819    0.7322  -16.0549 C   0  0  0  0  0  0  0  0  0  0  0  0
   -6.0215    2.1038  -16.8458 C   0  0  0  0  0  0  0  0  0  0  0  0
   -8.1984    2.0299  -18.1001 C   0  0  0  0  0  0  0  0  0  0  0  0
   -5.3021    1.8795  -18.1726 C   0  0  0  0  0  0  0  0  0  0  0  0
   -7.3999    1.8073  -19.3811 C   0  0  0  0  0  0  0  0  0  0  0  0
   -8.2806   -3.0446  -19.4928 C   0  0  0  0  0  0  0  0  0  0  0  0
   -5.3446    2.2734  -20.5492 C   0  0  0  0  0  0  0  0  0  0  0  0
   -7.9800    1.1011  -14.8166 N   0  0  0  0  0  0  0  0  0  0  0  0
   -9.6235   -1.4970  -14.7569 N   0  0  0  0  0  0  0  0  0  0  0  0
   -7.3915    1.5723  -16.9552 N   0  0  0  0  0  0  0  0  0  0  0  0
   -6.0745    2.4402  -19.2924 N   0  0  0  0  0  0  0  0  0  0  0  0
   -9.4522   -2.8277  -17.0148 S   0  0  0  0  0  0  0  0  0  0  0  0
   -8.3181    1.1128  -10.3251 H   0  0  0  0  0  0  0  0  0  0  0  0
   -9.7703   -0.9003  -10.2505 H   0  0  0  0  0  0  0  0  0  0  0  0
   -7.5113    1.9579  -12.4810 H   0  0  0  0  0  0  0  0  0  0  0  0
  -10.3650   -2.0524  -12.3299 H   0  0  0  0  0  0  0  0  0  0  0  0
   -7.2124   -0.5363  -18.6033 H   0  0  0  0  0  0  0  0  0  0  0  0
   -5.4639    1.6137  -16.0384 H   0  0  0  0  0  0  0  0  0  0  0  0
   -6.0787    3.1732  -16.6063 H   0  0  0  0  0  0  0  0  0  0  0  0
   -8.4307    3.0935  -17.9624 H   0  0  0  0  0  0  0  0  0  0  0  0
   -9.1504    1.4886  -18.1620 H   0  0  0  0  0  0  0  0  0  0  0  0
   -4.3234    2.3714  -18.1160 H   0  0  0  0  0  0  0  0  0  0  0  0
   -5.1185    0.8067  -18.3200 H   0  0  0  0  0  0  0  0  0  0  0  0
   -7.3091    0.7313  -19.5818 H   0  0  0  0  0  0  0  0  0  0  0  0
   -7.9636    2.2455  -20.2138 H   0  0  0  0  0  0  0  0  0  0  0  0
   -7.4360   -3.7454  -19.3983 H   0  0  0  0  0  0  0  0  0  0  0  0
   -9.1814   -3.6331  -19.7337 H   0  0  0  0  0  0  0  0  0  0  0  0
   -8.0901   -2.4035  -20.3696 H   0  0  0  0  0  0  0  0  0  0  0  0
   -5.9345    2.6971  -21.3754 H   0  0  0  0  0  0  0  0  0  0  0  0
   -4.3782    2.7947  -20.4838 H   0  0  0  0  0  0  0  0  0  0  0  0
   -5.1720    1.2028  -20.7335 H   0  0  0  0  0  0  0  0  0  0  0  0
  -10.4845   -2.0220  -14.6284 H   0  0  0  0  0  0  0  0  0  0  0  0
  1  2  2  0  0  0  0
  1  3  1  0  0  0  0
  2  4  1  0  0  0  0
  3  7  2  0  0  0  0
  4  8  2  0  0  0  0
  5  6  1  0  0  0  0
  5  9  2  0  0  0  0
  6 10  2  0  0  0  0
  6 11  1  0  0  0  0
  7  8  1  0  0  0  0
  7 18  1  0  0  0  0
  8 19  1  0  0  0  0
  9 16  1  0  0  0  0
  9 22  1  0  0  0  0
 10 19  1  0  0  0  0
 10 22  1  0  0  0  0
 11 18  2  0  0  0  0
 11 20  1  0  0  0  0
 12 14  1  0  0  0  0
 12 20  1  0  0  0  0
 13 15  1  0  0  0  0
 13 20  1  0  0  0  0
 14 21  1  0  0  0  0
 15 21  1  0  0  0  0
 17 21  1  0  0  0  0
  1 23  1  0  0  0  0
  2 24  1  0  0  0  0
  3 25  1  0  0  0  0
  4 26  1  0  0  0  0
  5 27  1  0  0  0  0
 12 28  1  0  0  0  0
 12 29  1  0  0  0  0
 13 30  1  0  0  0  0
 13 31  1  0  0  0  0
 14 32  1  0  0  0  0
 14 33  1  0  0  0  0
 15 34  1  0  0  0  0
 15 35  1  0  0  0  0
 16 36  1  0  0  0  0
 16 37  1  0  0  0  0
 16 38  1  0  0  0  0
 17 39  1  0  0  0  0
 17 40  1  0  0  0  0
 17 41  1  0  0  0  0
 19 42  1  0  0  0  0
M  END
> <id>
EN300-119499

> <smiles>
CN1CCN(CC1)C2=NC=3C=CC=CC3NC=4SC(C)=CC24

> <MDLNUMBER>
MFCD00866702

> <IUPAC Name>
5-methyl-8-(4-methylpiperazin-1-yl)-4-thia-2,9-diazatricyclo[8.4.0.0,3,7]tetradeca-1(10),3(7),5,8,11,13-hexaene

> <CAS>
132539-06-1

> <Purity>
95

> <URL>
https://www.enaminestore.com/catalog/EN300-119499

> <ROCS_ShapeQuery>
amalgated

> <ROCS_TanimotoCombo>
0.961 

> <ROCS_ShapeTanimoto>
0.695 

> <ROCS_ColorTanimoto>
0.266 

> <ROCS_RefTversky>
0.666 

> <ROCS_RefColorTversky>
0.421 

> <ROCS_RefTverskyCombo>
1.087 

> <ROCS_FitTversky>
1.066 

> <ROCS_FitColorTversky>
0.420 

> <ROCS_FitTverskyCombo>
1.486 

> <ROCS_ColorScore>
-2.944

> <ROCS_Overlap>
1103.299

> <ROCS_Rank>
9                   

$$$$
untitled-dbase-8648_44
  -OEChem-10092318153D

 43 46  0     0  0  0  0  0  0999 V2000
   -8.5899    0.6036  -11.2441 C   0  0  0  0  0  0  0  0  0  0  0  0
   -9.4138   -0.5058  -11.1994 C   0  0  0  0  0  0  0  0  0  0  0  0
   -8.1209    1.0560  -12.4758 C   0  0  0  0  0  0  0  0  0  0  0  0
   -9.7495   -1.1530  -12.3862 C   0  0  0  0  0  0  0  0  0  0  0  0
   -7.8886   -1.0920  -17.9189 C   0  0  0  0  0  0  0  0  0  0  0  0
   -8.2713   -0.5875  -16.6173 C   0  0  0  0  0  0  0  0  0  0  0  0
   -8.4485    0.4165  -13.6926 C   0  0  0  0  0  0  0  0  0  0  0  0
   -9.2737   -0.7137  -13.6467 C   0  0  0  0  0  0  0  0  0  0  0  0
   -8.4771   -2.2891  -18.2449 C   0  0  0  0  0  0  0  0  0  0  0  0
   -9.1074   -1.4959  -15.9905 C   0  0  0  0  0  0  0  0  0  0  0  0
   -7.8513    0.6937  -16.0555 C   0  0  0  0  0  0  0  0  0  0  0  0
   -5.9573    2.0282  -16.8551 C   0  0  0  0  0  0  0  0  0  0  0  0
   -8.1410    2.1105  -18.0389 C   0  0  0  0  0  0  0  0  0  0  0  0
   -5.4454    2.6155  -18.1672 C   0  0  0  0  0  0  0  0  0  0  0  0
   -7.4815    1.9503  -19.4066 C   0  0  0  0  0  0  0  0  0  0  0  0
   -8.3164   -3.0914  -19.4759 C   0  0  0  0  0  0  0  0  0  0  0  0
   -5.3742    2.3890  -20.6222 C   0  0  0  0  0  0  0  0  0  0  0  0
   -7.9467    1.0711  -14.8195 N   0  0  0  0  0  0  0  0  0  0  0  0
   -9.6458   -1.4909  -14.7537 N   0  0  0  0  0  0  0  0  0  0  0  0
   -7.3282    1.5360  -16.9772 N   0  0  0  0  0  0  0  0  0  0  0  0
   -5.9654    1.8402  -19.3543 N   0  3  0  0  0  0  0  0  0  0  0  0
   -5.5900    0.5210  -19.2521 O   0  5  0  0  0  0  0  0  0  0  0  0
   -9.4936   -2.8367  -17.0040 S   0  0  0  0  0  0  0  0  0  0  0  0
   -8.3034    1.1133  -10.3297 H   0  0  0  0  0  0  0  0  0  0  0  0
   -9.7988   -0.8679  -10.2511 H   0  0  0  0  0  0  0  0  0  0  0  0
   -7.4696    1.9297  -12.4863 H   0  0  0  0  0  0  0  0  0  0  0  0
  -10.4092   -2.0177  -12.3272 H   0  0  0  0  0  0  0  0  0  0  0  0
   -7.1984   -0.6021  -18.5945 H   0  0  0  0  0  0  0  0  0  0  0  0
   -5.3171    1.1886  -16.5312 H   0  0  0  0  0  0  0  0  0  0  0  0
   -5.8752    2.7950  -16.0647 H   0  0  0  0  0  0  0  0  0  0  0  0
   -8.3366    3.1834  -17.8631 H   0  0  0  0  0  0  0  0  0  0  0  0
   -9.1290    1.6168  -18.0274 H   0  0  0  0  0  0  0  0  0  0  0  0
   -5.7760    3.6502  -18.2913 H   0  0  0  0  0  0  0  0  0  0  0  0
   -4.3547    2.5673  -18.2161 H   0  0  0  0  0  0  0  0  0  0  0  0
   -7.8374    1.0343  -19.9082 H   0  0  0  0  0  0  0  0  0  0  0  0
   -7.7099    2.8118  -20.0584 H   0  0  0  0  0  0  0  0  0  0  0  0
   -7.4874   -3.8097  -19.3741 H   0  0  0  0  0  0  0  0  0  0  0  0
   -9.2286   -3.6618  -19.7176 H   0  0  0  0  0  0  0  0  0  0  0  0
   -8.1085   -2.4592  -20.3551 H   0  0  0  0  0  0  0  0  0  0  0  0
   -5.7714    1.8062  -21.4554 H   0  0  0  0  0  0  0  0  0  0  0  0
   -5.6678    3.4375  -20.7013 H   0  0  0  0  0  0  0  0  0  0  0  0
   -4.2892    2.2891  -20.5556 H   0  0  0  0  0  0  0  0  0  0  0  0
  -10.5183   -1.9967  -14.6262 H   0  0  0  0  0  0  0  0  0  0  0  0
  1  2  2  0  0  0  0
  1  3  1  0  0  0  0
  2  4  1  0  0  0  0
  3  7  2  0  0  0  0
  4  8  2  0  0  0  0
  5  6  1  0  0  0  0
  5  9  2  0  0  0  0
  6 10  2  0  0  0  0
  6 11  1  0  0  0  0
  7  8  1  0  0  0  0
  7 18  1  0  0  0  0
  8 19  1  0  0  0  0
  9 16  1  0  0  0  0
  9 23  1  0  0  0  0
 10 19  1  0  0  0  0
 10 23  1  0  0  0  0
 11 18  2  0  0  0  0
 11 20  1  0  0  0  0
 12 14  1  0  0  0  0
 12 20  1  0  0  0  0
 13 15  1  0  0  0  0
 13 20  1  0  0  0  0
 14 21  1  0  0  0  0
 15 21  1  0  0  0  0
 17 21  1  0  0  0  0
 21 22  1  0  0  0  0
  1 24  1  0  0  0  0
  2 25  1  0  0  0  0
  3 26  1  0  0  0  0
  4 27  1  0  0  0  0
  5 28  1  0  0  0  0
 12 29  1  0  0  0  0
 12 30  1  0  0  0  0
 13 31  1  0  0  0  0
 13 32  1  0  0  0  0
 14 33  1  0  0  0  0
 14 34  1  0  0  0  0
 15 35  1  0  0  0  0
 15 36  1  0  0  0  0
 16 37  1  0  0  0  0
 16 38  1  0  0  0  0
 16 39  1  0  0  0  0
 17 40  1  0  0  0  0
 17 41  1  0  0  0  0
 17 42  1  0  0  0  0
 19 43  1  0  0  0  0
M  CHG  2  21   1  22  -1
M  END
> <id>
EN300-305634

> <smiles>
CC1=CC=2C(=NC=3C=CC=CC3NC2S1)N4CC[N+](C)([O-])CC4

> <MDLNUMBER>
MFCD09955558

> <IUPAC Name>
1-methyl-4-{5-methyl-4-thia-2,9-diazatricyclo[8.4.0.0,3,7]tetradeca-1(10),3(7),5,8,11,13-hexaen-8-yl}piperazin-1-ium-1-olate

> <CAS>
174794-02-6

> <Purity>
95

> <URL>
https://www.enaminestore.com/catalog/EN300-305634

> <ROCS_ShapeQuery>
amalgated

> <ROCS_TanimotoCombo>
0.953 

> <ROCS_ShapeTanimoto>
0.686 

> <ROCS_ColorTanimoto>
0.266 

> <ROCS_RefTversky>
0.672 

> <ROCS_RefColorTversky>
0.421 

> <ROCS_RefTverskyCombo>
1.093 

> <ROCS_FitTversky>
1.032 

> <ROCS_FitColorTversky>
0.421 

> <ROCS_FitTverskyCombo>
1.452 

> <ROCS_ColorScore>
-2.947

> <ROCS_Overlap>
1114.712

> <ROCS_Rank>
10                  

$$$$
untitled-dbase-41810_47
  -OEChem-10092318153D

 37 37  0     1  0  0  0  0  0999 V2000
   -8.7884   -0.2056  -14.7588 C   0  0  0  0  0  0  0  0  0  0  0  0
   -9.3611   -2.8015  -16.9674 C   0  0  0  0  0  0  0  0  0  0  0  0
   -8.8877   -0.6355  -18.2105 C   0  0  0  0  0  0  0  0  0  0  0  0
   -8.3244   -2.3807  -15.9234 C   0  0  0  0  0  0  0  0  0  0  0  0
   -9.1203   -2.1532  -18.3422 C   0  0  1  0  0  0  0  0  0  0  0  0
   -7.8529   -0.2825  -17.1251 C   0  0  1  0  0  0  0  0  0  0  0  0
  -10.7074    0.0489  -12.6434 C   0  0  0  0  0  0  0  0  0  0  0  0
   -9.0667   -1.2449  -11.2494 C   0  0  0  0  0  0  0  0  0  0  0  0
   -8.4243    0.9995  -12.1757 C   0  0  0  0  0  0  0  0  0  0  0  0
   -7.5857    1.2215  -17.1006 C   0  0  0  0  0  0  0  0  0  0  0  0
   -9.2313   -0.2752  -12.4177 C   0  0  0  0  0  0  0  0  0  0  0  0
   -8.2675   -0.9137  -15.8533 N   0  0  0  0  0  0  0  0  0  0  0  0
   -7.9854   -2.7816  -19.0252 N   0  0  0  0  0  0  0  0  0  0  0  0
   -9.2580    0.9285  -14.8019 O   0  0  0  0  0  0  0  0  0  0  0  0
   -8.7221   -0.9218  -13.5903 O   0  0  0  0  0  0  0  0  0  0  0  0
   -7.2572    1.6463  -18.3286 F   0  0  0  0  0  0  0  0  0  0  0  0
   -8.6831    1.8729  -16.6911 F   0  0  0  0  0  0  0  0  0  0  0  0
   -6.5773    1.4915  -16.2599 F   0  0  0  0  0  0  0  0  0  0  0  0
   -9.3483   -3.9013  -17.0585 H   0  0  0  0  0  0  0  0  0  0  0  0
  -10.3671   -2.5383  -16.6011 H   0  0  0  0  0  0  0  0  0  0  0  0
   -8.5283   -0.2400  -19.1691 H   0  0  0  0  0  0  0  0  0  0  0  0
   -9.8364   -0.1283  -18.0008 H   0  0  0  0  0  0  0  0  0  0  0  0
   -8.6060   -2.7428  -14.9426 H   0  0  0  0  0  0  0  0  0  0  0  0
   -7.3581   -2.7897  -16.1825 H   0  0  0  0  0  0  0  0  0  0  0  0
  -10.0121   -2.3223  -18.9746 H   0  0  0  0  0  0  0  0  0  0  0  0
   -6.9155   -0.7708  -17.4696 H   0  0  0  0  0  0  0  0  0  0  0  0
  -10.8298    0.7447  -13.4812 H   0  0  0  0  0  0  0  0  0  0  0  0
  -11.2911   -0.8534  -12.8527 H   0  0  0  0  0  0  0  0  0  0  0  0
  -11.1378    0.5437  -11.7653 H   0  0  0  0  0  0  0  0  0  0  0  0
   -8.0091   -1.4803  -11.0838 H   0  0  0  0  0  0  0  0  0  0  0  0
   -9.5657   -2.1978  -11.4598 H   0  0  0  0  0  0  0  0  0  0  0  0
   -9.4798   -0.8345  -10.3224 H   0  0  0  0  0  0  0  0  0  0  0  0
   -7.3655    0.7673  -12.0137 H   0  0  0  0  0  0  0  0  0  0  0  0
   -8.5010    1.6918  -13.0204 H   0  0  0  0  0  0  0  0  0  0  0  0
   -8.7699    1.5137  -11.2716 H   0  0  0  0  0  0  0  0  0  0  0  0
   -8.1812   -3.7490  -19.1222 H   0  0  0  0  0  0  0  0  0  0  0  0
   -7.8844   -2.3516  -19.9132 H   0  0  0  0  0  0  0  0  0  0  0  0
  1 12  1  0  0  0  0
  1 14  2  0  0  0  0
  1 15  1  0  0  0  0
  2  4  1  0  0  0  0
  2  5  1  0  0  0  0
  3  5  1  0  0  0  0
  3  6  1  0  0  0  0
  4 12  1  0  0  0  0
  5 13  1  0  0  0  0
  6 10  1  0  0  0  0
  6 12  1  0  0  0  0
  7 11  1  0  0  0  0
  8 11  1  0  0  0  0
  9 11  1  0  0  0  0
 10 16  1  0  0  0  0
 10 17  1  0  0  0  0
 10 18  1  0  0  0  0
 11 15  1  0  0  0  0
  2 19  1  0  0  0  0
  2 20  1  0  0  0  0
  3 21  1  0  0  0  0
  3 22  1  0  0  0  0
  4 23  1  0  0  0  0
  4 24  1  0  0  0  0
  5 25  1  0  0  0  0
  6 26  1  0  0  0  0
  7 27  1  0  0  0  0
  7 28  1  0  0  0  0
  7 29  1  0  0  0  0
  8 30  1  0  0  0  0
  8 31  1  0  0  0  0
  8 32  1  0  0  0  0
  9 33  1  0  0  0  0
  9 34  1  0  0  0  0
  9 35  1  0  0  0  0
 13 36  1  0  0  0  0
 13 37  1  0  0  0  0
M  END
> <id>
EN300-25668667

> <smiles>
CC(C)(C)OC(=O)N1CCC(N)CC1C(F)(F)F

> <IUPAC Name>
tert-butyl 4-amino-2-(trifluoromethyl)piperidine-1-carboxylate

> <CAS>
2168252-81-9

> <URL>
https://www.enaminestore.com/catalog/EN300-25668667

> <ROCS_ShapeQuery>
amalgated

> <ROCS_TanimotoCombo>
0.951 

> <ROCS_ShapeTanimoto>
0.620 

> <ROCS_ColorTanimoto>
0.330 

> <ROCS_RefTversky>
0.577 

> <ROCS_RefColorTversky>
0.432 

> <ROCS_RefTverskyCombo>
1.009 

> <ROCS_FitTversky>
1.137 

> <ROCS_FitColorTversky>
0.584 

> <ROCS_FitTverskyCombo>
1.721 

> <ROCS_ColorScore>
-2.979

> <ROCS_Overlap>
949.839

> <ROCS_Rank>
11                  

$$$$
untitled-dbase-19182_9
  -OEChem-10092318153D

 36 39  0     0  0  0  0  0  0999 V2000
   -9.0862   -2.7575  -17.3688 C   0  0  0  0  0  0  0  0  0  0  0  0
   -6.8071    1.3590  -18.6473 C   0  0  0  0  0  0  0  0  0  0  0  0
   -8.4487   -2.0600  -18.4230 C   0  0  0  0  0  0  0  0  0  0  0  0
   -7.2553    0.0948  -19.0932 C   0  0  0  0  0  0  0  0  0  0  0  0
   -9.2132   -2.1962  -16.0847 C   0  0  0  0  0  0  0  0  0  0  0  0
   -7.0089    1.7858  -17.3199 C   0  0  0  0  0  0  0  0  0  0  0  0
   -7.9207   -0.7701  -18.2018 C   0  0  0  0  0  0  0  0  0  0  0  0
   -8.0812   -0.2778  -16.9115 C   0  0  0  0  0  0  0  0  0  0  0  0
   -8.6912   -0.9362  -15.8904 C   0  0  0  0  0  0  0  0  0  0  0  0
   -7.6621    0.9346  -16.4488 C   0  0  0  0  0  0  0  0  0  0  0  0
   -8.6076   -0.0072  -14.7470 C   0  0  0  0  0  0  0  0  0  0  0  0
  -10.1667    0.4965  -12.9373 C   0  0  0  0  0  0  0  0  0  0  0  0
   -8.6448   -1.5102  -12.8236 C   0  0  0  0  0  0  0  0  0  0  0  0
   -9.7507    0.8311  -11.5066 C   0  0  0  0  0  0  0  0  0  0  0  0
   -8.2880   -1.0969  -11.3975 C   0  0  0  0  0  0  0  0  0  0  0  0
  -10.4758   -1.1749  -10.3342 C   0  0  0  0  0  0  0  0  0  0  0  0
   -7.9935    1.1042  -15.0873 N   0  0  0  0  0  0  0  0  0  0  0  0
   -9.1092   -0.3205  -13.5604 N   0  0  0  0  0  0  0  0  0  0  0  0
   -9.3419   -0.3357  -10.7124 N   0  0  0  0  0  0  0  0  0  0  0  0
   -9.4868   -3.7507  -17.5574 H   0  0  0  0  0  0  0  0  0  0  0  0
   -6.2948    2.0166  -19.3458 H   0  0  0  0  0  0  0  0  0  0  0  0
   -8.3695   -2.5261  -19.4017 H   0  0  0  0  0  0  0  0  0  0  0  0
   -7.0826   -0.2022  -20.1242 H   0  0  0  0  0  0  0  0  0  0  0  0
   -9.7046   -2.7437  -15.2892 H   0  0  0  0  0  0  0  0  0  0  0  0
   -6.6574    2.7600  -16.9978 H   0  0  0  0  0  0  0  0  0  0  0  0
  -11.1252   -0.0359  -12.9243 H   0  0  0  0  0  0  0  0  0  0  0  0
  -10.3031    1.4103  -13.5286 H   0  0  0  0  0  0  0  0  0  0  0  0
   -7.7713   -1.9280  -13.3394 H   0  0  0  0  0  0  0  0  0  0  0  0
   -9.4173   -2.2879  -12.7966 H   0  0  0  0  0  0  0  0  0  0  0  0
   -8.9095    1.5534  -11.5601 H   0  0  0  0  0  0  0  0  0  0  0  0
  -10.5764    1.3784  -11.0007 H   0  0  0  0  0  0  0  0  0  0  0  0
   -8.0127   -2.0000  -10.8091 H   0  0  0  0  0  0  0  0  0  0  0  0
   -7.3631   -0.4852  -11.4447 H   0  0  0  0  0  0  0  0  0  0  0  0
  -10.1180   -2.0312   -9.7436 H   0  0  0  0  0  0  0  0  0  0  0  0
  -11.1839   -0.5854   -9.7333 H   0  0  0  0  0  0  0  0  0  0  0  0
  -10.9800   -1.5403  -11.2410 H   0  0  0  0  0  0  0  0  0  0  0  0
  1  3  2  0  0  0  0
  1  5  1  0  0  0  0
  2  4  1  0  0  0  0
  2  6  2  0  0  0  0
  3  7  1  0  0  0  0
  4  7  2  0  0  0  0
  5  9  2  0  0  0  0
  6 10  1  0  0  0  0
  7  8  1  0  0  0  0
  8  9  1  0  0  0  0
  8 10  2  0  0  0  0
  9 11  1  0  0  0  0
 10 17  1  0  0  0  0
 11 17  2  0  0  0  0
 11 18  1  0  0  0  0
 12 14  1  0  0  0  0
 12 18  1  0  0  0  0
 13 15  1  0  0  0  0
 13 18  1  0  0  0  0
 14 19  1  0  0  0  0
 15 19  1  0  0  0  0
 16 19  1  0  0  0  0
  1 20  1  0  0  0  0
  2 21  1  0  0  0  0
  3 22  1  0  0  0  0
  4 23  1  0  0  0  0
  5 24  1  0  0  0  0
  6 25  1  0  0  0  0
 12 26  1  0  0  0  0
 12 27  1  0  0  0  0
 13 28  1  0  0  0  0
 13 29  1  0  0  0  0
 14 30  1  0  0  0  0
 14 31  1  0  0  0  0
 15 32  1  0  0  0  0
 15 33  1  0  0  0  0
 16 34  1  0  0  0  0
 16 35  1  0  0  0  0
 16 36  1  0  0  0  0
M  END
> <id>
EN300-1659566

> <smiles>
CN1CCN(CC1)C2=NC=3C=CC=C4C=CC=C2C34

> <MDLNUMBER>
MFCD06327463

> <IUPAC Name>
3-(4-methylpiperazin-1-yl)-2-azatricyclo[6.3.1.0,4,12]dodeca-1(12),2,4,6,8,10-hexaene

> <CAS>
102146-90-7

> <URL>
https://www.enaminestore.com/catalog/EN300-1659566

> <ROCS_ShapeQuery>
amalgated

> <ROCS_TanimotoCombo>
0.947 

> <ROCS_ShapeTanimoto>
0.672 

> <ROCS_ColorTanimoto>
0.275 

> <ROCS_RefTversky>
0.630 

> <ROCS_RefColorTversky>
0.404 

> <ROCS_RefTverskyCombo>
1.034 

> <ROCS_FitTversky>
1.110 

> <ROCS_FitColorTversky>
0.461 

> <ROCS_FitTverskyCombo>
1.572 

> <ROCS_ColorScore>
-2.812

> <ROCS_Overlap>
1039.460

> <ROCS_Rank>
12                  

$$$$
untitled-dbase-19450_9
  -OEChem-10092318153D

 36 39  0     0  0  0  0  0  0999 V2000
   -9.0862   -2.7575  -17.3688 C   0  0  0  0  0  0  0  0  0  0  0  0
   -6.8071    1.3590  -18.6473 C   0  0  0  0  0  0  0  0  0  0  0  0
   -8.4487   -2.0600  -18.4230 C   0  0  0  0  0  0  0  0  0  0  0  0
   -7.2553    0.0948  -19.0932 C   0  0  0  0  0  0  0  0  0  0  0  0
   -9.2132   -2.1962  -16.0847 C   0  0  0  0  0  0  0  0  0  0  0  0
   -7.0089    1.7858  -17.3199 C   0  0  0  0  0  0  0  0  0  0  0  0
   -7.9207   -0.7701  -18.2018 C   0  0  0  0  0  0  0  0  0  0  0  0
   -8.0812   -0.2778  -16.9115 C   0  0  0  0  0  0  0  0  0  0  0  0
   -8.6912   -0.9362  -15.8904 C   0  0  0  0  0  0  0  0  0  0  0  0
   -7.6621    0.9346  -16.4488 C   0  0  0  0  0  0  0  0  0  0  0  0
   -8.6076   -0.0072  -14.7470 C   0  0  0  0  0  0  0  0  0  0  0  0
  -10.1667    0.4965  -12.9373 C   0  0  0  0  0  0  0  0  0  0  0  0
   -8.6448   -1.5102  -12.8236 C   0  0  0  0  0  0  0  0  0  0  0  0
   -9.7507    0.8311  -11.5066 C   0  0  0  0  0  0  0  0  0  0  0  0
   -8.2880   -1.0969  -11.3975 C   0  0  0  0  0  0  0  0  0  0  0  0
  -10.4758   -1.1749  -10.3342 C   0  0  0  0  0  0  0  0  0  0  0  0
   -7.9935    1.1042  -15.0873 N   0  0  0  0  0  0  0  0  0  0  0  0
   -9.1092   -0.3205  -13.5604 N   0  0  0  0  0  0  0  0  0  0  0  0
   -9.3419   -0.3357  -10.7124 N   0  0  0  0  0  0  0  0  0  0  0  0
   -9.4868   -3.7507  -17.5574 H   0  0  0  0  0  0  0  0  0  0  0  0
   -6.2948    2.0166  -19.3458 H   0  0  0  0  0  0  0  0  0  0  0  0
   -8.3695   -2.5261  -19.4017 H   0  0  0  0  0  0  0  0  0  0  0  0
   -7.0826   -0.2022  -20.1242 H   0  0  0  0  0  0  0  0  0  0  0  0
   -9.7046   -2.7437  -15.2892 H   0  0  0  0  0  0  0  0  0  0  0  0
   -6.6574    2.7600  -16.9978 H   0  0  0  0  0  0  0  0  0  0  0  0
  -11.1252   -0.0359  -12.9243 H   0  0  0  0  0  0  0  0  0  0  0  0
  -10.3031    1.4103  -13.5286 H   0  0  0  0  0  0  0  0  0  0  0  0
   -7.7713   -1.9280  -13.3394 H   0  0  0  0  0  0  0  0  0  0  0  0
   -9.4173   -2.2879  -12.7966 H   0  0  0  0  0  0  0  0  0  0  0  0
   -8.9095    1.5534  -11.5601 H   0  0  0  0  0  0  0  0  0  0  0  0
  -10.5764    1.3784  -11.0007 H   0  0  0  0  0  0  0  0  0  0  0  0
   -8.0127   -2.0000  -10.8091 H   0  0  0  0  0  0  0  0  0  0  0  0
   -7.3631   -0.4852  -11.4447 H   0  0  0  0  0  0  0  0  0  0  0  0
  -10.1180   -2.0312   -9.7436 H   0  0  0  0  0  0  0  0  0  0  0  0
  -11.1839   -0.5854   -9.7333 H   0  0  0  0  0  0  0  0  0  0  0  0
  -10.9800   -1.5403  -11.2410 H   0  0  0  0  0  0  0  0  0  0  0  0
  1  3  2  0  0  0  0
  1  5  1  0  0  0  0
  2  4  1  0  0  0  0
  2  6  2  0  0  0  0
  3  7  1  0  0  0  0
  4  7  2  0  0  0  0
  5  9  2  0  0  0  0
  6 10  1  0  0  0  0
  7  8  1  0  0  0  0
  8  9  1  0  0  0  0
  8 10  2  0  0  0  0
  9 11  1  0  0  0  0
 10 17  1  0  0  0  0
 11 17  2  0  0  0  0
 11 18  1  0  0  0  0
 12 14  1  0  0  0  0
 12 18  1  0  0  0  0
 13 15  1  0  0  0  0
 13 18  1  0  0  0  0
 14 19  1  0  0  0  0
 15 19  1  0  0  0  0
 16 19  1  0  0  0  0
  1 20  1  0  0  0  0
  2 21  1  0  0  0  0
  3 22  1  0  0  0  0
  4 23  1  0  0  0  0
  5 24  1  0  0  0  0
  6 25  1  0  0  0  0
 12 26  1  0  0  0  0
 12 27  1  0  0  0  0
 13 28  1  0  0  0  0
 13 29  1  0  0  0  0
 14 30  1  0  0  0  0
 14 31  1  0  0  0  0
 15 32  1  0  0  0  0
 15 33  1  0  0  0  0
 16 34  1  0  0  0  0
 16 35  1  0  0  0  0
 16 36  1  0  0  0  0
M  END
> <id>
EN300-1655760

> <smiles>
Cl.CN1CCN(CC1)C2=NC=3C=CC=C4C=CC=C2C34

> <MDLNUMBER>
MFCD31689893

> <IUPAC Name>
3-(4-methylpiperazin-1-yl)-2-azatricyclo[6.3.1.0,4,12]dodeca-1(12),2,4,6,8,10-hexaene hydrochloride

> <CAS>
2172023-13-9

> <Purity>
95

> <URL>
https://www.enaminestore.com/catalog/EN300-1655760

> <Saltdate>
Cl

> <ROCS_ShapeQuery>
amalgated

> <ROCS_TanimotoCombo>
0.947 

> <ROCS_ShapeTanimoto>
0.672 

> <ROCS_ColorTanimoto>
0.275 

> <ROCS_RefTversky>
0.630 

> <ROCS_RefColorTversky>
0.404 

> <ROCS_RefTverskyCombo>
1.034 

> <ROCS_FitTversky>
1.110 

> <ROCS_FitColorTversky>
0.461 

> <ROCS_FitTverskyCombo>
1.572 

> <ROCS_ColorScore>
-2.812

> <ROCS_Overlap>
1039.460

> <ROCS_Rank>
13                  

$$$$
untitled-dbase-46866_2
  -OEChem-10092318153D

 39 42  0     0  0  0  0  0  0999 V2000
   -9.0126   -3.3473  -16.0301 C   0  0  0  0  0  0  0  0  0  0  0  0
   -9.4771   -3.2117  -17.3289 C   0  0  0  0  0  0  0  0  0  0  0  0
   -8.5228   -2.2320  -15.3521 C   0  0  0  0  0  0  0  0  0  0  0  0
   -9.4221   -1.9659  -17.9511 C   0  0  0  0  0  0  0  0  0  0  0  0
   -7.3028    1.8656  -19.1969 C   0  0  0  0  0  0  0  0  0  0  0  0
   -6.2151    2.7351  -19.2429 C   0  0  0  0  0  0  0  0  0  0  0  0
   -5.9764    2.5044  -16.8648 C   0  0  0  0  0  0  0  0  0  0  0  0
   -8.4854   -0.9633  -15.9653 C   0  0  0  0  0  0  0  0  0  0  0  0
   -7.0732    1.6228  -16.8000 C   0  0  0  0  0  0  0  0  0  0  0  0
   -8.9137   -0.8260  -17.2901 C   0  0  0  0  0  0  0  0  0  0  0  0
   -7.7435    1.2943  -17.9831 C   0  0  0  0  0  0  0  0  0  0  0  0
   -5.5438    3.0499  -18.0722 C   0  0  0  0  0  0  0  0  0  0  0  0
   -8.1021    0.2041  -15.1145 C   0  0  0  0  0  0  0  0  0  0  0  0
   -9.9951    0.5724  -11.9986 C   0  0  0  0  0  0  0  0  0  0  0  0
   -7.8797   -0.5763  -11.5547 C   0  0  0  0  0  0  0  0  0  0  0  0
   -9.8211    0.0125  -13.4095 C   0  0  0  0  0  0  0  0  0  0  0  0
   -7.4107    0.1988  -12.7852 C   0  0  0  0  0  0  0  0  0  0  0  0
   -7.4936    1.2851  -15.5125 N   0  0  0  0  0  0  0  0  0  0  0  0
   -8.7697    0.3407  -18.0550 N   0  0  0  0  0  0  0  0  0  0  0  0
   -9.1536   -0.1049  -11.0112 N   0  0  0  0  0  0  0  0  0  0  0  0
   -8.4269    0.1403  -13.8366 N   0  0  0  0  0  0  0  0  0  0  0  0
   -4.2009    4.1234  -18.1050 Cl  0  0  0  0  0  0  0  0  0  0  0  0
   -9.0370   -4.3155  -15.5392 H   0  0  0  0  0  0  0  0  0  0  0  0
   -9.8639   -4.0727  -17.8652 H   0  0  0  0  0  0  0  0  0  0  0  0
   -8.1726   -2.3768  -14.3327 H   0  0  0  0  0  0  0  0  0  0  0  0
   -9.7573   -1.8902  -18.9845 H   0  0  0  0  0  0  0  0  0  0  0  0
   -7.8025    1.6114  -20.1303 H   0  0  0  0  0  0  0  0  0  0  0  0
   -5.9029    3.1487  -20.1979 H   0  0  0  0  0  0  0  0  0  0  0  0
   -5.4683    2.7812  -15.9410 H   0  0  0  0  0  0  0  0  0  0  0  0
   -9.7426    1.6436  -12.0001 H   0  0  0  0  0  0  0  0  0  0  0  0
  -11.0521    0.5132  -11.6918 H   0  0  0  0  0  0  0  0  0  0  0  0
   -7.9507   -1.6555  -11.7887 H   0  0  0  0  0  0  0  0  0  0  0  0
   -7.1111   -0.5000  -10.7650 H   0  0  0  0  0  0  0  0  0  0  0  0
  -10.1494   -1.0354  -13.4240 H   0  0  0  0  0  0  0  0  0  0  0  0
  -10.4549    0.5572  -14.1232 H   0  0  0  0  0  0  0  0  0  0  0  0
   -7.2308    1.2532  -12.5338 H   0  0  0  0  0  0  0  0  0  0  0  0
   -6.4543   -0.2167  -13.1294 H   0  0  0  0  0  0  0  0  0  0  0  0
   -9.2958    0.3480  -18.9234 H   0  0  0  0  0  0  0  0  0  0  0  0
   -8.9576    0.5549  -10.2386 H   0  0  0  0  0  0  0  0  0  0  0  0
  1  2  2  0  0  0  0
  1  3  1  0  0  0  0
  2  4  1  0  0  0  0
  3  8  2  0  0  0  0
  4 10  2  0  0  0  0
  5  6  1  0  0  0  0
  5 11  2  0  0  0  0
  6 12  2  0  0  0  0
  7  9  2  0  0  0  0
  7 12  1  0  0  0  0
  8 10  1  0  0  0  0
  8 13  1  0  0  0  0
  9 11  1  0  0  0  0
  9 18  1  0  0  0  0
 10 19  1  0  0  0  0
 11 19  1  0  0  0  0
 12 22  1  0  0  0  0
 13 18  2  0  0  0  0
 13 21  1  0  0  0  0
 14 16  1  0  0  0  0
 14 20  1  0  0  0  0
 15 17  1  0  0  0  0
 15 20  1  0  0  0  0
 16 21  1  0  0  0  0
 17 21  1  0  0  0  0
  1 23  1  0  0  0  0
  2 24  1  0  0  0  0
  3 25  1  0  0  0  0
  4 26  1  0  0  0  0
  5 27  1  0  0  0  0
  6 28  1  0  0  0  0
  7 29  1  0  0  0  0
 14 30  1  0  0  0  0
 14 31  1  0  0  0  0
 15 32  1  0  0  0  0
 15 33  1  0  0  0  0
 16 34  1  0  0  0  0
 16 35  1  0  0  0  0
 17 36  1  0  0  0  0
 17 37  1  0  0  0  0
 19 38  1  0  0  0  0
 20 39  1  0  0  0  0
M  END
> <id>
EN300-6732832

> <smiles>
ClC=1C=CC=2NC=3C=CC=CC3C(=NC2C1)N4CCNCC4

> <MDLNUMBER>
MFCD00210189

> <IUPAC Name>
6-chloro-10-(piperazin-1-yl)-2,9-diazatricyclo[9.4.0.0,3,8]pentadeca-1(11),3(8),4,6,9,12,14-heptaene

> <CAS>
6104-71-8

> <URL>
https://www.enaminestore.com/catalog/EN300-6732832

> <ROCS_ShapeQuery>
amalgated

> <ROCS_TanimotoCombo>
0.945 

> <ROCS_ShapeTanimoto>
0.634 

> <ROCS_ColorTanimoto>
0.311 

> <ROCS_RefTversky>
0.633 

> <ROCS_RefColorTversky>
0.505 

> <ROCS_RefTverskyCombo>
1.138 

> <ROCS_FitTversky>
1.000 

> <ROCS_FitColorTversky>
0.447 

> <ROCS_FitTverskyCombo>
1.447 

> <ROCS_ColorScore>
-3.557

> <ROCS_Overlap>
1048.724

> <ROCS_Rank>
14                  

$$$$
untitled-dbase-16243_9
  -OEChem-10092318153D

 36 39  0     0  0  0  0  0  0999 V2000
   -9.1229   -2.7542  -17.3736 C   0  0  0  0  0  0  0  0  0  0  0  0
   -8.4660   -2.0707  -18.4251 C   0  0  0  0  0  0  0  0  0  0  0  0
   -9.2408   -2.1915  -16.0893 C   0  0  0  0  0  0  0  0  0  0  0  0
   -6.7442    1.3092  -18.6403 C   0  0  0  0  0  0  0  0  0  0  0  0
   -7.9087   -0.7938  -18.2007 C   0  0  0  0  0  0  0  0  0  0  0  0
   -8.0616   -0.2992  -16.9103 C   0  0  0  0  0  0  0  0  0  0  0  0
   -8.6900   -0.9443  -15.8919 C   0  0  0  0  0  0  0  0  0  0  0  0
   -7.6157    0.9025  -16.4449 C   0  0  0  0  0  0  0  0  0  0  0  0
   -7.2205    0.0563  -19.0891 C   0  0  0  0  0  0  0  0  0  0  0  0
   -6.9401    1.7391  -17.3130 C   0  0  0  0  0  0  0  0  0  0  0  0
   -8.5883   -0.0188  -14.7471 C   0  0  0  0  0  0  0  0  0  0  0  0
  -10.1396    0.5210  -12.9412 C   0  0  0  0  0  0  0  0  0  0  0  0
   -8.6656   -1.5209  -12.8243 C   0  0  0  0  0  0  0  0  0  0  0  0
   -9.7194    0.8454  -11.5094 C   0  0  0  0  0  0  0  0  0  0  0  0
   -8.3028   -1.1165  -11.3972 C   0  0  0  0  0  0  0  0  0  0  0  0
  -10.4945   -1.1433  -10.3394 C   0  0  0  0  0  0  0  0  0  0  0  0
   -7.9472    1.0783  -15.0843 N   0  0  0  0  0  0  0  0  0  0  0  0
   -9.1000   -0.3205  -13.5619 N   0  0  0  0  0  0  0  0  0  0  0  0
   -9.3402   -0.3309  -10.7145 N   0  0  0  0  0  0  0  0  0  0  0  0
   -6.9368   -0.3930  -20.7310 Cl  0  0  0  0  0  0  0  0  0  0  0  0
   -6.3502    3.2682  -16.8008 Cl  0  0  0  0  0  0  0  0  0  0  0  0
   -9.5462   -3.7375  -17.5648 H   0  0  0  0  0  0  0  0  0  0  0  0
   -8.4023   -2.5486  -19.3984 H   0  0  0  0  0  0  0  0  0  0  0  0
   -9.7471   -2.7279  -15.2953 H   0  0  0  0  0  0  0  0  0  0  0  0
   -6.2139    1.9585  -19.3358 H   0  0  0  0  0  0  0  0  0  0  0  0
  -11.1104    0.0113  -12.9307 H   0  0  0  0  0  0  0  0  0  0  0  0
  -10.2530    1.4379  -13.5326 H   0  0  0  0  0  0  0  0  0  0  0  0
   -7.8008   -1.9590  -13.3380 H   0  0  0  0  0  0  0  0  0  0  0  0
   -9.4562   -2.2803  -12.7994 H   0  0  0  0  0  0  0  0  0  0  0  0
   -8.8614    1.5477  -11.5605 H   0  0  0  0  0  0  0  0  0  0  0  0
  -10.5334    1.4118  -11.0054 H   0  0  0  0  0  0  0  0  0  0  0  0
   -8.0503   -2.0259  -10.8084 H   0  0  0  0  0  0  0  0  0  0  0  0
   -7.3636   -0.5267  -11.4418 H   0  0  0  0  0  0  0  0  0  0  0  0
  -10.1584   -2.0079   -9.7481 H   0  0  0  0  0  0  0  0  0  0  0  0
  -11.1900   -0.5374   -9.7401 H   0  0  0  0  0  0  0  0  0  0  0  0
  -11.0049   -1.4965  -11.2476 H   0  0  0  0  0  0  0  0  0  0  0  0
  1  2  2  0  0  0  0
  1  3  1  0  0  0  0
  2  5  1  0  0  0  0
  3  7  2  0  0  0  0
  4  9  1  0  0  0  0
  4 10  2  0  0  0  0
  5  6  1  0  0  0  0
  5  9  2  0  0  0  0
  6  7  1  0  0  0  0
  6  8  2  0  0  0  0
  7 11  1  0  0  0  0
  8 10  1  0  0  0  0
  8 17  1  0  0  0  0
  9 20  1  0  0  0  0
 10 21  1  0  0  0  0
 11 17  2  0  0  0  0
 11 18  1  0  0  0  0
 12 14  1  0  0  0  0
 12 18  1  0  0  0  0
 13 15  1  0  0  0  0
 13 18  1  0  0  0  0
 14 19  1  0  0  0  0
 15 19  1  0  0  0  0
 16 19  1  0  0  0  0
  1 22  1  0  0  0  0
  2 23  1  0  0  0  0
  3 24  1  0  0  0  0
  4 25  1  0  0  0  0
 12 26  1  0  0  0  0
 12 27  1  0  0  0  0
 13 28  1  0  0  0  0
 13 29  1  0  0  0  0
 14 30  1  0  0  0  0
 14 31  1  0  0  0  0
 15 32  1  0  0  0  0
 15 33  1  0  0  0  0
 16 34  1  0  0  0  0
 16 35  1  0  0  0  0
 16 36  1  0  0  0  0
M  END
> <id>
EN300-1387296

> <smiles>
CN1CCN(CC1)C2=NC=3C(Cl)=CC(Cl)=C4C=CC=C2C34

> <MDLNUMBER>
MFCD02723233

> <IUPAC Name>
9,11-dichloro-3-(4-methylpiperazin-1-yl)-2-azatricyclo[6.3.1.0,4,12]dodeca-1(12),2,4,6,8,10-hexaene

> <CAS>
380309-37-5

> <Purity>
95

> <URL>
https://www.enaminestore.com/catalog/EN300-1387296

> <ROCS_ShapeQuery>
amalgated

> <ROCS_TanimotoCombo>
0.942 

> <ROCS_ShapeTanimoto>
0.667 

> <ROCS_ColorTanimoto>
0.275 

> <ROCS_RefTversky>
0.643 

> <ROCS_RefColorTversky>
0.405 

> <ROCS_RefTverskyCombo>
1.048 

> <ROCS_FitTversky>
1.059 

> <ROCS_FitColorTversky>
0.462 

> <ROCS_FitTverskyCombo>
1.520 

> <ROCS_ColorScore>
-2.814

> <ROCS_Overlap>
1063.618

> <ROCS_Rank>
15                  

$$$$
untitled-dbase-30067_3
  -OEChem-10092318153D

 41 42  0     1  0  0  0  0  0999 V2000
   -6.8115    1.5512  -19.0775 C   0  0  0  0  0  0  0  0  0  0  0  0
   -6.6314    2.0000  -17.7794 C   0  0  0  0  0  0  0  0  0  0  0  0
   -7.4964    0.3600  -19.3035 C   0  0  0  0  0  0  0  0  0  0  0  0
   -7.1279    1.2525  -16.7115 C   0  0  0  0  0  0  0  0  0  0  0  0
   -8.0216   -0.4135  -18.2411 C   0  0  0  0  0  0  0  0  0  0  0  0
   -7.8208    0.0400  -16.9140 C   0  0  0  0  0  0  0  0  0  0  0  0
   -8.7557   -0.0624  -14.6140 C   0  0  0  0  0  0  0  0  0  0  0  0
   -9.4025   -2.7985  -16.4158 C   0  0  0  0  0  0  0  0  0  0  0  0
   -9.9156   -2.0889  -17.6670 C   0  0  0  0  0  0  0  0  0  0  0  0
   -8.1478   -2.1667  -15.8358 C   0  0  0  0  0  0  0  0  0  0  0  0
   -8.8278   -1.6414  -18.6581 C   0  0  2  0  0  0  0  0  0  0  0  0
  -10.5853   -0.0804  -12.4082 C   0  0  0  0  0  0  0  0  0  0  0  0
   -8.7429   -1.2096  -11.1278 C   0  0  0  0  0  0  0  0  0  0  0  0
   -8.4049    1.1146  -12.0178 C   0  0  0  0  0  0  0  0  0  0  0  0
   -9.0729   -0.2383  -12.2591 C   0  0  0  0  0  0  0  0  0  0  0  0
   -8.2477   -0.7062  -15.7607 N   0  0  0  0  0  0  0  0  0  0  0  0
   -7.9579   -2.7605  -19.0357 N   0  0  0  0  0  0  0  0  0  0  0  0
   -9.3528    1.0126  -14.6062 O   0  0  0  0  0  0  0  0  0  0  0  0
   -8.5510   -0.7947  -13.4715 O   0  0  0  0  0  0  0  0  0  0  0  0
   -6.4241    2.1246  -19.9141 H   0  0  0  0  0  0  0  0  0  0  0  0
   -6.0913    2.9232  -17.5914 H   0  0  0  0  0  0  0  0  0  0  0  0
   -7.6380    0.0368  -20.3336 H   0  0  0  0  0  0  0  0  0  0  0  0
   -6.9120    1.6163  -15.7096 H   0  0  0  0  0  0  0  0  0  0  0  0
  -10.2005   -2.8073  -15.6633 H   0  0  0  0  0  0  0  0  0  0  0  0
   -9.1909   -3.8496  -16.6473 H   0  0  0  0  0  0  0  0  0  0  0  0
  -10.6135   -2.7677  -18.1756 H   0  0  0  0  0  0  0  0  0  0  0  0
  -10.5144   -1.2179  -17.3685 H   0  0  0  0  0  0  0  0  0  0  0  0
   -7.9680   -2.5824  -14.8379 H   0  0  0  0  0  0  0  0  0  0  0  0
   -7.2558   -2.4319  -16.4161 H   0  0  0  0  0  0  0  0  0  0  0  0
   -9.3829   -1.3515  -19.5621 H   0  0  0  0  0  0  0  0  0  0  0  0
  -10.8263    0.6160  -13.2194 H   0  0  0  0  0  0  0  0  0  0  0  0
  -11.0724   -1.0386  -12.6164 H   0  0  0  0  0  0  0  0  0  0  0  0
  -11.0261    0.3413  -11.4976 H   0  0  0  0  0  0  0  0  0  0  0  0
   -7.6587   -1.3259  -11.0172 H   0  0  0  0  0  0  0  0  0  0  0  0
   -9.1402   -2.2082  -11.3424 H   0  0  0  0  0  0  0  0  0  0  0  0
   -9.1545   -0.8708  -10.1716 H   0  0  0  0  0  0  0  0  0  0  0  0
   -7.3200    1.0016  -11.9108 H   0  0  0  0  0  0  0  0  0  0  0  0
   -8.6004    1.8129  -12.8380 H   0  0  0  0  0  0  0  0  0  0  0  0
   -8.7624    1.5647  -11.0846 H   0  0  0  0  0  0  0  0  0  0  0  0
   -8.5344   -3.4975  -19.3607 H   0  0  0  0  0  0  0  0  0  0  0  0
   -7.3490   -2.4441  -19.7500 H   0  0  0  0  0  0  0  0  0  0  0  0
  1  2  2  0  0  0  0
  1  3  1  0  0  0  0
  2  4  1  0  0  0  0
  3  5  2  0  0  0  0
  4  6  2  0  0  0  0
  5  6  1  0  0  0  0
  5 11  1  0  0  0  0
  6 16  1  0  0  0  0
  7 16  1  0  0  0  0
  7 18  2  0  0  0  0
  7 19  1  0  0  0  0
  8  9  1  0  0  0  0
  8 10  1  0  0  0  0
  9 11  1  0  0  0  0
 10 16  1  0  0  0  0
 11 17  1  0  0  0  0
 12 15  1  0  0  0  0
 13 15  1  0  0  0  0
 14 15  1  0  0  0  0
 15 19  1  0  0  0  0
  1 20  1  0  0  0  0
  2 21  1  0  0  0  0
  3 22  1  0  0  0  0
  4 23  1  0  0  0  0
  8 24  1  0  0  0  0
  8 25  1  0  0  0  0
  9 26  1  0  0  0  0
  9 27  1  0  0  0  0
 10 28  1  0  0  0  0
 10 29  1  0  0  0  0
 11 30  1  0  0  0  0
 12 31  1  0  0  0  0
 12 32  1  0  0  0  0
 12 33  1  0  0  0  0
 13 34  1  0  0  0  0
 13 35  1  0  0  0  0
 13 36  1  0  0  0  0
 14 37  1  0  0  0  0
 14 38  1  0  0  0  0
 14 39  1  0  0  0  0
 17 40  1  0  0  0  0
 17 41  1  0  0  0  0
M  END
> <id>
EN300-1223396

> <smiles>
CC(C)(C)OC(=O)N1CCCC(N)C=2C=CC=CC12

> <MDLNUMBER>
MFCD03426405

> <IUPAC Name>
tert-butyl 5-amino-2,3,4,5-tetrahydro-1H-1-benzazepine-1-carboxylate

> <CAS>
811841-95-9

> <Purity>
95

> <URL>
https://www.enaminestore.com/catalog/EN300-1223396

> <ROCS_ShapeQuery>
amalgated

> <ROCS_TanimotoCombo>
0.941 

> <ROCS_ShapeTanimoto>
0.631 

> <ROCS_ColorTanimoto>
0.310 

> <ROCS_RefTversky>
0.594 

> <ROCS_RefColorTversky>
0.443 

> <ROCS_RefTverskyCombo>
1.037 

> <ROCS_FitTversky>
1.109 

> <ROCS_FitColorTversky>
0.509 

> <ROCS_FitTverskyCombo>
1.617 

> <ROCS_ColorScore>
-3.078

> <ROCS_Overlap>
978.787

> <ROCS_Rank>
16                  

$$$$
untitled-dbase-30611_61
  -OEChem-10092318153D

 38 39  0     1  0  0  0  0  0999 V2000
   -7.5475    1.1786  -16.3873 C   0  0  0  0  0  0  0  0  0  0  0  0
   -7.0291    1.9251  -17.4476 C   0  0  0  0  0  0  0  0  0  0  0  0
   -7.6140    0.1597  -18.9672 C   0  0  0  0  0  0  0  0  0  0  0  0
   -8.1170   -0.6238  -17.9082 C   0  0  0  0  0  0  0  0  0  0  0  0
   -8.0853   -0.1056  -16.5887 C   0  0  0  0  0  0  0  0  0  0  0  0
   -7.0608    1.4160  -18.7370 C   0  0  0  0  0  0  0  0  0  0  0  0
   -8.4045   -0.6736  -14.1351 C   0  0  0  0  0  0  0  0  0  0  0  0
   -9.0187   -2.7943  -16.9652 C   0  0  0  0  0  0  0  0  0  0  0  0
   -9.6145   -1.9084  -15.8882 C   0  0  0  0  0  0  0  0  0  0  0  0
   -8.7458   -1.9730  -18.2256 C   0  0  2  0  0  0  0  0  0  0  0  0
   -9.6764    1.3740  -12.5861 C   0  0  0  0  0  0  0  0  0  0  0  0
  -10.8635   -0.5069  -11.4188 C   0  0  0  0  0  0  0  0  0  0  0  0
   -8.3615   -0.3323  -11.2844 C   0  0  0  0  0  0  0  0  0  0  0  0
   -9.5928   -0.0899  -12.1562 C   0  0  0  0  0  0  0  0  0  0  0  0
   -8.6623   -0.8612  -15.5071 N   0  0  0  0  0  0  0  0  0  0  0  0
   -7.9458   -2.8137  -19.1222 N   0  0  0  0  0  0  0  0  0  0  0  0
   -7.3298   -0.2671  -13.6925 O   0  0  0  0  0  0  0  0  0  0  0  0
   -9.4880   -0.9045  -13.3300 O   0  0  0  0  0  0  0  0  0  0  0  0
   -6.4134    2.3279  -20.0449 Cl  0  0  0  0  0  0  0  0  0  0  0  0
   -7.4960    1.6525  -15.4190 H   0  0  0  0  0  0  0  0  0  0  0  0
   -6.6002    2.9022  -17.2472 H   0  0  0  0  0  0  0  0  0  0  0  0
   -7.6578   -0.2279  -19.9852 H   0  0  0  0  0  0  0  0  0  0  0  0
   -8.0993   -3.2610  -16.6032 H   0  0  0  0  0  0  0  0  0  0  0  0
   -9.7164   -3.6053  -17.1957 H   0  0  0  0  0  0  0  0  0  0  0  0
  -10.5179   -1.4653  -16.2867 H   0  0  0  0  0  0  0  0  0  0  0  0
   -9.8638   -2.4694  -14.9967 H   0  0  0  0  0  0  0  0  0  0  0  0
   -9.7335   -1.8221  -18.7141 H   0  0  0  0  0  0  0  0  0  0  0  0
   -8.7662    1.6772  -13.1157 H   0  0  0  0  0  0  0  0  0  0  0  0
  -10.5357    1.5538  -13.2403 H   0  0  0  0  0  0  0  0  0  0  0  0
   -9.7610    2.0332  -11.7146 H   0  0  0  0  0  0  0  0  0  0  0  0
  -10.8078   -1.5566  -11.1085 H   0  0  0  0  0  0  0  0  0  0  0  0
  -11.7391   -0.4243  -12.0728 H   0  0  0  0  0  0  0  0  0  0  0  0
  -11.0353    0.1087  -10.5300 H   0  0  0  0  0  0  0  0  0  0  0  0
   -8.3013   -1.3823  -10.9759 H   0  0  0  0  0  0  0  0  0  0  0  0
   -7.4372   -0.0732  -11.8108 H   0  0  0  0  0  0  0  0  0  0  0  0
   -8.4145    0.2583  -10.3625 H   0  0  0  0  0  0  0  0  0  0  0  0
   -8.4242   -3.6731  -19.2429 H   0  0  0  0  0  0  0  0  0  0  0  0
   -7.8520   -2.3359  -19.9853 H   0  0  0  0  0  0  0  0  0  0  0  0
  1  2  1  0  0  0  0
  1  5  2  0  0  0  0
  2  6  2  0  0  0  0
  3  4  2  0  0  0  0
  3  6  1  0  0  0  0
  4  5  1  0  0  0  0
  4 10  1  0  0  0  0
  5 15  1  0  0  0  0
  6 19  1  0  0  0  0
  7 15  1  0  0  0  0
  7 17  2  0  0  0  0
  7 18  1  0  0  0  0
  8  9  1  0  0  0  0
  8 10  1  0  0  0  0
  9 15  1  0  0  0  0
 10 16  1  0  0  0  0
 11 14  1  0  0  0  0
 12 14  1  0  0  0  0
 13 14  1  0  0  0  0
 14 18  1  0  0  0  0
  1 20  1  0  0  0  0
  2 21  1  0  0  0  0
  3 22  1  0  0  0  0
  8 23  1  0  0  0  0
  8 24  1  0  0  0  0
  9 25  1  0  0  0  0
  9 26  1  0  0  0  0
 10 27  1  0  0  0  0
 11 28  1  0  0  0  0
 11 29  1  0  0  0  0
 11 30  1  0  0  0  0
 12 31  1  0  0  0  0
 12 32  1  0  0  0  0
 12 33  1  0  0  0  0
 13 34  1  0  0  0  0
 13 35  1  0  0  0  0
 13 36  1  0  0  0  0
 16 37  1  0  0  0  0
 16 38  1  0  0  0  0
M  END
> <id>
EN300-180995

> <smiles>
CC(C)(C)OC(=O)N1CCC(N)C=2C=C(Cl)C=CC12

> <MDLNUMBER>
MFCD28126831

> <IUPAC Name>
tert-butyl 4-amino-6-chloro-1,2,3,4-tetrahydroquinoline-1-carboxylate

> <CAS>
1823485-35-3

> <Purity>
95

> <URL>
https://www.enaminestore.com/catalog/EN300-180995

> <ROCS_ShapeQuery>
amalgated

> <ROCS_TanimotoCombo>
0.937 

> <ROCS_ShapeTanimoto>
0.656 

> <ROCS_ColorTanimoto>
0.281 

> <ROCS_RefTversky>
0.608 

> <ROCS_RefColorTversky>
0.410 

> <ROCS_RefTverskyCombo>
1.018 

> <ROCS_FitTversky>
1.139 

> <ROCS_FitColorTversky>
0.471 

> <ROCS_FitTverskyCombo>
1.610 

> <ROCS_ColorScore>
-2.850

> <ROCS_Overlap>
1000.968

> <ROCS_Rank>
17                  

$$$$
untitled-dbase-47651_10
  -OEChem-10092318153D

 34 36  0     0  0  0  0  0  0999 V2000
   -8.1284   -1.8809  -18.5506 C   0  0  0  0  0  0  0  0  0  0  0  0
   -8.8158   -2.8856  -17.8701 C   0  0  0  0  0  0  0  0  0  0  0  0
   -7.9374   -0.6351  -17.9532 C   0  0  0  0  0  0  0  0  0  0  0  0
   -9.3189   -2.6474  -16.5909 C   0  0  0  0  0  0  0  0  0  0  0  0
   -8.4262   -0.3958  -16.6655 C   0  0  0  0  0  0  0  0  0  0  0  0
   -9.1207   -1.4053  -15.9795 C   0  0  0  0  0  0  0  0  0  0  0  0
   -8.2371    0.9279  -15.9781 C   0  0  0  0  0  0  0  0  0  0  0  0
   -9.7268   -1.0855  -14.6373 C   0  0  0  0  0  0  0  0  0  0  0  0
   -7.8142    0.6650  -14.5335 C   0  0  0  0  0  0  0  0  0  0  0  0
   -8.0603   -1.0439  -12.6978 C   0  0  0  0  0  0  0  0  0  0  0  0
   -9.8077    0.7807  -12.9437 C   0  0  0  0  0  0  0  0  0  0  0  0
   -8.8475   -1.2700  -11.4087 C   0  0  0  0  0  0  0  0  0  0  0  0
   -9.2658    1.1439  -11.5627 C   0  0  0  0  0  0  0  0  0  0  0  0
   -8.8500   -0.1724  -13.7193 C   0  0  0  0  0  0  0  0  0  0  0  0
   -9.1047   -0.0200  -10.6904 N   0  0  0  0  0  0  0  0  0  0  0  0
   -7.7415   -2.0697  -19.5485 H   0  0  0  0  0  0  0  0  0  0  0  0
   -8.9598   -3.8559  -18.3381 H   0  0  0  0  0  0  0  0  0  0  0  0
   -7.4087    0.1385  -18.4967 H   0  0  0  0  0  0  0  0  0  0  0  0
   -9.8624   -3.4344  -16.0809 H   0  0  0  0  0  0  0  0  0  0  0  0
   -7.4726    1.4834  -16.4925 H   0  0  0  0  0  0  0  0  0  0  0  0
   -9.1607    1.4802  -15.9758 H   0  0  0  0  0  0  0  0  0  0  0  0
  -10.6826   -0.5796  -14.8335 H   0  0  0  0  0  0  0  0  0  0  0  0
   -9.9699   -2.0201  -14.1190 H   0  0  0  0  0  0  0  0  0  0  0  0
   -6.8351    0.1655  -14.5320 H   0  0  0  0  0  0  0  0  0  0  0  0
   -7.6631    1.6294  -14.0245 H   0  0  0  0  0  0  0  0  0  0  0  0
   -7.1226   -0.5401  -12.4508 H   0  0  0  0  0  0  0  0  0  0  0  0
   -7.7997   -2.0126  -13.1240 H   0  0  0  0  0  0  0  0  0  0  0  0
  -10.7950    0.3242  -12.8392 H   0  0  0  0  0  0  0  0  0  0  0  0
   -9.9452    1.7017  -13.5197 H   0  0  0  0  0  0  0  0  0  0  0  0
   -9.7929   -1.7897  -11.6113 H   0  0  0  0  0  0  0  0  0  0  0  0
   -8.2691   -1.9327  -10.7524 H   0  0  0  0  0  0  0  0  0  0  0  0
   -8.2813    1.6254  -11.6835 H   0  0  0  0  0  0  0  0  0  0  0  0
   -9.9086    1.8973  -11.0758 H   0  0  0  0  0  0  0  0  0  0  0  0
   -9.9519   -0.1309  -10.1171 H   0  0  0  0  0  0  0  0  0  0  0  0
  1  2  2  0  0  0  0
  1  3  1  0  0  0  0
  2  4  1  0  0  0  0
  3  5  2  0  0  0  0
  4  6  2  0  0  0  0
  5  6  1  0  0  0  0
  5  7  1  0  0  0  0
  6  8  1  0  0  0  0
  7  9  1  0  0  0  0
  8 14  1  0  0  0  0
  9 14  1  0  0  0  0
 10 12  1  0  0  0  0
 10 14  1  0  0  0  0
 11 13  1  0  0  0  0
 11 14  1  0  0  0  0
 12 15  1  0  0  0  0
 13 15  1  0  0  0  0
  1 16  1  0  0  0  0
  2 17  1  0  0  0  0
  3 18  1  0  0  0  0
  4 19  1  0  0  0  0
  7 20  1  0  0  0  0
  7 21  1  0  0  0  0
  8 22  1  0  0  0  0
  8 23  1  0  0  0  0
  9 24  1  0  0  0  0
  9 25  1  0  0  0  0
 10 26  1  0  0  0  0
 10 27  1  0  0  0  0
 11 28  1  0  0  0  0
 11 29  1  0  0  0  0
 12 30  1  0  0  0  0
 12 31  1  0  0  0  0
 13 32  1  0  0  0  0
 13 33  1  0  0  0  0
 15 34  1  0  0  0  0
M  END
> <id>
EN300-256191

> <smiles>
Cl.C1CC2(CCN1)CCC=3C=CC=CC3C2

> <MDLNUMBER>
MFCD18711483

> <IUPAC Name>
3,4-dihydro-1H-spiro[naphthalene-2,4'-piperidine] hydrochloride

> <CAS>
1272758-22-1

> <Purity>
95

> <URL>
https://www.enaminestore.com/catalog/EN300-256191

> <Saltdate>
Cl

> <ROCS_ShapeQuery>
amalgated

> <ROCS_TanimotoCombo>
0.937 

> <ROCS_ShapeTanimoto>
0.555 

> <ROCS_ColorTanimoto>
0.381 

> <ROCS_RefTversky>
0.513 

> <ROCS_RefColorTversky>
0.480 

> <ROCS_RefTverskyCombo>
0.993 

> <ROCS_FitTversky>
1.177 

> <ROCS_FitColorTversky>
0.649 

> <ROCS_FitTverskyCombo>
1.826 

> <ROCS_ColorScore>
-3.314

> <ROCS_Overlap>
839.905

> <ROCS_Rank>
18                  

$$$$
untitled-dbase-47536_10
  -OEChem-10092318153D

 34 36  0     0  0  0  0  0  0999 V2000
   -8.1284   -1.8809  -18.5506 C   0  0  0  0  0  0  0  0  0  0  0  0
   -8.8158   -2.8856  -17.8701 C   0  0  0  0  0  0  0  0  0  0  0  0
   -7.9374   -0.6351  -17.9532 C   0  0  0  0  0  0  0  0  0  0  0  0
   -9.3189   -2.6474  -16.5909 C   0  0  0  0  0  0  0  0  0  0  0  0
   -8.4262   -0.3958  -16.6655 C   0  0  0  0  0  0  0  0  0  0  0  0
   -9.1207   -1.4053  -15.9795 C   0  0  0  0  0  0  0  0  0  0  0  0
   -8.2371    0.9279  -15.9781 C   0  0  0  0  0  0  0  0  0  0  0  0
   -9.7268   -1.0855  -14.6373 C   0  0  0  0  0  0  0  0  0  0  0  0
   -7.8142    0.6650  -14.5335 C   0  0  0  0  0  0  0  0  0  0  0  0
   -8.0603   -1.0439  -12.6978 C   0  0  0  0  0  0  0  0  0  0  0  0
   -9.8077    0.7807  -12.9437 C   0  0  0  0  0  0  0  0  0  0  0  0
   -8.8475   -1.2700  -11.4087 C   0  0  0  0  0  0  0  0  0  0  0  0
   -9.2658    1.1439  -11.5627 C   0  0  0  0  0  0  0  0  0  0  0  0
   -8.8500   -0.1724  -13.7193 C   0  0  0  0  0  0  0  0  0  0  0  0
   -9.1047   -0.0200  -10.6904 N   0  0  0  0  0  0  0  0  0  0  0  0
   -7.7415   -2.0697  -19.5485 H   0  0  0  0  0  0  0  0  0  0  0  0
   -8.9598   -3.8559  -18.3381 H   0  0  0  0  0  0  0  0  0  0  0  0
   -7.4087    0.1385  -18.4967 H   0  0  0  0  0  0  0  0  0  0  0  0
   -9.8624   -3.4344  -16.0809 H   0  0  0  0  0  0  0  0  0  0  0  0
   -7.4726    1.4834  -16.4925 H   0  0  0  0  0  0  0  0  0  0  0  0
   -9.1607    1.4802  -15.9758 H   0  0  0  0  0  0  0  0  0  0  0  0
  -10.6826   -0.5796  -14.8335 H   0  0  0  0  0  0  0  0  0  0  0  0
   -9.9699   -2.0201  -14.1190 H   0  0  0  0  0  0  0  0  0  0  0  0
   -6.8351    0.1655  -14.5320 H   0  0  0  0  0  0  0  0  0  0  0  0
   -7.6631    1.6294  -14.0245 H   0  0  0  0  0  0  0  0  0  0  0  0
   -7.1226   -0.5401  -12.4508 H   0  0  0  0  0  0  0  0  0  0  0  0
   -7.7997   -2.0126  -13.1240 H   0  0  0  0  0  0  0  0  0  0  0  0
  -10.7950    0.3242  -12.8392 H   0  0  0  0  0  0  0  0  0  0  0  0
   -9.9452    1.7017  -13.5197 H   0  0  0  0  0  0  0  0  0  0  0  0
   -9.7929   -1.7897  -11.6113 H   0  0  0  0  0  0  0  0  0  0  0  0
   -8.2691   -1.9327  -10.7524 H   0  0  0  0  0  0  0  0  0  0  0  0
   -8.2813    1.6254  -11.6835 H   0  0  0  0  0  0  0  0  0  0  0  0
   -9.9086    1.8973  -11.0758 H   0  0  0  0  0  0  0  0  0  0  0  0
   -9.9519   -0.1309  -10.1171 H   0  0  0  0  0  0  0  0  0  0  0  0
  1  2  2  0  0  0  0
  1  3  1  0  0  0  0
  2  4  1  0  0  0  0
  3  5  2  0  0  0  0
  4  6  2  0  0  0  0
  5  6  1  0  0  0  0
  5  7  1  0  0  0  0
  6  8  1  0  0  0  0
  7  9  1  0  0  0  0
  8 14  1  0  0  0  0
  9 14  1  0  0  0  0
 10 12  1  0  0  0  0
 10 14  1  0  0  0  0
 11 13  1  0  0  0  0
 11 14  1  0  0  0  0
 12 15  1  0  0  0  0
 13 15  1  0  0  0  0
  1 16  1  0  0  0  0
  2 17  1  0  0  0  0
  3 18  1  0  0  0  0
  4 19  1  0  0  0  0
  7 20  1  0  0  0  0
  7 21  1  0  0  0  0
  8 22  1  0  0  0  0
  8 23  1  0  0  0  0
  9 24  1  0  0  0  0
  9 25  1  0  0  0  0
 10 26  1  0  0  0  0
 10 27  1  0  0  0  0
 11 28  1  0  0  0  0
 11 29  1  0  0  0  0
 12 30  1  0  0  0  0
 12 31  1  0  0  0  0
 13 32  1  0  0  0  0
 13 33  1  0  0  0  0
 15 34  1  0  0  0  0
M  END
> <id>
EN300-256192

> <smiles>
C1CC2(CCN1)CCC=3C=CC=CC3C2

> <MDLNUMBER>
MFCD18277139

> <IUPAC Name>
3,4-dihydro-1H-spiro[naphthalene-2,4'-piperidine]

> <CAS>
1024605-76-2

> <URL>
https://www.enaminestore.com/catalog/EN300-256192

> <ROCS_ShapeQuery>
amalgated

> <ROCS_TanimotoCombo>
0.937 

> <ROCS_ShapeTanimoto>
0.555 

> <ROCS_ColorTanimoto>
0.381 

> <ROCS_RefTversky>
0.513 

> <ROCS_RefColorTversky>
0.480 

> <ROCS_RefTverskyCombo>
0.993 

> <ROCS_FitTversky>
1.177 

> <ROCS_FitColorTversky>
0.649 

> <ROCS_FitTverskyCombo>
1.826 

> <ROCS_ColorScore>
-3.314

> <ROCS_Overlap>
839.905

> <ROCS_Rank>
19                  

$$$$
untitled-dbase-43771_1
  -OEChem-10092318153D

 30 32  0     0  0  0  0  0  0999 V2000
   -8.6637   -1.3929  -12.8569 C   0  0  0  0  0  0  0  0  0  0  0  0
   -9.1283    0.7028  -13.1179 C   0  0  0  0  0  0  0  0  0  0  0  0
   -8.7048   -0.7002  -17.4557 C   0  0  0  0  0  0  0  0  0  0  0  0
   -8.3239   -2.5289  -16.3637 C   0  0  0  0  0  0  0  0  0  0  0  0
   -7.7219   -0.3546  -15.0492 C   0  0  0  0  0  0  0  0  0  0  0  0
   -9.8544   -0.8363  -15.1134 C   0  0  0  0  0  0  0  0  0  0  0  0
   -8.3899   -0.1129  -12.0229 C   0  0  0  0  0  0  0  0  0  0  0  0
   -8.9399   -2.2062  -17.7517 C   0  0  0  0  0  0  0  0  0  0  0  0
   -8.8546   -0.4623  -14.0392 C   0  0  0  0  0  0  0  0  0  0  0  0
   -8.6432   -1.0920  -15.9982 C   0  0  0  0  0  0  0  0  0  0  0  0
   -9.2078   -0.1441  -10.8182 N   0  0  0  0  0  0  0  0  0  0  0  0
   -8.0319   -2.6429  -18.8054 N   0  0  0  0  0  0  0  0  0  0  0  0
   -7.7850   -2.0363  -12.9374 H   0  0  0  0  0  0  0  0  0  0  0  0
   -9.5162   -2.0036  -12.5637 H   0  0  0  0  0  0  0  0  0  0  0  0
  -10.1720    0.9508  -12.9319 H   0  0  0  0  0  0  0  0  0  0  0  0
   -8.5948    1.6149  -13.3934 H   0  0  0  0  0  0  0  0  0  0  0  0
   -7.7665   -0.2804  -17.8390 H   0  0  0  0  0  0  0  0  0  0  0  0
   -9.5251   -0.0377  -17.7470 H   0  0  0  0  0  0  0  0  0  0  0  0
   -8.8439   -3.3052  -15.7947 H   0  0  0  0  0  0  0  0  0  0  0  0
   -7.2511   -2.7594  -16.3630 H   0  0  0  0  0  0  0  0  0  0  0  0
   -7.4945    0.6714  -15.3549 H   0  0  0  0  0  0  0  0  0  0  0  0
   -6.7898   -0.8593  -14.7866 H   0  0  0  0  0  0  0  0  0  0  0  0
  -10.4972   -1.7003  -14.9126 H   0  0  0  0  0  0  0  0  0  0  0  0
  -10.4887   -0.0065  -15.4505 H   0  0  0  0  0  0  0  0  0  0  0  0
   -7.3421    0.1354  -11.8620 H   0  0  0  0  0  0  0  0  0  0  0  0
   -9.9923   -2.4977  -17.8745 H   0  0  0  0  0  0  0  0  0  0  0  0
   -8.8303   -0.8282  -10.2079 H   0  0  0  0  0  0  0  0  0  0  0  0
   -9.1764    0.7557  -10.4027 H   0  0  0  0  0  0  0  0  0  0  0  0
   -8.0521   -3.6356  -18.8467 H   0  0  0  0  0  0  0  0  0  0  0  0
   -8.3390   -2.2527  -19.6662 H   0  0  0  0  0  0  0  0  0  0  0  0
  1  7  1  0  0  0  0
  1  9  1  0  0  0  0
  2  7  1  0  0  0  0
  2  9  1  0  0  0  0
  3  8  1  0  0  0  0
  3 10  1  0  0  0  0
  4  8  1  0  0  0  0
  4 10  1  0  0  0  0
  5  9  1  0  0  0  0
  5 10  1  0  0  0  0
  6  9  1  0  0  0  0
  6 10  1  0  0  0  0
  7 11  1  0  0  0  0
  8 12  1  0  0  0  0
  1 13  1  0  0  0  0
  1 14  1  0  0  0  0
  2 15  1  0  0  0  0
  2 16  1  0  0  0  0
  3 17  1  0  0  0  0
  3 18  1  0  0  0  0
  4 19  1  0  0  0  0
  4 20  1  0  0  0  0
  5 21  1  0  0  0  0
  5 22  1  0  0  0  0
  6 23  1  0  0  0  0
  6 24  1  0  0  0  0
  7 25  1  0  0  0  0
  8 26  1  0  0  0  0
 11 27  1  0  0  0  0
 11 28  1  0  0  0  0
 12 29  1  0  0  0  0
 12 30  1  0  0  0  0
M  END
> <id>
EN300-27783728

> <smiles>
NC1CC2(C1)CC3(CC(N)C3)C2

> <IUPAC Name>
dispiro[3.1.3^{6}.1^{4}]decane-2,8-diamine

> <URL>
https://www.enaminestore.com/catalog/EN300-27783728

> <ROCS_ShapeQuery>
amalgated

> <ROCS_TanimotoCombo>
0.933 

> <ROCS_ShapeTanimoto>
0.436 

> <ROCS_ColorTanimoto>
0.498 

> <ROCS_RefTversky>
0.413 

> <ROCS_RefColorTversky>
0.667 

> <ROCS_RefTverskyCombo>
1.080 

> <ROCS_FitTversky>
1.147 

> <ROCS_FitColorTversky>
0.663 

> <ROCS_FitTverskyCombo>
1.809 

> <ROCS_ColorScore>
-4.671

> <ROCS_Overlap>
673.417

> <ROCS_Rank>
20                  

$$$$
untitled-dbase-31208_66
  -OEChem-10092318153D

 38 39  0     1  0  0  0  0  0999 V2000
   -7.5509    0.1139  -19.0885 C   0  0  0  0  0  0  0  0  0  0  0  0
   -6.9662    1.3669  -18.9357 C   0  0  0  0  0  0  0  0  0  0  0  0
   -7.4617    1.2837  -16.5775 C   0  0  0  0  0  0  0  0  0  0  0  0
   -8.0753   -0.5914  -17.9845 C   0  0  0  0  0  0  0  0  0  0  0  0
   -8.0469    0.0091  -16.6990 C   0  0  0  0  0  0  0  0  0  0  0  0
   -6.9192    1.9493  -17.6798 C   0  0  0  0  0  0  0  0  0  0  0  0
   -8.4471   -0.2584  -14.2290 C   0  0  0  0  0  0  0  0  0  0  0  0
   -8.9190   -2.7077  -16.9125 C   0  0  0  0  0  0  0  0  0  0  0  0
   -9.5379   -1.7920  -15.8752 C   0  0  0  0  0  0  0  0  0  0  0  0
   -8.7174   -1.9496  -18.2206 C   0  0  2  0  0  0  0  0  0  0  0  0
  -10.4605    0.7514  -12.4513 C   0  0  0  0  0  0  0  0  0  0  0  0
  -10.2908   -1.4710  -11.2929 C   0  0  0  0  0  0  0  0  0  0  0  0
   -8.2957    0.0526  -11.3742 C   0  0  0  0  0  0  0  0  0  0  0  0
   -9.5435   -0.4241  -12.1162 C   0  0  0  0  0  0  0  0  0  0  0  0
   -8.6523   -0.6578  -15.5671 N   0  0  0  0  0  0  0  0  0  0  0  0
   -7.9585   -2.8344  -19.1109 N   0  0  0  0  0  0  0  0  0  0  0  0
   -7.7348    0.6680  -13.8503 O   0  0  0  0  0  0  0  0  0  0  0  0
   -9.1361   -1.0477  -13.3401 O   0  0  0  0  0  0  0  0  0  0  0  0
   -6.3494    3.1498  -17.5210 F   0  0  0  0  0  0  0  0  0  0  0  0
   -7.5976   -0.3218  -20.0864 H   0  0  0  0  0  0  0  0  0  0  0  0
   -6.5456    1.8815  -19.7956 H   0  0  0  0  0  0  0  0  0  0  0  0
   -7.3911    1.8135  -15.6385 H   0  0  0  0  0  0  0  0  0  0  0  0
   -7.9691   -3.1048  -16.5454 H   0  0  0  0  0  0  0  0  0  0  0  0
   -9.5781   -3.5658  -17.0780 H   0  0  0  0  0  0  0  0  0  0  0  0
  -10.4804   -1.4286  -16.2733 H   0  0  0  0  0  0  0  0  0  0  0  0
   -9.7389   -2.3127  -14.9434 H   0  0  0  0  0  0  0  0  0  0  0  0
   -9.7255   -1.8210  -18.6621 H   0  0  0  0  0  0  0  0  0  0  0  0
   -9.9279    1.5050  -13.0422 H   0  0  0  0  0  0  0  0  0  0  0  0
  -11.3421    0.4276  -13.0141 H   0  0  0  0  0  0  0  0  0  0  0  0
  -10.7985    1.2561  -11.5390 H   0  0  0  0  0  0  0  0  0  0  0  0
   -9.6366   -2.3162  -11.0503 H   0  0  0  0  0  0  0  0  0  0  0  0
  -11.1327   -1.8850  -11.8595 H   0  0  0  0  0  0  0  0  0  0  0  0
  -10.6753   -1.0506  -10.3581 H   0  0  0  0  0  0  0  0  0  0  0  0
   -7.6378   -0.7903  -11.1338 H   0  0  0  0  0  0  0  0  0  0  0  0
   -7.7269    0.7772  -11.9659 H   0  0  0  0  0  0  0  0  0  0  0  0
   -8.5644    0.5175  -10.4187 H   0  0  0  0  0  0  0  0  0  0  0  0
   -7.1613   -2.3384  -19.4276 H   0  0  0  0  0  0  0  0  0  0  0  0
   -7.6941   -3.6358  -18.5914 H   0  0  0  0  0  0  0  0  0  0  0  0
  1  2  1  0  0  0  0
  1  4  2  0  0  0  0
  2  6  2  0  0  0  0
  3  5  2  0  0  0  0
  3  6  1  0  0  0  0
  4  5  1  0  0  0  0
  4 10  1  0  0  0  0
  5 15  1  0  0  0  0
  6 19  1  0  0  0  0
  7 15  1  0  0  0  0
  7 17  2  0  0  0  0
  7 18  1  0  0  0  0
  8  9  1  0  0  0  0
  8 10  1  0  0  0  0
  9 15  1  0  0  0  0
 10 16  1  0  0  0  0
 11 14  1  0  0  0  0
 12 14  1  0  0  0  0
 13 14  1  0  0  0  0
 14 18  1  0  0  0  0
  1 20  1  0  0  0  0
  2 21  1  0  0  0  0
  3 22  1  0  0  0  0
  8 23  1  0  0  0  0
  8 24  1  0  0  0  0
  9 25  1  0  0  0  0
  9 26  1  0  0  0  0
 10 27  1  0  0  0  0
 11 28  1  0  0  0  0
 11 29  1  0  0  0  0
 11 30  1  0  0  0  0
 12 31  1  0  0  0  0
 12 32  1  0  0  0  0
 12 33  1  0  0  0  0
 13 34  1  0  0  0  0
 13 35  1  0  0  0  0
 13 36  1  0  0  0  0
 16 37  1  0  0  0  0
 16 38  1  0  0  0  0
M  END
> <id>
EN300-12450171

> <smiles>
CC(C)(C)OC(=O)N1CCC(N)C=2C=CC(F)=CC12

> <MDLNUMBER>
MFCD11046300

> <IUPAC Name>
tert-butyl 4-amino-7-fluoro-1,2,3,4-tetrahydroquinoline-1-carboxylate

> <CAS>
1211594-30-7

> <Purity>
95

> <URL>
https://www.enaminestore.com/catalog/EN300-12450171

> <ROCS_ShapeQuery>
amalgated

> <ROCS_TanimotoCombo>
0.931 

> <ROCS_ShapeTanimoto>
0.650 

> <ROCS_ColorTanimoto>
0.280 

> <ROCS_RefTversky>
0.607 

> <ROCS_RefColorTversky>
0.410 

> <ROCS_RefTverskyCombo>
1.016 

> <ROCS_FitTversky>
1.124 

> <ROCS_FitColorTversky>
0.470 

> <ROCS_FitTverskyCombo>
1.594 

> <ROCS_ColorScore>
-2.848

> <ROCS_Overlap>
999.765

> <ROCS_Rank>
21                  

$$$$
untitled-dbase-36202_1
  -OEChem-10092318153D

 30 32  0     0  0  0  0  0  0999 V2000
   -8.1918   -0.3002  -17.4922 C   0  0  0  0  0  0  0  0  0  0  0  0
   -8.3927   -1.3617  -18.3742 C   0  0  0  0  0  0  0  0  0  0  0  0
   -9.1144   -2.7996  -16.5442 C   0  0  0  0  0  0  0  0  0  0  0  0
   -8.4607   -0.5250  -16.1544 C   0  0  0  0  0  0  0  0  0  0  0  0
   -8.9140   -1.7434  -15.6694 C   0  0  0  0  0  0  0  0  0  0  0  0
   -8.8509   -2.6035  -17.9039 C   0  0  0  0  0  0  0  0  0  0  0  0
   -8.3369    0.3991  -15.0387 C   0  0  0  0  0  0  0  0  0  0  0  0
   -9.1324   -1.7416  -14.1886 C   0  0  0  0  0  0  0  0  0  0  0  0
   -9.9418    0.4466  -13.1162 C   0  0  0  0  0  0  0  0  0  0  0  0
   -7.5647   -0.2953  -12.7591 C   0  0  0  0  0  0  0  0  0  0  0  0
  -10.2568   -0.0585  -11.7072 C   0  0  0  0  0  0  0  0  0  0  0  0
   -7.9769   -0.7709  -11.3650 C   0  0  0  0  0  0  0  0  0  0  0  0
   -8.7487   -0.2970  -13.7423 C   0  0  0  0  0  0  0  0  0  0  0  0
   -9.0880    0.0175  -10.8287 N   0  0  0  0  0  0  0  0  0  0  0  0
   -7.9575    1.5507  -15.1603 O   0  0  0  0  0  0  0  0  0  0  0  0
   -9.0356   -3.6108  -18.7679 F   0  0  0  0  0  0  0  0  0  0  0  0
   -7.8399    0.6599  -17.8517 H   0  0  0  0  0  0  0  0  0  0  0  0
   -8.1936   -1.2296  -19.4343 H   0  0  0  0  0  0  0  0  0  0  0  0
   -9.4663   -3.7620  -16.1881 H   0  0  0  0  0  0  0  0  0  0  0  0
  -10.1750   -1.9808  -13.9615 H   0  0  0  0  0  0  0  0  0  0  0  0
   -8.4884   -2.4958  -13.7264 H   0  0  0  0  0  0  0  0  0  0  0  0
  -10.8292    0.2997  -13.7392 H   0  0  0  0  0  0  0  0  0  0  0  0
   -9.7487    1.5213  -13.0740 H   0  0  0  0  0  0  0  0  0  0  0  0
   -7.1322    0.7041  -12.6809 H   0  0  0  0  0  0  0  0  0  0  0  0
   -6.7835   -0.9625  -13.1332 H   0  0  0  0  0  0  0  0  0  0  0  0
  -11.0960    0.4973  -11.2712 H   0  0  0  0  0  0  0  0  0  0  0  0
  -10.5782   -1.1052  -11.7704 H   0  0  0  0  0  0  0  0  0  0  0  0
   -8.2912   -1.8191  -11.4281 H   0  0  0  0  0  0  0  0  0  0  0  0
   -7.1257   -0.7434  -10.6747 H   0  0  0  0  0  0  0  0  0  0  0  0
   -8.7976    0.9891  -10.7403 H   0  0  0  0  0  0  0  0  0  0  0  0
  1  2  1  0  0  0  0
  1  4  2  0  0  0  0
  2  6  2  0  0  0  0
  3  5  2  0  0  0  0
  3  6  1  0  0  0  0
  4  5  1  0  0  0  0
  4  7  1  0  0  0  0
  5  8  1  0  0  0  0
  6 16  1  0  0  0  0
  7 13  1  0  0  0  0
  7 15  2  0  0  0  0
  8 13  1  0  0  0  0
  9 11  1  0  0  0  0
  9 13  1  0  0  0  0
 10 12  1  0  0  0  0
 10 13  1  0  0  0  0
 11 14  1  0  0  0  0
 12 14  1  0  0  0  0
  1 17  1  0  0  0  0
  2 18  1  0  0  0  0
  3 19  1  0  0  0  0
  8 20  1  0  0  0  0
  8 21  1  0  0  0  0
  9 22  1  0  0  0  0
  9 23  1  0  0  0  0
 10 24  1  0  0  0  0
 10 25  1  0  0  0  0
 11 26  1  0  0  0  0
 11 27  1  0  0  0  0
 12 28  1  0  0  0  0
 12 29  1  0  0  0  0
 14 30  1  0  0  0  0
M  END
> <id>
EN300-1704049

> <smiles>
Cl.FC=1C=CC=2C(=O)C3(CC2C1)CCNCC3

> <MDLNUMBER>
MFCD25542175

> <IUPAC Name>
5-fluoro-1,3-dihydrospiro[indene-2,4'-piperidine]-1-one hydrochloride

> <CAS>
1447608-08-3

> <Purity>
95

> <URL>
https://www.enaminestore.com/catalog/EN300-1704049

> <Saltdate>
Cl

> <ROCS_ShapeQuery>
amalgated

> <ROCS_TanimotoCombo>
0.927 

> <ROCS_ShapeTanimoto>
0.590 

> <ROCS_ColorTanimoto>
0.336 

> <ROCS_RefTversky>
0.547 

> <ROCS_RefColorTversky>
0.471 

> <ROCS_RefTverskyCombo>
1.018 

> <ROCS_FitTversky>
1.157 

> <ROCS_FitColorTversky>
0.540 

> <ROCS_FitTverskyCombo>
1.697 

> <ROCS_ColorScore>
-3.276

> <ROCS_Overlap>
897.454

> <ROCS_Rank>
22                  

$$$$
untitled-dbase-20131_1
  -OEChem-10092318153D

 30 32  0     0  0  0  0  0  0999 V2000
   -8.1918   -0.3002  -17.4922 C   0  0  0  0  0  0  0  0  0  0  0  0
   -8.3927   -1.3617  -18.3742 C   0  0  0  0  0  0  0  0  0  0  0  0
   -9.1144   -2.7996  -16.5442 C   0  0  0  0  0  0  0  0  0  0  0  0
   -8.4607   -0.5250  -16.1544 C   0  0  0  0  0  0  0  0  0  0  0  0
   -8.9140   -1.7434  -15.6694 C   0  0  0  0  0  0  0  0  0  0  0  0
   -8.8509   -2.6035  -17.9039 C   0  0  0  0  0  0  0  0  0  0  0  0
   -8.3369    0.3991  -15.0387 C   0  0  0  0  0  0  0  0  0  0  0  0
   -9.1324   -1.7416  -14.1886 C   0  0  0  0  0  0  0  0  0  0  0  0
   -9.9418    0.4466  -13.1162 C   0  0  0  0  0  0  0  0  0  0  0  0
   -7.5647   -0.2953  -12.7591 C   0  0  0  0  0  0  0  0  0  0  0  0
  -10.2568   -0.0585  -11.7072 C   0  0  0  0  0  0  0  0  0  0  0  0
   -7.9769   -0.7709  -11.3650 C   0  0  0  0  0  0  0  0  0  0  0  0
   -8.7487   -0.2970  -13.7423 C   0  0  0  0  0  0  0  0  0  0  0  0
   -9.0880    0.0175  -10.8287 N   0  0  0  0  0  0  0  0  0  0  0  0
   -7.9575    1.5507  -15.1603 O   0  0  0  0  0  0  0  0  0  0  0  0
   -9.0356   -3.6108  -18.7679 F   0  0  0  0  0  0  0  0  0  0  0  0
   -7.8399    0.6599  -17.8517 H   0  0  0  0  0  0  0  0  0  0  0  0
   -8.1936   -1.2296  -19.4343 H   0  0  0  0  0  0  0  0  0  0  0  0
   -9.4663   -3.7620  -16.1881 H   0  0  0  0  0  0  0  0  0  0  0  0
  -10.1750   -1.9808  -13.9615 H   0  0  0  0  0  0  0  0  0  0  0  0
   -8.4884   -2.4958  -13.7264 H   0  0  0  0  0  0  0  0  0  0  0  0
  -10.8292    0.2997  -13.7392 H   0  0  0  0  0  0  0  0  0  0  0  0
   -9.7487    1.5213  -13.0740 H   0  0  0  0  0  0  0  0  0  0  0  0
   -7.1322    0.7041  -12.6809 H   0  0  0  0  0  0  0  0  0  0  0  0
   -6.7835   -0.9625  -13.1332 H   0  0  0  0  0  0  0  0  0  0  0  0
  -11.0960    0.4973  -11.2712 H   0  0  0  0  0  0  0  0  0  0  0  0
  -10.5782   -1.1052  -11.7704 H   0  0  0  0  0  0  0  0  0  0  0  0
   -8.2912   -1.8191  -11.4281 H   0  0  0  0  0  0  0  0  0  0  0  0
   -7.1257   -0.7434  -10.6747 H   0  0  0  0  0  0  0  0  0  0  0  0
   -8.7976    0.9891  -10.7403 H   0  0  0  0  0  0  0  0  0  0  0  0
  1  2  1  0  0  0  0
  1  4  2  0  0  0  0
  2  6  2  0  0  0  0
  3  5  2  0  0  0  0
  3  6  1  0  0  0  0
  4  5  1  0  0  0  0
  4  7  1  0  0  0  0
  5  8  1  0  0  0  0
  6 16  1  0  0  0  0
  7 13  1  0  0  0  0
  7 15  2  0  0  0  0
  8 13  1  0  0  0  0
  9 11  1  0  0  0  0
  9 13  1  0  0  0  0
 10 12  1  0  0  0  0
 10 13  1  0  0  0  0
 11 14  1  0  0  0  0
 12 14  1  0  0  0  0
  1 17  1  0  0  0  0
  2 18  1  0  0  0  0
  3 19  1  0  0  0  0
  8 20  1  0  0  0  0
  8 21  1  0  0  0  0
  9 22  1  0  0  0  0
  9 23  1  0  0  0  0
 10 24  1  0  0  0  0
 10 25  1  0  0  0  0
 11 26  1  0  0  0  0
 11 27  1  0  0  0  0
 12 28  1  0  0  0  0
 12 29  1  0  0  0  0
 14 30  1  0  0  0  0
M  END
> <id>
EN300-1704050

> <smiles>
FC=1C=CC=2C(=O)C3(CC2C1)CCNCC3

> <MDLNUMBER>
MFCD31637929

> <IUPAC Name>
5-fluoro-1,3-dihydrospiro[indene-2,4'-piperidine]-1-one

> <CAS>
1417917-61-3

> <URL>
https://www.enaminestore.com/catalog/EN300-1704050

> <ROCS_ShapeQuery>
amalgated

> <ROCS_TanimotoCombo>
0.927 

> <ROCS_ShapeTanimoto>
0.590 

> <ROCS_ColorTanimoto>
0.336 

> <ROCS_RefTversky>
0.547 

> <ROCS_RefColorTversky>
0.471 

> <ROCS_RefTverskyCombo>
1.018 

> <ROCS_FitTversky>
1.157 

> <ROCS_FitColorTversky>
0.540 

> <ROCS_FitTverskyCombo>
1.697 

> <ROCS_ColorScore>
-3.276

> <ROCS_Overlap>
897.454

> <ROCS_Rank>
23                  

$$$$
untitled-dbase-6481_43
  -OEChem-10092318153D

 33 34  0     1  0  0  0  0  0999 V2000
   -8.7498   -2.1253  -14.3104 C   0  0  0  0  0  0  0  0  0  0  0  0
   -8.5917    0.1800  -11.4223 C   0  0  0  0  0  0  0  0  0  0  0  0
   -9.7067    0.7755  -12.2717 C   0  0  0  0  0  0  0  0  0  0  0  0
   -8.3075   -0.0875  -17.3440 C   0  0  0  0  0  0  0  0  0  0  0  0
   -9.4022   -0.9059  -18.0382 C   0  0  0  0  0  0  0  0  0  0  0  0
   -8.3818   -1.1884  -12.0487 C   0  0  0  0  0  0  0  0  0  0  0  0
   -9.3694    0.2770  -13.6701 C   0  0  0  0  0  0  0  0  0  0  0  0
   -7.6465   -0.8413  -16.1935 C   0  0  0  0  0  0  0  0  0  0  0  0
   -8.8455   -2.9498  -16.6309 C   0  0  0  0  0  0  0  0  0  0  0  0
   -9.1166   -2.4144  -18.0497 C   0  0  2  0  0  0  0  0  0  0  0  0
   -8.7424   -1.0270  -13.4530 N   0  0  0  0  0  0  0  0  0  0  0  0
   -8.5151   -1.8937  -15.6701 N   0  0  0  0  0  0  0  0  0  0  0  0
   -7.9991   -2.7383  -18.9398 N   0  0  0  0  0  0  0  0  0  0  0  0
   -9.0015   -3.2620  -13.8881 O   0  0  0  0  0  0  0  0  0  0  0  0
   -7.6855    0.7918  -11.4361 H   0  0  0  0  0  0  0  0  0  0  0  0
   -8.9248    0.0740  -10.3832 H   0  0  0  0  0  0  0  0  0  0  0  0
  -10.6986    0.4552  -11.9401 H   0  0  0  0  0  0  0  0  0  0  0  0
   -9.6649    1.8707  -12.2385 H   0  0  0  0  0  0  0  0  0  0  0  0
   -7.5456    0.2023  -18.0818 H   0  0  0  0  0  0  0  0  0  0  0  0
   -8.7433    0.8488  -16.9631 H   0  0  0  0  0  0  0  0  0  0  0  0
  -10.3716   -0.7053  -17.5451 H   0  0  0  0  0  0  0  0  0  0  0  0
   -9.5136   -0.5355  -19.0758 H   0  0  0  0  0  0  0  0  0  0  0  0
   -7.3296   -1.4910  -11.9965 H   0  0  0  0  0  0  0  0  0  0  0  0
   -8.9937   -1.9706  -11.5896 H   0  0  0  0  0  0  0  0  0  0  0  0
  -10.2974    0.1275  -14.2298 H   0  0  0  0  0  0  0  0  0  0  0  0
   -8.7078    0.9554  -14.2149 H   0  0  0  0  0  0  0  0  0  0  0  0
   -6.7130   -1.3168  -16.5260 H   0  0  0  0  0  0  0  0  0  0  0  0
   -7.3836   -0.1367  -15.3931 H   0  0  0  0  0  0  0  0  0  0  0  0
   -9.6671   -3.5851  -16.2696 H   0  0  0  0  0  0  0  0  0  0  0  0
   -7.9734   -3.6317  -16.6486 H   0  0  0  0  0  0  0  0  0  0  0  0
  -10.0177   -2.9391  -18.4474 H   0  0  0  0  0  0  0  0  0  0  0  0
   -7.8735   -3.7225  -18.9338 H   0  0  0  0  0  0  0  0  0  0  0  0
   -8.2271   -2.4187  -19.8511 H   0  0  0  0  0  0  0  0  0  0  0  0
  1 11  1  0  0  0  0
  1 12  1  0  0  0  0
  1 14  2  0  0  0  0
  2  3  1  0  0  0  0
  2  6  1  0  0  0  0
  3  7  1  0  0  0  0
  4  5  1  0  0  0  0
  4  8  1  0  0  0  0
  5 10  1  0  0  0  0
  6 11  1  0  0  0  0
  7 11  1  0  0  0  0
  8 12  1  0  0  0  0
  9 10  1  0  0  0  0
  9 12  1  0  0  0  0
 10 13  1  0  0  0  0
  2 15  1  0  0  0  0
  2 16  1  0  0  0  0
  3 17  1  0  0  0  0
  3 18  1  0  0  0  0
  4 19  1  0  0  0  0
  4 20  1  0  0  0  0
  5 21  1  0  0  0  0
  5 22  1  0  0  0  0
  6 23  1  0  0  0  0
  6 24  1  0  0  0  0
  7 25  1  0  0  0  0
  7 26  1  0  0  0  0
  8 27  1  0  0  0  0
  8 28  1  0  0  0  0
  9 29  1  0  0  0  0
  9 30  1  0  0  0  0
 10 31  1  0  0  0  0
 13 32  1  0  0  0  0
 13 33  1  0  0  0  0
M  END
> <id>
EN300-208177

> <smiles>
NC1CCCN(C1)C(=O)N2CCCC2

> <MDLNUMBER>
MFCD21810836

> <IUPAC Name>
1-(pyrrolidine-1-carbonyl)piperidin-3-amine

> <CAS>
1536773-73-5

> <Purity>
95

> <URL>
https://www.enaminestore.com/catalog/EN300-208177

> <ROCS_ShapeQuery>
amalgated

> <ROCS_TanimotoCombo>
0.926 

> <ROCS_ShapeTanimoto>
0.451 

> <ROCS_ColorTanimoto>
0.476 

> <ROCS_RefTversky>
0.436 

> <ROCS_RefColorTversky>
0.560 

> <ROCS_RefTverskyCombo>
0.996 

> <ROCS_FitTversky>
1.083 

> <ROCS_FitColorTversky>
0.758 

> <ROCS_FitTverskyCombo>
1.841 

> <ROCS_ColorScore>
-3.867

> <ROCS_Overlap>
712.862

> <ROCS_Rank>
24                  

$$$$
untitled-dbase-11369_122
  -OEChem-10092318153D

 38 39  0     1  0  0  0  0  0999 V2000
   -7.0056    1.3808  -18.9429 C   0  0  0  0  0  0  0  0  0  0  0  0
   -6.9653    1.9657  -17.6878 C   0  0  0  0  0  0  0  0  0  0  0  0
   -7.5764    0.1213  -19.0938 C   0  0  0  0  0  0  0  0  0  0  0  0
   -7.5007    1.2959  -16.5847 C   0  0  0  0  0  0  0  0  0  0  0  0
   -8.0934   -0.5880  -17.9888 C   0  0  0  0  0  0  0  0  0  0  0  0
   -8.0719    0.0148  -16.7043 C   0  0  0  0  0  0  0  0  0  0  0  0
   -8.4697   -0.2531  -14.2339 C   0  0  0  0  0  0  0  0  0  0  0  0
   -8.9140   -2.7117  -16.9136 C   0  0  0  0  0  0  0  0  0  0  0  0
   -9.5432   -1.8012  -15.8780 C   0  0  0  0  0  0  0  0  0  0  0  0
   -8.7204   -1.9536  -18.2229 C   0  0  2  0  0  0  0  0  0  0  0  0
   -9.8188    1.0550  -12.3905 C   0  0  0  0  0  0  0  0  0  0  0  0
  -10.8484   -1.1186  -11.6662 C   0  0  0  0  0  0  0  0  0  0  0  0
   -8.4588   -0.6109  -11.0830 C   0  0  0  0  0  0  0  0  0  0  0  0
   -9.5648   -0.4274  -12.1212 C   0  0  0  0  0  0  0  0  0  0  0  0
   -8.6702   -0.6569  -15.5715 N   0  0  0  0  0  0  0  0  0  0  0  0
   -7.9516   -2.8314  -19.1116 N   0  0  0  0  0  0  0  0  0  0  0  0
   -7.7677    0.6816  -13.8565 O   0  0  0  0  0  0  0  0  0  0  0  0
   -9.1503   -1.0485  -13.3439 O   0  0  0  0  0  0  0  0  0  0  0  0
   -6.5903    1.8985  -19.8037 H   0  0  0  0  0  0  0  0  0  0  0  0
   -6.5137    2.9441  -17.5601 H   0  0  0  0  0  0  0  0  0  0  0  0
   -7.6174   -0.3168  -20.0909 H   0  0  0  0  0  0  0  0  0  0  0  0
   -7.4352    1.8271  -15.6459 H   0  0  0  0  0  0  0  0  0  0  0  0
   -7.9600   -3.0975  -16.5456 H   0  0  0  0  0  0  0  0  0  0  0  0
   -9.5634   -3.5775  -17.0779 H   0  0  0  0  0  0  0  0  0  0  0  0
  -10.4897   -1.4489  -16.2765 H   0  0  0  0  0  0  0  0  0  0  0  0
   -9.7383   -2.3227  -14.9453 H   0  0  0  0  0  0  0  0  0  0  0  0
   -9.7296   -1.8366  -18.6649 H   0  0  0  0  0  0  0  0  0  0  0  0
   -8.8998    1.5547  -12.7173 H   0  0  0  0  0  0  0  0  0  0  0  0
  -10.5854    1.1999  -13.1587 H   0  0  0  0  0  0  0  0  0  0  0  0
  -10.1420    1.5685  -11.4778 H   0  0  0  0  0  0  0  0  0  0  0  0
  -10.6708   -2.1825  -11.4718 H   0  0  0  0  0  0  0  0  0  0  0  0
  -11.6152   -1.0714  -12.4479 H   0  0  0  0  0  0  0  0  0  0  0  0
  -11.2522   -0.6625  -10.7565 H   0  0  0  0  0  0  0  0  0  0  0  0
   -8.2764   -1.6742  -10.8896 H   0  0  0  0  0  0  0  0  0  0  0  0
   -7.5194   -0.1529  -11.4092 H   0  0  0  0  0  0  0  0  0  0  0  0
   -8.7476   -0.1672  -10.1233 H   0  0  0  0  0  0  0  0  0  0  0  0
   -7.1597   -2.3273  -19.4288 H   0  0  0  0  0  0  0  0  0  0  0  0
   -7.6788   -3.6292  -18.5909 H   0  0  0  0  0  0  0  0  0  0  0  0
  1  2  2  0  0  0  0
  1  3  1  0  0  0  0
  2  4  1  0  0  0  0
  3  5  2  0  0  0  0
  4  6  2  0  0  0  0
  5  6  1  0  0  0  0
  5 10  1  0  0  0  0
  6 15  1  0  0  0  0
  7 15  1  0  0  0  0
  7 17  2  0  0  0  0
  7 18  1  0  0  0  0
  8  9  1  0  0  0  0
  8 10  1  0  0  0  0
  9 15  1  0  0  0  0
 10 16  1  0  0  0  0
 11 14  1  0  0  0  0
 12 14  1  0  0  0  0
 13 14  1  0  0  0  0
 14 18  1  0  0  0  0
  1 19  1  0  0  0  0
  2 20  1  0  0  0  0
  3 21  1  0  0  0  0
  4 22  1  0  0  0  0
  8 23  1  0  0  0  0
  8 24  1  0  0  0  0
  9 25  1  0  0  0  0
  9 26  1  0  0  0  0
 10 27  1  0  0  0  0
 11 28  1  0  0  0  0
 11 29  1  0  0  0  0
 11 30  1  0  0  0  0
 12 31  1  0  0  0  0
 12 32  1  0  0  0  0
 12 33  1  0  0  0  0
 13 34  1  0  0  0  0
 13 35  1  0  0  0  0
 13 36  1  0  0  0  0
 16 37  1  0  0  0  0
 16 38  1  0  0  0  0
M  END
> <id>
EN300-396498

> <smiles>
CC(C)(C)OC(=O)N1CCC(N)C=2C=CC=CC12

> <MDLNUMBER>
MFCD10697725

> <IUPAC Name>
tert-butyl 4-amino-1,2,3,4-tetrahydroquinoline-1-carboxylate

> <CAS>
944906-95-0

> <Purity>
95

> <URL>
https://www.enaminestore.com/catalog/EN300-396498

> <ROCS_ShapeQuery>
amalgated

> <ROCS_TanimotoCombo>
0.920 

> <ROCS_ShapeTanimoto>
0.640 

> <ROCS_ColorTanimoto>
0.280 

> <ROCS_RefTversky>
0.591 

> <ROCS_RefColorTversky>
0.410 

> <ROCS_RefTverskyCombo>
1.000 

> <ROCS_FitTversky>
1.150 

> <ROCS_FitColorTversky>
0.470 

> <ROCS_FitTverskyCombo>
1.621 

> <ROCS_ColorScore>
-2.847

> <ROCS_Overlap>
971.876

> <ROCS_Rank>
25                  

$$$$
untitled-dbase-15089_14
  -OEChem-10092318153D

 44 45  0     1  0  0  0  0  0999 V2000
   -8.8304   -0.6822  -13.4589 C   0  0  0  0  0  0  0  0  0  0  0  0
   -8.8406    1.7582  -16.1038 C   0  0  0  0  0  0  0  0  0  0  0  0
   -7.5882    1.1742  -16.7655 C   0  0  0  0  0  0  0  0  0  0  0  0
   -8.5047   -2.5381  -16.0144 C   0  0  0  0  0  0  0  0  0  0  0  0
   -9.5557   -2.6506  -17.1131 C   0  0  0  0  0  0  0  0  0  0  0  0
   -8.7240   -0.5599  -18.2244 C   0  0  0  0  0  0  0  0  0  0  0  0
   -9.6878    0.7235  -15.3640 C   0  0  0  0  0  0  0  0  0  0  0  0
   -7.7181   -0.3231  -17.0797 C   0  0  2  0  0  0  0  0  0  0  0  0
   -8.0084   -1.1030  -15.7720 C   0  0  1  0  0  0  0  0  0  0  0  0
   -9.1013   -2.0279  -18.4350 C   0  0  1  0  0  0  0  0  0  0  0  0
   -8.2262    0.0250  -10.7524 C   0  0  0  0  0  0  0  0  0  0  0  0
  -10.5903    0.8660  -10.6397 C   0  0  0  0  0  0  0  0  0  0  0  0
  -10.1482   -1.5685  -11.0707 C   0  0  0  0  0  0  0  0  0  0  0  0
   -9.6463   -0.1422  -11.2911 C   0  0  0  0  0  0  0  0  0  0  0  0
   -8.8689   -0.3609  -14.8250 N   0  0  0  0  0  0  0  0  0  0  0  0
   -7.9958   -2.7857  -19.0249 N   0  0  0  0  0  0  0  0  0  0  0  0
   -8.1496   -1.5894  -12.9825 O   0  0  0  0  0  0  0  0  0  0  0  0
   -9.6342    0.1246  -12.6981 O   0  0  0  0  0  0  0  0  0  0  0  0
   -8.5425    2.5562  -15.3985 H   0  0  0  0  0  0  0  0  0  0  0  0
   -9.4596    2.2556  -16.8718 H   0  0  0  0  0  0  0  0  0  0  0  0
   -7.3681    1.7532  -17.6828 H   0  0  0  0  0  0  0  0  0  0  0  0
   -6.7210    1.3432  -16.0983 H   0  0  0  0  0  0  0  0  0  0  0  0
   -8.9234   -2.9641  -15.0824 H   0  0  0  0  0  0  0  0  0  0  0  0
   -7.6472   -3.1879  -16.2754 H   0  0  0  0  0  0  0  0  0  0  0  0
   -9.8059   -3.7169  -17.2614 H   0  0  0  0  0  0  0  0  0  0  0  0
  -10.4873   -2.1681  -16.7703 H   0  0  0  0  0  0  0  0  0  0  0  0
   -9.6295    0.0435  -18.0476 H   0  0  0  0  0  0  0  0  0  0  0  0
   -8.2791   -0.1614  -19.1524 H   0  0  0  0  0  0  0  0  0  0  0  0
  -10.2471    1.2159  -14.5672 H   0  0  0  0  0  0  0  0  0  0  0  0
  -10.4157    0.2764  -16.0449 H   0  0  0  0  0  0  0  0  0  0  0  0
   -6.7262   -0.6404  -17.4439 H   0  0  0  0  0  0  0  0  0  0  0  0
   -7.0018   -1.2156  -15.2764 H   0  0  0  0  0  0  0  0  0  0  0  0
   -9.9476   -2.0770  -19.1487 H   0  0  0  0  0  0  0  0  0  0  0  0
   -7.5454   -0.6970  -11.2175 H   0  0  0  0  0  0  0  0  0  0  0  0
   -7.8415    1.0336  -10.9354 H   0  0  0  0  0  0  0  0  0  0  0  0
   -8.1918   -0.1681   -9.6740 H   0  0  0  0  0  0  0  0  0  0  0  0
  -11.6104    0.7497  -11.0233 H   0  0  0  0  0  0  0  0  0  0  0  0
  -10.2874    1.8928  -10.8748 H   0  0  0  0  0  0  0  0  0  0  0  0
  -10.6142    0.7523   -9.5511 H   0  0  0  0  0  0  0  0  0  0  0  0
  -11.1668   -1.6887  -11.4570 H   0  0  0  0  0  0  0  0  0  0  0  0
   -9.5030   -2.3036  -11.5626 H   0  0  0  0  0  0  0  0  0  0  0  0
  -10.1932   -1.8049  -10.0014 H   0  0  0  0  0  0  0  0  0  0  0  0
   -8.3005   -3.7196  -19.1591 H   0  0  0  0  0  0  0  0  0  0  0  0
   -7.7615   -2.3628  -19.8905 H   0  0  0  0  0  0  0  0  0  0  0  0
  1 15  1  0  0  0  0
  1 17  2  0  0  0  0
  1 18  1  0  0  0  0
  2  3  1  0  0  0  0
  2  7  1  0  0  0  0
  3  8  1  0  0  0  0
  4  5  1  0  0  0  0
  4  9  1  0  0  0  0
  5 10  1  0  0  0  0
  6  8  1  0  0  0  0
  6 10  1  0  0  0  0
  7 15  1  0  0  0  0
  8  9  1  0  0  0  0
  9 15  1  0  0  0  0
 10 16  1  0  0  0  0
 11 14  1  0  0  0  0
 12 14  1  0  0  0  0
 13 14  1  0  0  0  0
 14 18  1  0  0  0  0
  2 19  1  0  0  0  0
  2 20  1  0  0  0  0
  3 21  1  0  0  0  0
  3 22  1  0  0  0  0
  4 23  1  0  0  0  0
  4 24  1  0  0  0  0
  5 25  1  0  0  0  0
  5 26  1  0  0  0  0
  6 27  1  0  0  0  0
  6 28  1  0  0  0  0
  7 29  1  0  0  0  0
  7 30  1  0  0  0  0
  8 31  1  0  0  0  0
  9 32  1  0  0  0  0
 10 33  1  0  0  0  0
 11 34  1  0  0  0  0
 11 35  1  0  0  0  0
 11 36  1  0  0  0  0
 12 37  1  0  0  0  0
 12 38  1  0  0  0  0
 12 39  1  0  0  0  0
 13 40  1  0  0  0  0
 13 41  1  0  0  0  0
 13 42  1  0  0  0  0
 16 43  1  0  0  0  0
 16 44  1  0  0  0  0
M  END
> <id>
EN300-3056248

> <smiles>
CC(C)(C)OC(=O)N1CCCC2CC(N)CCC21

> <MDLNUMBER>
MFCD24848165

> <IUPAC Name>
tert-butyl 6-amino-decahydroquinoline-1-carboxylate

> <CAS>
1781760-04-0

> <Purity>
95

> <URL>
https://www.enaminestore.com/catalog/EN300-3056248

> <ROCS_ShapeQuery>
amalgated

> <ROCS_TanimotoCombo>
0.916 

> <ROCS_ShapeTanimoto>
0.617 

> <ROCS_ColorTanimoto>
0.298 

> <ROCS_RefTversky>
0.572 

> <ROCS_RefColorTversky>
0.430 

> <ROCS_RefTverskyCombo>
1.003 

> <ROCS_FitTversky>
1.146 

> <ROCS_FitColorTversky>
0.493 

> <ROCS_FitTverskyCombo>
1.640 

> <ROCS_ColorScore>
-2.991

> <ROCS_Overlap>
941.023

> <ROCS_Rank>
26                  

$$$$
untitled-dbase-8087_6
  -OEChem-10092318153D

 31 33  0     0  0  0  0  0  0999 V2000
   -7.7101   -0.7499  -17.7537 C   0  0  0  0  0  0  0  0  0  0  0  0
   -8.0783   -1.9338  -18.3895 C   0  0  0  0  0  0  0  0  0  0  0  0
   -9.5238   -2.4790  -16.5322 C   0  0  0  0  0  0  0  0  0  0  0  0
   -8.2492   -0.4377  -16.4999 C   0  0  0  0  0  0  0  0  0  0  0  0
   -9.1506   -1.3035  -15.8662 C   0  0  0  0  0  0  0  0  0  0  0  0
   -8.9878   -2.7956  -17.7821 C   0  0  0  0  0  0  0  0  0  0  0  0
   -7.9119    0.8511  -15.8557 C   0  0  0  0  0  0  0  0  0  0  0  0
   -7.9730   -0.7094  -12.9204 C   0  0  0  0  0  0  0  0  0  0  0  0
  -10.1360    0.6344  -12.8710 C   0  0  0  0  0  0  0  0  0  0  0  0
   -7.8058   -0.0353  -11.5605 C   0  0  0  0  0  0  0  0  0  0  0  0
  -10.2630   -0.1031  -11.5396 C   0  0  0  0  0  0  0  0  0  0  0  0
   -9.0543   -0.0029  -13.7737 C   0  0  0  0  0  0  0  0  0  0  0  0
   -9.6914   -1.0021  -14.6256 N   0  0  0  0  0  0  0  0  0  0  0  0
   -8.4444    1.0477  -14.5968 N   0  0  0  0  0  0  0  0  0  0  0  0
   -9.0274   -0.0544  -10.7544 N   0  0  0  0  0  0  0  0  0  0  0  0
   -7.2319    1.6883  -16.4403 O   0  0  0  0  0  0  0  0  0  0  0  0
   -9.3482   -3.9300  -18.3966 F   0  0  0  0  0  0  0  0  0  0  0  0
   -6.9998   -0.0897  -18.2435 H   0  0  0  0  0  0  0  0  0  0  0  0
   -7.6489   -2.1893  -19.3537 H   0  0  0  0  0  0  0  0  0  0  0  0
  -10.2471   -3.1567  -16.0840 H   0  0  0  0  0  0  0  0  0  0  0  0
   -7.0174   -0.7197  -13.4490 H   0  0  0  0  0  0  0  0  0  0  0  0
   -8.2608   -1.7521  -12.7561 H   0  0  0  0  0  0  0  0  0  0  0  0
  -11.1057    0.6022  -13.3829 H   0  0  0  0  0  0  0  0  0  0  0  0
   -9.9151    1.6904  -12.6836 H   0  0  0  0  0  0  0  0  0  0  0  0
   -7.0088   -0.5490  -10.9975 H   0  0  0  0  0  0  0  0  0  0  0  0
   -7.4549    1.0044  -11.6767 H   0  0  0  0  0  0  0  0  0  0  0  0
  -11.0978    0.3009  -10.9464 H   0  0  0  0  0  0  0  0  0  0  0  0
  -10.5137   -1.1569  -11.7308 H   0  0  0  0  0  0  0  0  0  0  0  0
  -10.6702   -1.2191  -14.4677 H   0  0  0  0  0  0  0  0  0  0  0  0
   -8.4114    1.9880  -14.2127 H   0  0  0  0  0  0  0  0  0  0  0  0
   -8.9997   -0.8772  -10.1353 H   0  0  0  0  0  0  0  0  0  0  0  0
  1  2  1  0  0  0  0
  1  4  2  0  0  0  0
  2  6  2  0  0  0  0
  3  5  2  0  0  0  0
  3  6  1  0  0  0  0
  4  5  1  0  0  0  0
  4  7  1  0  0  0  0
  5 13  1  0  0  0  0
  6 17  1  0  0  0  0
  7 14  1  0  0  0  0
  7 16  2  0  0  0  0
  8 10  1  0  0  0  0
  8 12  1  0  0  0  0
  9 11  1  0  0  0  0
  9 12  1  0  0  0  0
 10 15  1  0  0  0  0
 11 15  1  0  0  0  0
 12 13  1  0  0  0  0
 12 14  1  0  0  0  0
  1 18  1  0  0  0  0
  2 19  1  0  0  0  0
  3 20  1  0  0  0  0
  8 21  1  0  0  0  0
  8 22  1  0  0  0  0
  9 23  1  0  0  0  0
  9 24  1  0  0  0  0
 10 25  1  0  0  0  0
 10 26  1  0  0  0  0
 11 27  1  0  0  0  0
 11 28  1  0  0  0  0
 13 29  1  0  0  0  0
 14 30  1  0  0  0  0
 15 31  1  0  0  0  0
M  END
> <id>
EN300-264862

> <smiles>
FC=1C=CC=2C(=O)NC3(CCNCC3)NC2C1

> <MDLNUMBER>
MFCD21086529

> <IUPAC Name>
7'-fluoro-3',4'-dihydro-1'H-spiro[piperidine-4,2'-quinazoline]-4'-one

> <CAS>
1355181-90-6

> <URL>
https://www.enaminestore.com/catalog/EN300-264862

> <ROCS_ShapeQuery>
amalgated

> <ROCS_TanimotoCombo>
0.913 

> <ROCS_ShapeTanimoto>
0.631 

> <ROCS_ColorTanimoto>
0.283 

> <ROCS_RefTversky>
0.581 

> <ROCS_RefColorTversky>
0.469 

> <ROCS_RefTverskyCombo>
1.050 

> <ROCS_FitTversky>
1.158 

> <ROCS_FitColorTversky>
0.415 

> <ROCS_FitTverskyCombo>
1.574 

> <ROCS_ColorScore>
-3.308

> <ROCS_Overlap>
954.748

> <ROCS_Rank>
27                  

$$$$
untitled-dbase-39326_19
  -OEChem-10092318153D

 33 34  0     0  0  0  0  0  0999 V2000
   -8.6589    0.1630  -15.0609 C   0  0  0  0  0  0  0  0  0  0  0  0
   -8.8779   -2.3252  -18.3643 C   0  0  0  0  0  0  0  0  0  0  0  0
   -8.1826   -0.9674  -18.3414 C   0  0  0  0  0  0  0  0  0  0  0  0
   -9.7937   -2.4906  -17.1556 C   0  0  0  0  0  0  0  0  0  0  0  0
   -7.4568   -0.7524  -17.0190 C   0  0  0  0  0  0  0  0  0  0  0  0
   -9.0652   -2.2190  -15.8376 C   0  0  0  0  0  0  0  0  0  0  0  0
  -10.2262    0.2597  -11.6304 C   0  0  0  0  0  0  0  0  0  0  0  0
   -7.8622   -0.3760  -11.4873 C   0  0  0  0  0  0  0  0  0  0  0  0
   -9.8128    0.8164  -12.9874 C   0  0  0  0  0  0  0  0  0  0  0  0
   -8.1178   -0.9936  -12.8607 C   0  0  0  0  0  0  0  0  0  0  0  0
   -9.0961   -0.0691  -10.7623 N   0  0  0  0  0  0  0  0  0  0  0  0
   -8.3558   -0.9340  -15.8781 N   0  0  0  0  0  0  0  0  0  0  0  0
   -8.9149   -0.0903  -13.7035 N   0  0  0  0  0  0  0  0  0  0  0  0
   -8.6784    1.3162  -15.5114 O   0  0  0  0  0  0  0  0  0  0  0  0
   -9.4676   -2.4161  -19.2838 H   0  0  0  0  0  0  0  0  0  0  0  0
   -8.1315   -3.1261  -18.3794 H   0  0  0  0  0  0  0  0  0  0  0  0
   -7.4650   -0.9133  -19.1645 H   0  0  0  0  0  0  0  0  0  0  0  0
   -8.9176   -0.1748  -18.4945 H   0  0  0  0  0  0  0  0  0  0  0  0
  -10.6532   -1.8093  -17.2470 H   0  0  0  0  0  0  0  0  0  0  0  0
  -10.2073   -3.5119  -17.1401 H   0  0  0  0  0  0  0  0  0  0  0  0
   -6.6161   -1.4557  -16.9794 H   0  0  0  0  0  0  0  0  0  0  0  0
   -7.0514    0.2688  -16.9642 H   0  0  0  0  0  0  0  0  0  0  0  0
   -9.7832   -2.1658  -15.0117 H   0  0  0  0  0  0  0  0  0  0  0  0
   -8.3697   -3.0341  -15.6163 H   0  0  0  0  0  0  0  0  0  0  0  0
  -10.8670    0.9950  -11.1132 H   0  0  0  0  0  0  0  0  0  0  0  0
  -10.8585   -0.6374  -11.7659 H   0  0  0  0  0  0  0  0  0  0  0  0
   -7.2286   -1.0444  -10.8785 H   0  0  0  0  0  0  0  0  0  0  0  0
   -7.2837    0.5549  -11.6084 H   0  0  0  0  0  0  0  0  0  0  0  0
  -10.7044    1.0106  -13.6007 H   0  0  0  0  0  0  0  0  0  0  0  0
   -9.2859    1.7761  -12.8743 H   0  0  0  0  0  0  0  0  0  0  0  0
   -7.1671   -1.1464  -13.3855 H   0  0  0  0  0  0  0  0  0  0  0  0
   -8.5696   -1.9813  -12.7724 H   0  0  0  0  0  0  0  0  0  0  0  0
   -8.9182    0.7328  -10.1387 H   0  0  0  0  0  0  0  0  0  0  0  0
  1 12  1  0  0  0  0
  1 13  1  0  0  0  0
  1 14  2  0  0  0  0
  2  3  1  0  0  0  0
  2  4  1  0  0  0  0
  3  5  1  0  0  0  0
  4  6  1  0  0  0  0
  5 12  1  0  0  0  0
  6 12  1  0  0  0  0
  7  9  1  0  0  0  0
  7 11  1  0  0  0  0
  8 10  1  0  0  0  0
  8 11  1  0  0  0  0
  9 13  1  0  0  0  0
 10 13  1  0  0  0  0
  2 15  1  0  0  0  0
  2 16  1  0  0  0  0
  3 17  1  0  0  0  0
  3 18  1  0  0  0  0
  4 19  1  0  0  0  0
  4 20  1  0  0  0  0
  5 21  1  0  0  0  0
  5 22  1  0  0  0  0
  6 23  1  0  0  0  0
  6 24  1  0  0  0  0
  7 25  1  0  0  0  0
  7 26  1  0  0  0  0
  8 27  1  0  0  0  0
  8 28  1  0  0  0  0
  9 29  1  0  0  0  0
  9 30  1  0  0  0  0
 10 31  1  0  0  0  0
 10 32  1  0  0  0  0
 11 33  1  0  0  0  0
M  END
> <id>
EN300-57557

> <smiles>
O=C(N1CCCCC1)N2CCNCC2

> <MDLNUMBER>
MFCD03844723

> <IUPAC Name>
1-(piperidine-1-carbonyl)piperazine

> <CAS>
41340-88-9

> <URL>
https://www.enaminestore.com/catalog/EN300-57557

> <ROCS_ShapeQuery>
amalgated

> <ROCS_TanimotoCombo>
0.912 

> <ROCS_ShapeTanimoto>
0.531 

> <ROCS_ColorTanimoto>
0.381 

> <ROCS_RefTversky>
0.486 

> <ROCS_RefColorTversky>
0.480 

> <ROCS_RefTverskyCombo>
0.966 

> <ROCS_FitTversky>
1.212 

> <ROCS_FitColorTversky>
0.649 

> <ROCS_FitTverskyCombo>
1.861 

> <ROCS_ColorScore>
-3.311

> <ROCS_Overlap>
795.547

> <ROCS_Rank>
28                  

$$$$
untitled-dbase-384_19
  -OEChem-10092318153D

 33 34  0     0  0  0  0  0  0999 V2000
   -8.6589    0.1630  -15.0609 C   0  0  0  0  0  0  0  0  0  0  0  0
   -8.8779   -2.3252  -18.3643 C   0  0  0  0  0  0  0  0  0  0  0  0
   -8.1826   -0.9674  -18.3414 C   0  0  0  0  0  0  0  0  0  0  0  0
   -9.7937   -2.4906  -17.1556 C   0  0  0  0  0  0  0  0  0  0  0  0
   -7.4568   -0.7524  -17.0190 C   0  0  0  0  0  0  0  0  0  0  0  0
   -9.0652   -2.2190  -15.8376 C   0  0  0  0  0  0  0  0  0  0  0  0
  -10.2262    0.2597  -11.6304 C   0  0  0  0  0  0  0  0  0  0  0  0
   -7.8622   -0.3760  -11.4873 C   0  0  0  0  0  0  0  0  0  0  0  0
   -9.8128    0.8164  -12.9874 C   0  0  0  0  0  0  0  0  0  0  0  0
   -8.1178   -0.9936  -12.8607 C   0  0  0  0  0  0  0  0  0  0  0  0
   -9.0961   -0.0691  -10.7623 N   0  0  0  0  0  0  0  0  0  0  0  0
   -8.3558   -0.9340  -15.8781 N   0  0  0  0  0  0  0  0  0  0  0  0
   -8.9149   -0.0903  -13.7035 N   0  0  0  0  0  0  0  0  0  0  0  0
   -8.6784    1.3162  -15.5114 O   0  0  0  0  0  0  0  0  0  0  0  0
   -9.4676   -2.4161  -19.2838 H   0  0  0  0  0  0  0  0  0  0  0  0
   -8.1315   -3.1261  -18.3794 H   0  0  0  0  0  0  0  0  0  0  0  0
   -7.4650   -0.9133  -19.1645 H   0  0  0  0  0  0  0  0  0  0  0  0
   -8.9176   -0.1748  -18.4945 H   0  0  0  0  0  0  0  0  0  0  0  0
  -10.6532   -1.8093  -17.2470 H   0  0  0  0  0  0  0  0  0  0  0  0
  -10.2073   -3.5119  -17.1401 H   0  0  0  0  0  0  0  0  0  0  0  0
   -6.6161   -1.4557  -16.9794 H   0  0  0  0  0  0  0  0  0  0  0  0
   -7.0514    0.2688  -16.9642 H   0  0  0  0  0  0  0  0  0  0  0  0
   -9.7832   -2.1658  -15.0117 H   0  0  0  0  0  0  0  0  0  0  0  0
   -8.3697   -3.0341  -15.6163 H   0  0  0  0  0  0  0  0  0  0  0  0
  -10.8670    0.9950  -11.1132 H   0  0  0  0  0  0  0  0  0  0  0  0
  -10.8585   -0.6374  -11.7659 H   0  0  0  0  0  0  0  0  0  0  0  0
   -7.2286   -1.0444  -10.8785 H   0  0  0  0  0  0  0  0  0  0  0  0
   -7.2837    0.5549  -11.6084 H   0  0  0  0  0  0  0  0  0  0  0  0
  -10.7044    1.0106  -13.6007 H   0  0  0  0  0  0  0  0  0  0  0  0
   -9.2859    1.7761  -12.8743 H   0  0  0  0  0  0  0  0  0  0  0  0
   -7.1671   -1.1464  -13.3855 H   0  0  0  0  0  0  0  0  0  0  0  0
   -8.5696   -1.9813  -12.7724 H   0  0  0  0  0  0  0  0  0  0  0  0
   -8.9182    0.7328  -10.1387 H   0  0  0  0  0  0  0  0  0  0  0  0
  1 12  1  0  0  0  0
  1 13  1  0  0  0  0
  1 14  2  0  0  0  0
  2  3  1  0  0  0  0
  2  4  1  0  0  0  0
  3  5  1  0  0  0  0
  4  6  1  0  0  0  0
  5 12  1  0  0  0  0
  6 12  1  0  0  0  0
  7  9  1  0  0  0  0
  7 11  1  0  0  0  0
  8 10  1  0  0  0  0
  8 11  1  0  0  0  0
  9 13  1  0  0  0  0
 10 13  1  0  0  0  0
  2 15  1  0  0  0  0
  2 16  1  0  0  0  0
  3 17  1  0  0  0  0
  3 18  1  0  0  0  0
  4 19  1  0  0  0  0
  4 20  1  0  0  0  0
  5 21  1  0  0  0  0
  5 22  1  0  0  0  0
  6 23  1  0  0  0  0
  6 24  1  0  0  0  0
  7 25  1  0  0  0  0
  7 26  1  0  0  0  0
  8 27  1  0  0  0  0
  8 28  1  0  0  0  0
  9 29  1  0  0  0  0
  9 30  1  0  0  0  0
 10 31  1  0  0  0  0
 10 32  1  0  0  0  0
 11 33  1  0  0  0  0
M  END
> <id>
EN300-26395

> <smiles>
Cl.O=C(N1CCCCC1)N2CCNCC2

> <MDLNUMBER>
MFCD08692010

> <IUPAC Name>
1-(piperidine-1-carbonyl)piperazine hydrochloride

> <CAS>
1171913-28-2

> <Purity>
95

> <URL>
https://www.enaminestore.com/catalog/EN300-26395

> <Saltdate>
Cl

> <ROCS_ShapeQuery>
amalgated

> <ROCS_TanimotoCombo>
0.912 

> <ROCS_ShapeTanimoto>
0.531 

> <ROCS_ColorTanimoto>
0.381 

> <ROCS_RefTversky>
0.486 

> <ROCS_RefColorTversky>
0.480 

> <ROCS_RefTverskyCombo>
0.966 

> <ROCS_FitTversky>
1.212 

> <ROCS_FitColorTversky>
0.649 

> <ROCS_FitTverskyCombo>
1.861 

> <ROCS_ColorScore>
-3.311

> <ROCS_Overlap>
795.547

> <ROCS_Rank>
29                  

$$$$
untitled-dbase-51345_24
  -OEChem-10092318153D

 44 45  0     1  0  0  0  0  0999 V2000
   -8.5820   -0.3741  -14.3521 C   0  0  0  0  0  0  0  0  0  0  0  0
   -7.6441    1.8685  -17.9472 C   0  0  0  0  0  0  0  0  0  0  0  0
   -7.3597    2.4646  -16.5868 C   0  0  0  0  0  0  0  0  0  0  0  0
   -9.7107   -2.2079  -17.3193 C   0  0  0  0  0  0  0  0  0  0  0  0
   -7.2829    0.3960  -17.9079 C   0  0  0  0  0  0  0  0  0  0  0  0
   -9.5249   -0.6934  -17.3562 C   0  0  0  0  0  0  0  0  0  0  0  0
   -7.4080   -1.8306  -16.7849 C   0  0  0  0  0  0  0  0  0  0  0  0
   -8.1751    1.7682  -15.5138 C   0  0  0  0  0  0  0  0  0  0  0  0
   -8.3209   -2.7795  -17.5697 C   0  0  2  0  0  0  0  0  0  0  0  0
   -8.0803   -0.4186  -16.8491 C   0  0  1  0  0  0  0  0  0  0  0  0
   -8.3731   -0.9219  -11.5445 C   0  0  0  0  0  0  0  0  0  0  0  0
   -9.9097    1.0408  -11.2346 C   0  0  0  0  0  0  0  0  0  0  0  0
  -10.6992   -0.9774  -12.5041 C   0  0  0  0  0  0  0  0  0  0  0  0
   -9.4974   -0.0958  -12.1676 C   0  0  0  0  0  0  0  0  0  0  0  0
   -8.1312    0.2933  -15.5225 N   0  0  0  0  0  0  0  0  0  0  0  0
   -8.0034   -2.7585  -18.9957 N   0  0  0  0  0  0  0  0  0  0  0  0
   -8.6130   -1.5916  -14.1917 O   0  0  0  0  0  0  0  0  0  0  0  0
   -9.0116    0.4949  -13.3790 O   0  0  0  0  0  0  0  0  0  0  0  0
   -8.6846    2.0049  -18.1978 H   0  0  0  0  0  0  0  0  0  0  0  0
   -7.0480    2.3595  -18.7026 H   0  0  0  0  0  0  0  0  0  0  0  0
   -6.2954    2.3862  -16.3598 H   0  0  0  0  0  0  0  0  0  0  0  0
   -7.6059    3.5291  -16.5914 H   0  0  0  0  0  0  0  0  0  0  0  0
  -10.1316   -2.5443  -16.3553 H   0  0  0  0  0  0  0  0  0  0  0  0
  -10.4233   -2.5225  -18.1046 H   0  0  0  0  0  0  0  0  0  0  0  0
   -7.4161   -0.0326  -18.9097 H   0  0  0  0  0  0  0  0  0  0  0  0
   -6.2090    0.3065  -17.6890 H   0  0  0  0  0  0  0  0  0  0  0  0
   -9.7186   -0.2929  -18.3629 H   0  0  0  0  0  0  0  0  0  0  0  0
  -10.2791   -0.2319  -16.6982 H   0  0  0  0  0  0  0  0  0  0  0  0
   -7.2542   -2.1910  -15.7606 H   0  0  0  0  0  0  0  0  0  0  0  0
   -6.4062   -1.8014  -17.2365 H   0  0  0  0  0  0  0  0  0  0  0  0
   -7.8462    2.0913  -14.4957 H   0  0  0  0  0  0  0  0  0  0  0  0
   -9.2281    2.1287  -15.5855 H   0  0  0  0  0  0  0  0  0  0  0  0
   -8.2495   -3.7783  -17.1969 H   0  0  0  0  0  0  0  0  0  0  0  0
   -8.0744   -1.7388  -12.2111 H   0  0  0  0  0  0  0  0  0  0  0  0
   -7.4923   -0.3078  -11.3305 H   0  0  0  0  0  0  0  0  0  0  0  0
   -8.7036   -1.3903  -10.6103 H   0  0  0  0  0  0  0  0  0  0  0  0
  -10.7162    1.6362  -11.6777 H   0  0  0  0  0  0  0  0  0  0  0  0
   -9.0742    1.7299  -11.0660 H   0  0  0  0  0  0  0  0  0  0  0  0
  -10.2496    0.6641  -10.2645 H   0  0  0  0  0  0  0  0  0  0  0  0
  -11.5058   -0.3851  -12.9510 H   0  0  0  0  0  0  0  0  0  0  0  0
  -10.4301   -1.7769  -13.2019 H   0  0  0  0  0  0  0  0  0  0  0  0
  -11.1151   -1.4318  -11.5975 H   0  0  0  0  0  0  0  0  0  0  0  0
   -7.0767   -3.0979  -19.1198 H   0  0  0  0  0  0  0  0  0  0  0  0
   -8.6520   -3.3419  -19.4736 H   0  0  0  0  0  0  0  0  0  0  0  0
  1 15  1  0  0  0  0
  1 17  2  0  0  0  0
  1 18  1  0  0  0  0
  2  3  1  0  0  0  0
  2  5  1  0  0  0  0
  3  8  1  0  0  0  0
  4  6  1  0  0  0  0
  4  9  1  0  0  0  0
  5 10  1  1  0  0  0
  6 10  1  0  0  0  0
  7  9  1  0  0  0  0
  7 10  1  0  0  0  0
  8 15  1  0  0  0  0
  9 16  1  1  0  0  0
 10 15  1  0  0  0  0
 11 14  1  0  0  0  0
 12 14  1  0  0  0  0
 13 14  1  0  0  0  0
 14 18  1  0  0  0  0
  2 19  1  0  0  0  0
  2 20  1  0  0  0  0
  3 21  1  0  0  0  0
  3 22  1  0  0  0  0
  4 23  1  0  0  0  0
  4 24  1  0  0  0  0
  5 25  1  0  0  0  0
  5 26  1  0  0  0  0
  6 27  1  0  0  0  0
  6 28  1  0  0  0  0
  7 29  1  0  0  0  0
  7 30  1  0  0  0  0
  8 31  1  0  0  0  0
  8 32  1  0  0  0  0
  9 33  1  0  0  0  0
 11 34  1  0  0  0  0
 11 35  1  0  0  0  0
 11 36  1  0  0  0  0
 12 37  1  0  0  0  0
 12 38  1  0  0  0  0
 12 39  1  0  0  0  0
 13 40  1  0  0  0  0
 13 41  1  0  0  0  0
 13 42  1  0  0  0  0
 16 43  1  0  0  0  0
 16 44  1  0  0  0  0
M  END
> <id>
EN300-37431813

> <smiles>
CC(C)(C)OC(=O)N1CCCC[C@@]21CC[C@@H](N)C2 |&1:12,15,r|

> <IUPAC Name>
rac-tert-butyl (2R,5R)-2-amino-6-azaspiro[4.5]decane-6-carboxylate

> <Purity>
95

> <URL>
https://www.enaminestore.com/catalog/EN300-37431813

> <ROCS_ShapeQuery>
amalgated

> <ROCS_TanimotoCombo>
0.911 

> <ROCS_ShapeTanimoto>
0.610 

> <ROCS_ColorTanimoto>
0.301 

> <ROCS_RefTversky>
0.569 

> <ROCS_RefColorTversky>
0.433 

> <ROCS_RefTverskyCombo>
1.002 

> <ROCS_FitTversky>
1.133 

> <ROCS_FitColorTversky>
0.497 

> <ROCS_FitTverskyCombo>
1.630 

> <ROCS_ColorScore>
-3.009

> <ROCS_Overlap>
936.012

> <ROCS_Rank>
30                  

$$$$
untitled-dbase-30834_62
  -OEChem-10092318153D

 38 39  0     1  0  0  0  0  0999 V2000
   -7.5265    1.1678  -16.3778 C   0  0  0  0  0  0  0  0  0  0  0  0
   -6.9977    1.9117  -17.4347 C   0  0  0  0  0  0  0  0  0  0  0  0
   -7.5906    0.1536  -18.9596 C   0  0  0  0  0  0  0  0  0  0  0  0
   -8.1043   -0.6274  -17.9040 C   0  0  0  0  0  0  0  0  0  0  0  0
   -8.0739   -0.1117  -16.5835 C   0  0  0  0  0  0  0  0  0  0  0  0
   -7.0282    1.4050  -18.7250 C   0  0  0  0  0  0  0  0  0  0  0  0
   -8.4078   -0.6810  -14.1322 C   0  0  0  0  0  0  0  0  0  0  0  0
   -9.0275   -2.7920  -16.9683 C   0  0  0  0  0  0  0  0  0  0  0  0
   -9.6206   -1.9031  -15.8923 C   0  0  0  0  0  0  0  0  0  0  0  0
   -8.7427   -1.9710  -18.2262 C   0  0  2  0  0  0  0  0  0  0  0  0
   -9.6695    1.3743  -12.5851 C   0  0  0  0  0  0  0  0  0  0  0  0
  -10.8766   -0.4987  -11.4258 C   0  0  0  0  0  0  0  0  0  0  0  0
   -8.3740   -0.3446  -11.2807 C   0  0  0  0  0  0  0  0  0  0  0  0
   -9.5996   -0.0909  -12.1572 C   0  0  0  0  0  0  0  0  0  0  0  0
   -8.6615   -0.8643  -15.5056 N   0  0  0  0  0  0  0  0  0  0  0  0
   -7.9459   -2.8167  -19.1208 N   0  0  0  0  0  0  0  0  0  0  0  0
   -7.3317   -0.2840  -13.6844 O   0  0  0  0  0  0  0  0  0  0  0  0
   -9.4965   -0.9043  -13.3320 O   0  0  0  0  0  0  0  0  0  0  0  0
   -6.3031    2.4030  -20.1567 Br  0  0  0  0  0  0  0  0  0  0  0  0
   -7.4752    1.6397  -15.4085 H   0  0  0  0  0  0  0  0  0  0  0  0
   -6.5622    2.8847  -17.2292 H   0  0  0  0  0  0  0  0  0  0  0  0
   -7.6340   -0.2334  -19.9777 H   0  0  0  0  0  0  0  0  0  0  0  0
   -8.1134   -3.2668  -16.6032 H   0  0  0  0  0  0  0  0  0  0  0  0
   -9.7308   -3.5970  -17.2030 H   0  0  0  0  0  0  0  0  0  0  0  0
  -10.5187   -1.4520  -16.2938 H   0  0  0  0  0  0  0  0  0  0  0  0
   -9.8781   -2.4635  -15.0027 H   0  0  0  0  0  0  0  0  0  0  0  0
   -9.7271   -1.8113  -18.7185 H   0  0  0  0  0  0  0  0  0  0  0  0
   -8.7547    1.6710  -13.1104 H   0  0  0  0  0  0  0  0  0  0  0  0
  -10.5246    1.5622  -13.2426 H   0  0  0  0  0  0  0  0  0  0  0  0
   -9.7524    2.0328  -11.7128 H   0  0  0  0  0  0  0  0  0  0  0  0
  -10.8308   -1.5493  -11.1170 H   0  0  0  0  0  0  0  0  0  0  0  0
  -11.7489   -0.4080  -12.0833 H   0  0  0  0  0  0  0  0  0  0  0  0
  -11.0471    0.1169  -10.5367 H   0  0  0  0  0  0  0  0  0  0  0  0
   -8.3236   -1.3956  -10.9737 H   0  0  0  0  0  0  0  0  0  0  0  0
   -7.4454   -0.0923  -11.8030 H   0  0  0  0  0  0  0  0  0  0  0  0
   -8.4259    0.2448  -10.3582 H   0  0  0  0  0  0  0  0  0  0  0  0
   -8.4307   -3.6720  -19.2449 H   0  0  0  0  0  0  0  0  0  0  0  0
   -7.8446   -2.3384  -19.9827 H   0  0  0  0  0  0  0  0  0  0  0  0
  1  2  1  0  0  0  0
  1  5  2  0  0  0  0
  2  6  2  0  0  0  0
  3  4  2  0  0  0  0
  3  6  1  0  0  0  0
  4  5  1  0  0  0  0
  4 10  1  0  0  0  0
  5 15  1  0  0  0  0
  6 19  1  0  0  0  0
  7 15  1  0  0  0  0
  7 17  2  0  0  0  0
  7 18  1  0  0  0  0
  8  9  1  0  0  0  0
  8 10  1  0  0  0  0
  9 15  1  0  0  0  0
 10 16  1  0  0  0  0
 11 14  1  0  0  0  0
 12 14  1  0  0  0  0
 13 14  1  0  0  0  0
 14 18  1  0  0  0  0
  1 20  1  0  0  0  0
  2 21  1  0  0  0  0
  3 22  1  0  0  0  0
  8 23  1  0  0  0  0
  8 24  1  0  0  0  0
  9 25  1  0  0  0  0
  9 26  1  0  0  0  0
 10 27  1  0  0  0  0
 11 28  1  0  0  0  0
 11 29  1  0  0  0  0
 11 30  1  0  0  0  0
 12 31  1  0  0  0  0
 12 32  1  0  0  0  0
 12 33  1  0  0  0  0
 13 34  1  0  0  0  0
 13 35  1  0  0  0  0
 13 36  1  0  0  0  0
 16 37  1  0  0  0  0
 16 38  1  0  0  0  0
M  END
> <id>
EN300-631694

> <smiles>
CC(C)(C)OC(=O)N1CCC(N)C=2C=C(Br)C=CC12

> <MDLNUMBER>
MFCD20923672

> <IUPAC Name>
tert-butyl 4-amino-6-bromo-1,2,3,4-tetrahydroquinoline-1-carboxylate

> <CAS>
1824468-65-6

> <Purity>
95

> <URL>
https://www.enaminestore.com/catalog/EN300-631694

> <ROCS_ShapeQuery>
amalgated

> <ROCS_TanimotoCombo>
0.909 

> <ROCS_ShapeTanimoto>
0.654 

> <ROCS_ColorTanimoto>
0.255 

> <ROCS_RefTversky>
0.605 

> <ROCS_RefColorTversky>
0.407 

> <ROCS_RefTverskyCombo>
1.012 

> <ROCS_FitTversky>
1.139 

> <ROCS_FitColorTversky>
0.407 

> <ROCS_FitTverskyCombo>
1.546 

> <ROCS_ColorScore>
-2.850

> <ROCS_Overlap>
996.997

> <ROCS_Rank>
31                  

$$$$
untitled-dbase-3687_47
  -OEChem-10092318153D

 32 33  0     0  0  0  0  0  0999 V2000
   -7.6521   -0.6501  -14.3814 C   0  0  0  0  0  0  0  0  0  0  0  0
   -8.1176   -0.0562  -15.6581 C   0  0  0  0  0  0  0  0  0  0  0  0
   -9.7807    0.7135  -11.6636 C   0  0  0  0  0  0  0  0  0  0  0  0
   -9.2373   -0.5796  -11.0714 C   0  0  0  0  0  0  0  0  0  0  0  0
   -9.5583    0.5262  -13.1582 C   0  0  0  0  0  0  0  0  0  0  0  0
   -8.0228   -0.8626  -11.9415 C   0  0  0  0  0  0  0  0  0  0  0  0
   -8.3384   -1.2659  -19.0985 C   0  0  0  0  0  0  0  0  0  0  0  0
   -8.8274   -3.1932  -17.6994 C   0  0  0  0  0  0  0  0  0  0  0  0
   -8.9591   -0.4889  -17.9347 C   0  0  0  0  0  0  0  0  0  0  0  0
   -8.5137   -2.4124  -16.4252 C   0  0  0  0  0  0  0  0  0  0  0  0
   -8.0439   -2.6715  -18.8118 N   0  0  0  0  0  0  0  0  0  0  0  0
   -8.3794   -0.3335  -13.2507 N   0  0  0  0  0  0  0  0  0  0  0  0
   -8.4828   -0.9638  -16.6416 N   0  0  0  0  0  0  0  0  0  0  0  0
   -6.6640   -1.3835  -14.3943 O   0  0  0  0  0  0  0  0  0  0  0  0
   -8.1328    1.1659  -15.7072 O   0  0  0  0  0  0  0  0  0  0  0  0
  -10.8521    0.8088  -11.4483 H   0  0  0  0  0  0  0  0  0  0  0  0
   -9.2685    1.5982  -11.2730 H   0  0  0  0  0  0  0  0  0  0  0  0
   -8.9303   -0.4189  -10.0321 H   0  0  0  0  0  0  0  0  0  0  0  0
   -9.9700   -1.3897  -11.0982 H   0  0  0  0  0  0  0  0  0  0  0  0
  -10.4106    0.0700  -13.6689 H   0  0  0  0  0  0  0  0  0  0  0  0
   -9.3157    1.4732  -13.6516 H   0  0  0  0  0  0  0  0  0  0  0  0
   -7.1100   -0.3915  -11.5635 H   0  0  0  0  0  0  0  0  0  0  0  0
   -7.8499   -1.9394  -12.0504 H   0  0  0  0  0  0  0  0  0  0  0  0
   -9.0001   -1.1978  -19.9879 H   0  0  0  0  0  0  0  0  0  0  0  0
   -7.3967   -0.7646  -19.3991 H   0  0  0  0  0  0  0  0  0  0  0  0
   -8.5761   -4.2434  -17.5462 H   0  0  0  0  0  0  0  0  0  0  0  0
   -9.8945   -3.1364  -17.9238 H   0  0  0  0  0  0  0  0  0  0  0  0
   -8.6906    0.5757  -18.0046 H   0  0  0  0  0  0  0  0  0  0  0  0
  -10.0522   -0.5473  -18.0059 H   0  0  0  0  0  0  0  0  0  0  0  0
   -9.2436   -2.6636  -15.6418 H   0  0  0  0  0  0  0  0  0  0  0  0
   -7.5229   -2.6958  -16.0368 H   0  0  0  0  0  0  0  0  0  0  0  0
   -8.2314   -3.2312  -19.6521 H   0  0  0  0  0  0  0  0  0  0  0  0
  1  2  1  0  0  0  0
  1 12  1  0  0  0  0
  1 14  2  0  0  0  0
  2 13  1  0  0  0  0
  2 15  2  0  0  0  0
  3  4  1  0  0  0  0
  3  5  1  0  0  0  0
  4  6  1  0  0  0  0
  5 12  1  0  0  0  0
  6 12  1  0  0  0  0
  7  9  1  0  0  0  0
  7 11  1  0  0  0  0
  8 10  1  0  0  0  0
  8 11  1  0  0  0  0
  9 13  1  0  0  0  0
 10 13  1  0  0  0  0
  3 16  1  0  0  0  0
  3 17  1  0  0  0  0
  4 18  1  0  0  0  0
  4 19  1  0  0  0  0
  5 20  1  0  0  0  0
  5 21  1  0  0  0  0
  6 22  1  0  0  0  0
  6 23  1  0  0  0  0
  7 24  1  0  0  0  0
  7 25  1  0  0  0  0
  8 26  1  0  0  0  0
  8 27  1  0  0  0  0
  9 28  1  0  0  0  0
  9 29  1  0  0  0  0
 10 30  1  0  0  0  0
 10 31  1  0  0  0  0
 11 32  1  0  0  0  0
M  END
> <id>
EN300-42891

> <smiles>
O=C(N1CCCC1)C(=O)N2CCNCC2

> <MDLNUMBER>
MFCD10011312

> <IUPAC Name>
1-(piperazin-1-yl)-2-(pyrrolidin-1-yl)ethane-1,2-dione

> <CAS>
1018253-00-3

> <URL>
https://www.enaminestore.com/catalog/EN300-42891

> <ROCS_ShapeQuery>
amalgated

> <ROCS_TanimotoCombo>
0.909 

> <ROCS_ShapeTanimoto>
0.530 

> <ROCS_ColorTanimoto>
0.379 

> <ROCS_RefTversky>
0.496 

> <ROCS_RefColorTversky>
0.514 

> <ROCS_RefTverskyCombo>
1.011 

> <ROCS_FitTversky>
1.146 

> <ROCS_FitColorTversky>
0.591 

> <ROCS_FitTverskyCombo>
1.737 

> <ROCS_ColorScore>
-3.575

> <ROCS_Overlap>
812.940

> <ROCS_Rank>
32                  

$$$$
untitled-dbase-39464_47
  -OEChem-10092318153D

 32 33  0     0  0  0  0  0  0999 V2000
   -7.6521   -0.6501  -14.3814 C   0  0  0  0  0  0  0  0  0  0  0  0
   -8.1176   -0.0562  -15.6581 C   0  0  0  0  0  0  0  0  0  0  0  0
   -9.7807    0.7135  -11.6636 C   0  0  0  0  0  0  0  0  0  0  0  0
   -9.2373   -0.5796  -11.0714 C   0  0  0  0  0  0  0  0  0  0  0  0
   -9.5583    0.5262  -13.1582 C   0  0  0  0  0  0  0  0  0  0  0  0
   -8.0228   -0.8626  -11.9415 C   0  0  0  0  0  0  0  0  0  0  0  0
   -8.3384   -1.2659  -19.0985 C   0  0  0  0  0  0  0  0  0  0  0  0
   -8.8274   -3.1932  -17.6994 C   0  0  0  0  0  0  0  0  0  0  0  0
   -8.9591   -0.4889  -17.9347 C   0  0  0  0  0  0  0  0  0  0  0  0
   -8.5137   -2.4124  -16.4252 C   0  0  0  0  0  0  0  0  0  0  0  0
   -8.0439   -2.6715  -18.8118 N   0  0  0  0  0  0  0  0  0  0  0  0
   -8.3794   -0.3335  -13.2507 N   0  0  0  0  0  0  0  0  0  0  0  0
   -8.4828   -0.9638  -16.6416 N   0  0  0  0  0  0  0  0  0  0  0  0
   -6.6640   -1.3835  -14.3943 O   0  0  0  0  0  0  0  0  0  0  0  0
   -8.1328    1.1659  -15.7072 O   0  0  0  0  0  0  0  0  0  0  0  0
  -10.8521    0.8088  -11.4483 H   0  0  0  0  0  0  0  0  0  0  0  0
   -9.2685    1.5982  -11.2730 H   0  0  0  0  0  0  0  0  0  0  0  0
   -8.9303   -0.4189  -10.0321 H   0  0  0  0  0  0  0  0  0  0  0  0
   -9.9700   -1.3897  -11.0982 H   0  0  0  0  0  0  0  0  0  0  0  0
  -10.4106    0.0700  -13.6689 H   0  0  0  0  0  0  0  0  0  0  0  0
   -9.3157    1.4732  -13.6516 H   0  0  0  0  0  0  0  0  0  0  0  0
   -7.1100   -0.3915  -11.5635 H   0  0  0  0  0  0  0  0  0  0  0  0
   -7.8499   -1.9394  -12.0504 H   0  0  0  0  0  0  0  0  0  0  0  0
   -9.0001   -1.1978  -19.9879 H   0  0  0  0  0  0  0  0  0  0  0  0
   -7.3967   -0.7646  -19.3991 H   0  0  0  0  0  0  0  0  0  0  0  0
   -8.5761   -4.2434  -17.5462 H   0  0  0  0  0  0  0  0  0  0  0  0
   -9.8945   -3.1364  -17.9238 H   0  0  0  0  0  0  0  0  0  0  0  0
   -8.6906    0.5757  -18.0046 H   0  0  0  0  0  0  0  0  0  0  0  0
  -10.0522   -0.5473  -18.0059 H   0  0  0  0  0  0  0  0  0  0  0  0
   -9.2436   -2.6636  -15.6418 H   0  0  0  0  0  0  0  0  0  0  0  0
   -7.5229   -2.6958  -16.0368 H   0  0  0  0  0  0  0  0  0  0  0  0
   -8.2314   -3.2312  -19.6521 H   0  0  0  0  0  0  0  0  0  0  0  0
  1  2  1  0  0  0  0
  1 12  1  0  0  0  0
  1 14  2  0  0  0  0
  2 13  1  0  0  0  0
  2 15  2  0  0  0  0
  3  4  1  0  0  0  0
  3  5  1  0  0  0  0
  4  6  1  0  0  0  0
  5 12  1  0  0  0  0
  6 12  1  0  0  0  0
  7  9  1  0  0  0  0
  7 11  1  0  0  0  0
  8 10  1  0  0  0  0
  8 11  1  0  0  0  0
  9 13  1  0  0  0  0
 10 13  1  0  0  0  0
  3 16  1  0  0  0  0
  3 17  1  0  0  0  0
  4 18  1  0  0  0  0
  4 19  1  0  0  0  0
  5 20  1  0  0  0  0
  5 21  1  0  0  0  0
  6 22  1  0  0  0  0
  6 23  1  0  0  0  0
  7 24  1  0  0  0  0
  7 25  1  0  0  0  0
  8 26  1  0  0  0  0
  8 27  1  0  0  0  0
  9 28  1  0  0  0  0
  9 29  1  0  0  0  0
 10 30  1  0  0  0  0
 10 31  1  0  0  0  0
 11 32  1  0  0  0  0
M  END
> <id>
EN300-42877

> <smiles>
Cl.O=C(N1CCCC1)C(=O)N2CCNCC2

> <MDLNUMBER>
MFCD11857981

> <IUPAC Name>
1-(piperazin-1-yl)-2-(pyrrolidin-1-yl)ethane-1,2-dione hydrochloride

> <CAS>
1171593-08-0

> <Purity>
95

> <URL>
https://www.enaminestore.com/catalog/EN300-42877

> <Saltdate>
Cl

> <ROCS_ShapeQuery>
amalgated

> <ROCS_TanimotoCombo>
0.909 

> <ROCS_ShapeTanimoto>
0.530 

> <ROCS_ColorTanimoto>
0.379 

> <ROCS_RefTversky>
0.496 

> <ROCS_RefColorTversky>
0.514 

> <ROCS_RefTverskyCombo>
1.011 

> <ROCS_FitTversky>
1.146 

> <ROCS_FitColorTversky>
0.591 

> <ROCS_FitTverskyCombo>
1.737 

> <ROCS_ColorScore>
-3.575

> <ROCS_Overlap>
812.940

> <ROCS_Rank>
33                  

$$$$
untitled-dbase-35304_5
  -OEChem-10092318153D

 30 32  0     0  0  0  0  0  0999 V2000
   -9.0943   -2.8994  -16.8417 C   0  0  0  0  0  0  0  0  0  0  0  0
   -8.7309   -2.4344  -18.1212 C   0  0  0  0  0  0  0  0  0  0  0  0
   -9.0167   -2.0636  -15.7212 C   0  0  0  0  0  0  0  0  0  0  0  0
   -8.2833   -1.1259  -18.3046 C   0  0  0  0  0  0  0  0  0  0  0  0
   -8.5720   -0.7698  -15.9152 C   0  0  0  0  0  0  0  0  0  0  0  0
   -8.2199   -0.3328  -17.1815 C   0  0  0  0  0  0  0  0  0  0  0  0
   -8.3879    0.3257  -14.9390 C   0  0  0  0  0  0  0  0  0  0  0  0
  -10.2358    0.1828  -11.7779 C   0  0  0  0  0  0  0  0  0  0  0  0
   -7.9020   -0.4547  -11.4055 C   0  0  0  0  0  0  0  0  0  0  0  0
   -9.6712    0.9488  -12.9733 C   0  0  0  0  0  0  0  0  0  0  0  0
   -7.9752   -0.8810  -12.8711 C   0  0  0  0  0  0  0  0  0  0  0  0
   -7.9450    1.4457  -15.4548 N   0  0  0  0  0  0  0  0  0  0  0  0
   -9.2080   -0.1856  -10.8035 N   0  0  0  0  0  0  0  0  0  0  0  0
   -8.6621    0.1416  -13.6610 N   0  0  0  0  0  0  0  0  0  0  0  0
   -6.2964    1.3578  -17.3978 O   0  0  0  0  0  0  0  0  0  0  0  0
   -8.6858    2.1177  -17.8001 O   0  0  0  0  0  0  0  0  0  0  0  0
   -7.7099    1.3231  -17.0829 S   0  0  0  0  0  0  0  0  0  0  0  0
   -9.4401   -3.9233  -16.7248 H   0  0  0  0  0  0  0  0  0  0  0  0
   -8.8010   -3.1051  -18.9735 H   0  0  0  0  0  0  0  0  0  0  0  0
   -9.3000   -2.4363  -14.7437 H   0  0  0  0  0  0  0  0  0  0  0  0
   -8.0022   -0.7607  -19.2847 H   0  0  0  0  0  0  0  0  0  0  0  0
  -10.9917    0.8037  -11.2739 H   0  0  0  0  0  0  0  0  0  0  0  0
  -10.7674   -0.7203  -12.1194 H   0  0  0  0  0  0  0  0  0  0  0  0
   -7.3688   -1.2215  -10.8120 H   0  0  0  0  0  0  0  0  0  0  0  0
   -7.2835    0.4570  -11.3250 H   0  0  0  0  0  0  0  0  0  0  0  0
  -10.4938    1.2142  -13.6497 H   0  0  0  0  0  0  0  0  0  0  0  0
   -9.2079    1.8887  -12.6449 H   0  0  0  0  0  0  0  0  0  0  0  0
   -6.9672   -1.0261  -13.2815 H   0  0  0  0  0  0  0  0  0  0  0  0
   -8.4926   -1.8466  -12.9379 H   0  0  0  0  0  0  0  0  0  0  0  0
   -9.1044    0.5898  -10.1260 H   0  0  0  0  0  0  0  0  0  0  0  0
  1  2  2  0  0  0  0
  1  3  1  0  0  0  0
  2  4  1  0  0  0  0
  3  5  2  0  0  0  0
  4  6  2  0  0  0  0
  5  6  1  0  0  0  0
  5  7  1  0  0  0  0
  6 17  1  0  0  0  0
  7 12  2  0  0  0  0
  7 14  1  0  0  0  0
  8 10  1  0  0  0  0
  8 13  1  0  0  0  0
  9 11  1  0  0  0  0
  9 13  1  0  0  0  0
 10 14  1  0  0  0  0
 11 14  1  0  0  0  0
 12 17  1  0  0  0  0
 15 17  2  0  0  0  0
 16 17  2  0  0  0  0
  1 18  1  0  0  0  0
  2 19  1  0  0  0  0
  3 20  1  0  0  0  0
  4 21  1  0  0  0  0
  8 22  1  0  0  0  0
  8 23  1  0  0  0  0
  9 24  1  0  0  0  0
  9 25  1  0  0  0  0
 10 26  1  0  0  0  0
 10 27  1  0  0  0  0
 11 28  1  0  0  0  0
 11 29  1  0  0  0  0
 13 30  1  0  0  0  0
M  END
> <id>
EN300-43592

> <smiles>
O=S1(=O)N=C(N2CCNCC2)C=3C=CC=CC31

> <MDLNUMBER>
MFCD01442091

> <IUPAC Name>
3-(piperazin-1-yl)-1lambda6,2-benzothiazole-1,1-dione

> <CAS>
131540-88-0

> <Purity>
95

> <URL>
https://www.enaminestore.com/catalog/EN300-43592

> <ROCS_ShapeQuery>
amalgated

> <ROCS_TanimotoCombo>
0.908 

> <ROCS_ShapeTanimoto>
0.631 

> <ROCS_ColorTanimoto>
0.278 

> <ROCS_RefTversky>
0.577 

> <ROCS_RefColorTversky>
0.463 

> <ROCS_RefTverskyCombo>
1.040 

> <ROCS_FitTversky>
1.173 

> <ROCS_FitColorTversky>
0.410 

> <ROCS_FitTverskyCombo>
1.583 

> <ROCS_ColorScore>
-3.263

> <ROCS_Overlap>
948.344

> <ROCS_Rank>
34                  

$$$$
untitled-dbase-787_5
  -OEChem-10092318153D

 30 32  0     0  0  0  0  0  0999 V2000
   -9.0943   -2.8994  -16.8417 C   0  0  0  0  0  0  0  0  0  0  0  0
   -8.7309   -2.4344  -18.1212 C   0  0  0  0  0  0  0  0  0  0  0  0
   -9.0167   -2.0636  -15.7212 C   0  0  0  0  0  0  0  0  0  0  0  0
   -8.2833   -1.1259  -18.3046 C   0  0  0  0  0  0  0  0  0  0  0  0
   -8.5720   -0.7698  -15.9152 C   0  0  0  0  0  0  0  0  0  0  0  0
   -8.2199   -0.3328  -17.1815 C   0  0  0  0  0  0  0  0  0  0  0  0
   -8.3879    0.3257  -14.9390 C   0  0  0  0  0  0  0  0  0  0  0  0
  -10.2358    0.1828  -11.7779 C   0  0  0  0  0  0  0  0  0  0  0  0
   -7.9020   -0.4547  -11.4055 C   0  0  0  0  0  0  0  0  0  0  0  0
   -9.6712    0.9488  -12.9733 C   0  0  0  0  0  0  0  0  0  0  0  0
   -7.9752   -0.8810  -12.8711 C   0  0  0  0  0  0  0  0  0  0  0  0
   -7.9450    1.4457  -15.4548 N   0  0  0  0  0  0  0  0  0  0  0  0
   -9.2080   -0.1856  -10.8035 N   0  0  0  0  0  0  0  0  0  0  0  0
   -8.6621    0.1416  -13.6610 N   0  0  0  0  0  0  0  0  0  0  0  0
   -6.2964    1.3578  -17.3978 O   0  0  0  0  0  0  0  0  0  0  0  0
   -8.6858    2.1177  -17.8001 O   0  0  0  0  0  0  0  0  0  0  0  0
   -7.7099    1.3231  -17.0829 S   0  0  0  0  0  0  0  0  0  0  0  0
   -9.4401   -3.9233  -16.7248 H   0  0  0  0  0  0  0  0  0  0  0  0
   -8.8010   -3.1051  -18.9735 H   0  0  0  0  0  0  0  0  0  0  0  0
   -9.3000   -2.4363  -14.7437 H   0  0  0  0  0  0  0  0  0  0  0  0
   -8.0022   -0.7607  -19.2847 H   0  0  0  0  0  0  0  0  0  0  0  0
  -10.9917    0.8037  -11.2739 H   0  0  0  0  0  0  0  0  0  0  0  0
  -10.7674   -0.7203  -12.1194 H   0  0  0  0  0  0  0  0  0  0  0  0
   -7.3688   -1.2215  -10.8120 H   0  0  0  0  0  0  0  0  0  0  0  0
   -7.2835    0.4570  -11.3250 H   0  0  0  0  0  0  0  0  0  0  0  0
  -10.4938    1.2142  -13.6497 H   0  0  0  0  0  0  0  0  0  0  0  0
   -9.2079    1.8887  -12.6449 H   0  0  0  0  0  0  0  0  0  0  0  0
   -6.9672   -1.0261  -13.2815 H   0  0  0  0  0  0  0  0  0  0  0  0
   -8.4926   -1.8466  -12.9379 H   0  0  0  0  0  0  0  0  0  0  0  0
   -9.1044    0.5898  -10.1260 H   0  0  0  0  0  0  0  0  0  0  0  0
  1  2  2  0  0  0  0
  1  3  1  0  0  0  0
  2  4  1  0  0  0  0
  3  5  2  0  0  0  0
  4  6  2  0  0  0  0
  5  6  1  0  0  0  0
  5  7  1  0  0  0  0
  6 17  1  0  0  0  0
  7 12  2  0  0  0  0
  7 14  1  0  0  0  0
  8 10  1  0  0  0  0
  8 13  1  0  0  0  0
  9 11  1  0  0  0  0
  9 13  1  0  0  0  0
 10 14  1  0  0  0  0
 11 14  1  0  0  0  0
 12 17  1  0  0  0  0
 15 17  2  0  0  0  0
 16 17  2  0  0  0  0
  1 18  1  0  0  0  0
  2 19  1  0  0  0  0
  3 20  1  0  0  0  0
  4 21  1  0  0  0  0
  8 22  1  0  0  0  0
  8 23  1  0  0  0  0
  9 24  1  0  0  0  0
  9 25  1  0  0  0  0
 10 26  1  0  0  0  0
 10 27  1  0  0  0  0
 11 28  1  0  0  0  0
 11 29  1  0  0  0  0
 13 30  1  0  0  0  0
M  END
> <id>
EN300-43369

> <smiles>
Cl.O=S1(=O)N=C(N2CCNCC2)C=3C=CC=CC31

> <MDLNUMBER>
MFCD08277103

> <IUPAC Name>
3-(piperazin-1-yl)-1lambda6,2-benzothiazole-1,1-dione hydrochloride

> <CAS>
131779-59-4

> <URL>
https://www.enaminestore.com/catalog/EN300-43369

> <Saltdate>
Cl

> <ROCS_ShapeQuery>
amalgated

> <ROCS_TanimotoCombo>
0.908 

> <ROCS_ShapeTanimoto>
0.631 

> <ROCS_ColorTanimoto>
0.278 

> <ROCS_RefTversky>
0.577 

> <ROCS_RefColorTversky>
0.463 

> <ROCS_RefTverskyCombo>
1.040 

> <ROCS_FitTversky>
1.173 

> <ROCS_FitColorTversky>
0.410 

> <ROCS_FitTverskyCombo>
1.583 

> <ROCS_ColorScore>
-3.263

> <ROCS_Overlap>
948.344

> <ROCS_Rank>
35                  

$$$$
untitled-dbase-5884_8
  -OEChem-10092318153D

 39 41  0     1  0  0  0  0  0999 V2000
   -8.8058   -1.6271  -18.5603 C   0  0  0  0  0  0  0  0  0  0  0  0
   -8.6179   -2.8021  -17.8451 C   0  0  0  0  0  0  0  0  0  0  0  0
   -8.8181   -0.4019  -17.8940 C   0  0  0  0  0  0  0  0  0  0  0  0
   -8.4589   -2.7509  -16.4616 C   0  0  0  0  0  0  0  0  0  0  0  0
   -8.6312   -0.3305  -16.5019 C   0  0  0  0  0  0  0  0  0  0  0  0
   -8.4840   -1.5270  -15.7697 C   0  0  0  0  0  0  0  0  0  0  0  0
   -7.6147   -0.4768  -12.3110 C   0  0  0  0  0  0  0  0  0  0  0  0
   -9.9957   -0.2379  -13.1664 C   0  0  0  0  0  0  0  0  0  0  0  0
   -8.0145    0.8860  -14.3812 C   0  0  0  0  0  0  0  0  0  0  0  0
   -8.3706   -1.1309  -11.1549 C   0  0  0  0  0  0  0  0  0  0  0  0
  -10.1671    0.4241  -11.7976 C   0  0  0  0  0  0  0  0  0  0  0  0
   -8.6548    1.0058  -15.7774 C   0  0  1  0  0  0  0  0  0  0  0  0
   -8.5035   -0.3355  -13.5754 C   0  0  0  0  0  0  0  0  0  0  0  0
   -7.9520    2.1409  -16.5360 C   0  0  0  0  0  0  0  0  0  0  0  0
  -10.4361   -1.0892   -9.9145 C   0  0  0  0  0  0  0  0  0  0  0  0
   -8.3321   -1.5361  -14.3899 N   0  0  0  0  0  0  0  0  0  0  0  0
   -9.4976   -0.3000  -10.7084 N   0  0  0  0  0  0  0  0  0  0  0  0
   -8.9439   -1.6608  -19.6369 H   0  0  0  0  0  0  0  0  0  0  0  0
   -8.6034   -3.7581  -18.3594 H   0  0  0  0  0  0  0  0  0  0  0  0
   -8.9792    0.4967  -18.4828 H   0  0  0  0  0  0  0  0  0  0  0  0
   -8.3240   -3.6834  -15.9166 H   0  0  0  0  0  0  0  0  0  0  0  0
   -7.2824    0.5143  -11.9954 H   0  0  0  0  0  0  0  0  0  0  0  0
   -6.7202   -1.0565  -12.5394 H   0  0  0  0  0  0  0  0  0  0  0  0
  -10.4635   -1.2234  -13.1455 H   0  0  0  0  0  0  0  0  0  0  0  0
  -10.5341    0.3516  -13.9139 H   0  0  0  0  0  0  0  0  0  0  0  0
   -6.9180    0.8281  -14.4891 H   0  0  0  0  0  0  0  0  0  0  0  0
   -8.2082    1.8091  -13.8124 H   0  0  0  0  0  0  0  0  0  0  0  0
   -8.7132   -2.1348  -11.4420 H   0  0  0  0  0  0  0  0  0  0  0  0
   -7.6651   -1.2660  -10.3236 H   0  0  0  0  0  0  0  0  0  0  0  0
   -9.7516    1.4480  -11.8645 H   0  0  0  0  0  0  0  0  0  0  0  0
  -11.2452    0.5552  -11.5752 H   0  0  0  0  0  0  0  0  0  0  0  0
   -9.7086    1.2916  -15.6593 H   0  0  0  0  0  0  0  0  0  0  0  0
   -6.9036    1.8907  -16.6710 H   0  0  0  0  0  0  0  0  0  0  0  0
   -8.0343    3.0619  -15.9660 H   0  0  0  0  0  0  0  0  0  0  0  0
   -8.4214    2.2720  -17.5068 H   0  0  0  0  0  0  0  0  0  0  0  0
  -11.2709   -0.4502   -9.5906 H   0  0  0  0  0  0  0  0  0  0  0  0
  -10.8245   -1.9187  -10.5237 H   0  0  0  0  0  0  0  0  0  0  0  0
   -9.9197   -1.4933   -9.0314 H   0  0  0  0  0  0  0  0  0  0  0  0
   -8.3100   -2.4406  -13.9275 H   0  0  0  0  0  0  0  0  0  0  0  0
  1  2  2  0  0  0  0
  1  3  1  0  0  0  0
  2  4  1  0  0  0  0
  3  5  2  0  0  0  0
  4  6  2  0  0  0  0
  5  6  1  0  0  0  0
  5 12  1  0  0  0  0
  6 16  1  0  0  0  0
  7 10  1  0  0  0  0
  7 13  1  0  0  0  0
  8 11  1  0  0  0  0
  8 13  1  0  0  0  0
  9 12  1  0  0  0  0
  9 13  1  0  0  0  0
 10 17  1  0  0  0  0
 11 17  1  0  0  0  0
 12 14  1  0  0  0  0
 13 16  1  0  0  0  0
 15 17  1  0  0  0  0
  1 18  1  0  0  0  0
  2 19  1  0  0  0  0
  3 20  1  0  0  0  0
  4 21  1  0  0  0  0
  7 22  1  0  0  0  0
  7 23  1  0  0  0  0
  8 24  1  0  0  0  0
  8 25  1  0  0  0  0
  9 26  1  0  0  0  0
  9 27  1  0  0  0  0
 10 28  1  0  0  0  0
 10 29  1  0  0  0  0
 11 30  1  0  0  0  0
 11 31  1  0  0  0  0
 12 32  1  0  0  0  0
 14 33  1  0  0  0  0
 14 34  1  0  0  0  0
 14 35  1  0  0  0  0
 15 36  1  0  0  0  0
 15 37  1  0  0  0  0
 15 38  1  0  0  0  0
 16 39  1  0  0  0  0
M  END
> <id>
EN300-231471

> <smiles>
CC1CC2(CCN(C)CC2)NC=3C=CC=CC13

> <MDLNUMBER>
MFCD07757623

> <IUPAC Name>
1,4'-dimethyl-3',4'-dihydro-1'H-spiro[piperidine-4,2'-quinoline]

> <CAS>
890091-94-8

> <URL>
https://www.enaminestore.com/catalog/EN300-231471

> <ROCS_ShapeQuery>
amalgated

> <ROCS_TanimotoCombo>
0.908 

> <ROCS_ShapeTanimoto>
0.598 

> <ROCS_ColorTanimoto>
0.309 

> <ROCS_RefTversky>
0.557 

> <ROCS_RefColorTversky>
0.411 

> <ROCS_RefTverskyCombo>
0.968 

> <ROCS_FitTversky>
1.141 

> <ROCS_FitColorTversky>
0.556 

> <ROCS_FitTverskyCombo>
1.697 

> <ROCS_ColorScore>
-2.836

> <ROCS_Overlap>
915.318

> <ROCS_Rank>
36                  

$$$$
untitled-dbase-8797_2
  -OEChem-10092318153D

 30 32  0     0  0  0  0  0  0999 V2000
   -8.3946   -1.7964  -18.5175 C   0  0  0  0  0  0  0  0  0  0  0  0
   -8.9176   -2.8407  -17.7580 C   0  0  0  0  0  0  0  0  0  0  0  0
   -8.1149   -0.5681  -17.9169 C   0  0  0  0  0  0  0  0  0  0  0  0
   -9.1604   -2.6580  -16.3973 C   0  0  0  0  0  0  0  0  0  0  0  0
   -8.3555   -0.3802  -16.5506 C   0  0  0  0  0  0  0  0  0  0  0  0
   -8.8774   -1.4300  -15.7933 C   0  0  0  0  0  0  0  0  0  0  0  0
   -8.0765    0.8957  -15.9162 C   0  0  0  0  0  0  0  0  0  0  0  0
   -8.2853    1.0070  -14.6029 C   0  0  0  0  0  0  0  0  0  0  0  0
   -7.7003   -0.5177  -12.7241 C   0  0  0  0  0  0  0  0  0  0  0  0
  -10.0906    0.3064  -13.0081 C   0  0  0  0  0  0  0  0  0  0  0  0
   -8.3119   -1.0576  -11.4309 C   0  0  0  0  0  0  0  0  0  0  0  0
   -9.7961    0.8905  -11.6285 C   0  0  0  0  0  0  0  0  0  0  0  0
   -8.7986   -0.1278  -13.7426 C   0  0  0  0  0  0  0  0  0  0  0  0
   -9.1268   -0.0577  -10.7370 N   0  0  0  0  0  0  0  0  0  0  0  0
   -9.1521   -1.3355  -14.4591 O   0  0  0  0  0  0  0  0  0  0  0  0
   -8.2064   -1.9372  -19.5779 H   0  0  0  0  0  0  0  0  0  0  0  0
   -9.1370   -3.7962  -18.2252 H   0  0  0  0  0  0  0  0  0  0  0  0
   -7.7100    0.2366  -18.5261 H   0  0  0  0  0  0  0  0  0  0  0  0
   -9.5708   -3.4774  -15.8129 H   0  0  0  0  0  0  0  0  0  0  0  0
   -7.7047    1.7258  -16.5049 H   0  0  0  0  0  0  0  0  0  0  0  0
   -8.0731    1.9571  -14.1191 H   0  0  0  0  0  0  0  0  0  0  0  0
   -7.0733    0.3481  -12.4906 H   0  0  0  0  0  0  0  0  0  0  0  0
   -7.0551   -1.2911  -13.1500 H   0  0  0  0  0  0  0  0  0  0  0  0
  -10.7553   -0.5579  -12.8837 H   0  0  0  0  0  0  0  0  0  0  0  0
  -10.6348    1.0504  -13.6046 H   0  0  0  0  0  0  0  0  0  0  0  0
   -8.9127   -1.9581  -11.6332 H   0  0  0  0  0  0  0  0  0  0  0  0
   -7.5015   -1.3758  -10.7587 H   0  0  0  0  0  0  0  0  0  0  0  0
   -9.1490    1.7755  -11.7460 H   0  0  0  0  0  0  0  0  0  0  0  0
  -10.7243    1.2582  -11.1570 H   0  0  0  0  0  0  0  0  0  0  0  0
   -9.8364   -0.5410  -10.1678 H   0  0  0  0  0  0  0  0  0  0  0  0
  1  2  2  0  0  0  0
  1  3  1  0  0  0  0
  2  4  1  0  0  0  0
  3  5  2  0  0  0  0
  4  6  2  0  0  0  0
  5  6  1  0  0  0  0
  5  7  1  0  0  0  0
  6 15  1  0  0  0  0
  7  8  2  0  0  0  0
  8 13  1  0  0  0  0
  9 11  1  0  0  0  0
  9 13  1  0  0  0  0
 10 12  1  0  0  0  0
 10 13  1  0  0  0  0
 11 14  1  0  0  0  0
 12 14  1  0  0  0  0
 13 15  1  0  0  0  0
  1 16  1  0  0  0  0
  2 17  1  0  0  0  0
  3 18  1  0  0  0  0
  4 19  1  0  0  0  0
  7 20  1  0  0  0  0
  8 21  1  0  0  0  0
  9 22  1  0  0  0  0
  9 23  1  0  0  0  0
 10 24  1  0  0  0  0
 10 25  1  0  0  0  0
 11 26  1  0  0  0  0
 11 27  1  0  0  0  0
 12 28  1  0  0  0  0
 12 29  1  0  0  0  0
 14 30  1  0  0  0  0
M  END
> <id>
EN300-202779

> <smiles>
C1CC2(CCN1)OC=3C=CC=CC3C=C2

> <MDLNUMBER>
MFCD14526330

> <IUPAC Name>
spiro[chromene-2,4'-piperidine]

> <CAS>
62974-11-2

> <URL>
https://www.enaminestore.com/catalog/EN300-202779

> <ROCS_ShapeQuery>
amalgated

> <ROCS_TanimotoCombo>
0.905 

> <ROCS_ShapeTanimoto>
0.562 

> <ROCS_ColorTanimoto>
0.343 

> <ROCS_RefTversky>
0.520 

> <ROCS_RefColorTversky>
0.478 

> <ROCS_RefTverskyCombo>
0.999 

> <ROCS_FitTversky>
1.164 

> <ROCS_FitColorTversky>
0.549 

> <ROCS_FitTverskyCombo>
1.713 

> <ROCS_ColorScore>
-3.324

> <ROCS_Overlap>
853.499

> <ROCS_Rank>
37                  

$$$$
untitled-dbase-48469_2
  -OEChem-10092318153D

 30 32  0     0  0  0  0  0  0999 V2000
   -8.3946   -1.7964  -18.5175 C   0  0  0  0  0  0  0  0  0  0  0  0
   -8.9176   -2.8407  -17.7580 C   0  0  0  0  0  0  0  0  0  0  0  0
   -8.1149   -0.5681  -17.9169 C   0  0  0  0  0  0  0  0  0  0  0  0
   -9.1604   -2.6580  -16.3973 C   0  0  0  0  0  0  0  0  0  0  0  0
   -8.3555   -0.3802  -16.5506 C   0  0  0  0  0  0  0  0  0  0  0  0
   -8.8774   -1.4300  -15.7933 C   0  0  0  0  0  0  0  0  0  0  0  0
   -8.0765    0.8957  -15.9162 C   0  0  0  0  0  0  0  0  0  0  0  0
   -8.2853    1.0070  -14.6029 C   0  0  0  0  0  0  0  0  0  0  0  0
   -7.7003   -0.5177  -12.7241 C   0  0  0  0  0  0  0  0  0  0  0  0
  -10.0906    0.3064  -13.0081 C   0  0  0  0  0  0  0  0  0  0  0  0
   -8.3119   -1.0576  -11.4309 C   0  0  0  0  0  0  0  0  0  0  0  0
   -9.7961    0.8905  -11.6285 C   0  0  0  0  0  0  0  0  0  0  0  0
   -8.7986   -0.1278  -13.7426 C   0  0  0  0  0  0  0  0  0  0  0  0
   -9.1268   -0.0577  -10.7370 N   0  0  0  0  0  0  0  0  0  0  0  0
   -9.1521   -1.3355  -14.4591 O   0  0  0  0  0  0  0  0  0  0  0  0
   -8.2064   -1.9372  -19.5779 H   0  0  0  0  0  0  0  0  0  0  0  0
   -9.1370   -3.7962  -18.2252 H   0  0  0  0  0  0  0  0  0  0  0  0
   -7.7100    0.2366  -18.5261 H   0  0  0  0  0  0  0  0  0  0  0  0
   -9.5708   -3.4774  -15.8129 H   0  0  0  0  0  0  0  0  0  0  0  0
   -7.7047    1.7258  -16.5049 H   0  0  0  0  0  0  0  0  0  0  0  0
   -8.0731    1.9571  -14.1191 H   0  0  0  0  0  0  0  0  0  0  0  0
   -7.0733    0.3481  -12.4906 H   0  0  0  0  0  0  0  0  0  0  0  0
   -7.0551   -1.2911  -13.1500 H   0  0  0  0  0  0  0  0  0  0  0  0
  -10.7553   -0.5579  -12.8837 H   0  0  0  0  0  0  0  0  0  0  0  0
  -10.6348    1.0504  -13.6046 H   0  0  0  0  0  0  0  0  0  0  0  0
   -8.9127   -1.9581  -11.6332 H   0  0  0  0  0  0  0  0  0  0  0  0
   -7.5015   -1.3758  -10.7587 H   0  0  0  0  0  0  0  0  0  0  0  0
   -9.1490    1.7755  -11.7460 H   0  0  0  0  0  0  0  0  0  0  0  0
  -10.7243    1.2582  -11.1570 H   0  0  0  0  0  0  0  0  0  0  0  0
   -9.8364   -0.5410  -10.1678 H   0  0  0  0  0  0  0  0  0  0  0  0
  1  2  2  0  0  0  0
  1  3  1  0  0  0  0
  2  4  1  0  0  0  0
  3  5  2  0  0  0  0
  4  6  2  0  0  0  0
  5  6  1  0  0  0  0
  5  7  1  0  0  0  0
  6 15  1  0  0  0  0
  7  8  2  0  0  0  0
  8 13  1  0  0  0  0
  9 11  1  0  0  0  0
  9 13  1  0  0  0  0
 10 12  1  0  0  0  0
 10 13  1  0  0  0  0
 11 14  1  0  0  0  0
 12 14  1  0  0  0  0
 13 15  1  0  0  0  0
  1 16  1  0  0  0  0
  2 17  1  0  0  0  0
  3 18  1  0  0  0  0
  4 19  1  0  0  0  0
  7 20  1  0  0  0  0
  8 21  1  0  0  0  0
  9 22  1  0  0  0  0
  9 23  1  0  0  0  0
 10 24  1  0  0  0  0
 10 25  1  0  0  0  0
 11 26  1  0  0  0  0
 11 27  1  0  0  0  0
 12 28  1  0  0  0  0
 12 29  1  0  0  0  0
 14 30  1  0  0  0  0
M  END
> <id>
EN300-307075

> <smiles>
Cl.C1CC2(CCN1)OC=3C=CC=CC3C=C2

> <MDLNUMBER>
MFCD28023872

> <IUPAC Name>
spiro[chromene-2,4'-piperidine] hydrochloride

> <CAS>
1047655-63-9

> <Purity>
95

> <URL>
https://www.enaminestore.com/catalog/EN300-307075

> <Saltdate>
Cl

> <ROCS_ShapeQuery>
amalgated

> <ROCS_TanimotoCombo>
0.905 

> <ROCS_ShapeTanimoto>
0.562 

> <ROCS_ColorTanimoto>
0.343 

> <ROCS_RefTversky>
0.520 

> <ROCS_RefColorTversky>
0.478 

> <ROCS_RefTverskyCombo>
0.999 

> <ROCS_FitTversky>
1.164 

> <ROCS_FitColorTversky>
0.549 

> <ROCS_FitTverskyCombo>
1.713 

> <ROCS_ColorScore>
-3.324

> <ROCS_Overlap>
853.499

> <ROCS_Rank>
38                  

$$$$
untitled-dbase-47158_4
  -OEChem-10092318153D

 34 36  0     0  0  0  0  0  0999 V2000
   -9.2708    0.0348  -11.4016 C   0  0  0  0  0  0  0  0  0  0  0  0
   -9.1798   -1.2837  -11.8697 C   0  0  0  0  0  0  0  0  0  0  0  0
   -9.0742    1.1097  -12.2688 C   0  0  0  0  0  0  0  0  0  0  0  0
   -8.8935   -1.5456  -13.2120 C   0  0  0  0  0  0  0  0  0  0  0  0
   -8.7782    0.8404  -13.5957 C   0  0  0  0  0  0  0  0  0  0  0  0
   -8.6927   -0.4759  -14.0734 C   0  0  0  0  0  0  0  0  0  0  0  0
   -8.5557    1.8308  -14.6925 C   0  0  0  0  0  0  0  0  0  0  0  0
   -7.8484    0.9504  -15.7313 C   0  0  0  0  0  0  0  0  0  0  0  0
   -7.9209   -2.8143  -16.5283 C   0  0  0  0  0  0  0  0  0  0  0  0
   -9.4576   -1.1848  -17.7686 C   0  0  0  0  0  0  0  0  0  0  0  0
   -7.3184   -1.5193  -15.9841 C   0  0  0  0  0  0  0  0  0  0  0  0
   -9.7241   -0.6930  -16.3481 C   0  0  0  0  0  0  0  0  0  0  0  0
   -8.7968   -2.5725  -17.7681 C   0  0  0  0  0  0  0  0  0  0  0  0
   -8.4020   -0.4975  -15.5629 C   0  0  0  0  0  0  0  0  0  0  0  0
   -8.0171   -2.7254  -18.9977 N   0  0  0  0  0  0  0  0  0  0  0  0
   -9.5022    0.2194  -10.3563 H   0  0  0  0  0  0  0  0  0  0  0  0
   -9.3407   -2.1098  -11.1821 H   0  0  0  0  0  0  0  0  0  0  0  0
   -9.1529    2.1297  -11.9079 H   0  0  0  0  0  0  0  0  0  0  0  0
   -8.8401   -2.5709  -13.5634 H   0  0  0  0  0  0  0  0  0  0  0  0
   -9.5128    2.2036  -15.0686 H   0  0  0  0  0  0  0  0  0  0  0  0
   -7.9226    2.6654  -14.3812 H   0  0  0  0  0  0  0  0  0  0  0  0
   -7.9648    1.3537  -16.7425 H   0  0  0  0  0  0  0  0  0  0  0  0
   -6.7695    0.9645  -15.5141 H   0  0  0  0  0  0  0  0  0  0  0  0
   -7.1130   -3.5262  -16.7650 H   0  0  0  0  0  0  0  0  0  0  0  0
   -8.5219   -3.2903  -15.7366 H   0  0  0  0  0  0  0  0  0  0  0  0
  -10.4054   -1.2260  -18.3174 H   0  0  0  0  0  0  0  0  0  0  0  0
   -8.8233   -0.4649  -18.2972 H   0  0  0  0  0  0  0  0  0  0  0  0
   -6.6854   -1.7687  -15.1232 H   0  0  0  0  0  0  0  0  0  0  0  0
   -6.6484   -1.0824  -16.7347 H   0  0  0  0  0  0  0  0  0  0  0  0
  -10.2960    0.2332  -16.3881 H   0  0  0  0  0  0  0  0  0  0  0  0
  -10.3446   -1.4293  -15.8353 H   0  0  0  0  0  0  0  0  0  0  0  0
   -9.5953   -3.3327  -17.7920 H   0  0  0  0  0  0  0  0  0  0  0  0
   -7.6400   -3.6426  -19.0117 H   0  0  0  0  0  0  0  0  0  0  0  0
   -8.6256   -2.5827  -19.7678 H   0  0  0  0  0  0  0  0  0  0  0  0
  1  2  2  0  0  0  0
  1  3  1  0  0  0  0
  2  4  1  0  0  0  0
  3  5  2  0  0  0  0
  4  6  2  0  0  0  0
  5  6  1  0  0  0  0
  5  7  1  0  0  0  0
  6 14  1  0  0  0  0
  7  8  1  0  0  0  0
  8 14  1  0  0  0  0
  9 11  1  0  0  0  0
  9 13  1  0  0  0  0
 10 12  1  0  0  0  0
 10 13  1  0  0  0  0
 11 14  1  6  0  0  0
 12 14  1  0  0  0  0
 13 15  1  1  0  0  0
  1 16  1  0  0  0  0
  2 17  1  0  0  0  0
  3 18  1  0  0  0  0
  4 19  1  0  0  0  0
  7 20  1  0  0  0  0
  7 21  1  0  0  0  0
  8 22  1  0  0  0  0
  8 23  1  0  0  0  0
  9 24  1  0  0  0  0
  9 25  1  0  0  0  0
 10 26  1  0  0  0  0
 10 27  1  0  0  0  0
 11 28  1  0  0  0  0
 11 29  1  0  0  0  0
 12 30  1  0  0  0  0
 12 31  1  0  0  0  0
 13 32  1  0  0  0  0
 15 33  1  0  0  0  0
 15 34  1  0  0  0  0
M  END
> <id>
EN300-30839381

> <smiles>
Cl.N[C@H]1CC[C@@]2(CCC=3C=CC=CC32)CC1

> <IUPAC Name>
(1r,4s)-2',3'-dihydrospiro[cyclohexane-1,1'-inden]-4-amine hydrochloride

> <CAS>
2694735-28-7

> <Purity>
95

> <URL>
https://www.enaminestore.com/catalog/EN300-30839381

> <ROCS_ShapeQuery>
amalgated

> <ROCS_TanimotoCombo>
0.905 

> <ROCS_ShapeTanimoto>
0.482 

> <ROCS_ColorTanimoto>
0.423 

> <ROCS_RefTversky>
0.467 

> <ROCS_RefColorTversky>
0.518 

> <ROCS_RefTverskyCombo>
0.985 

> <ROCS_FitTversky>
1.069 

> <ROCS_FitColorTversky>
0.698 

> <ROCS_FitTverskyCombo>
1.767 

> <ROCS_ColorScore>
-3.572

> <ROCS_Overlap>
766.146

> <ROCS_Rank>
39                  

$$$$
untitled-dbase-45909_4
  -OEChem-10092318153D

 34 36  0     0  0  0  0  0  0999 V2000
   -9.2708    0.0348  -11.4016 C   0  0  0  0  0  0  0  0  0  0  0  0
   -9.1798   -1.2837  -11.8697 C   0  0  0  0  0  0  0  0  0  0  0  0
   -9.0742    1.1097  -12.2688 C   0  0  0  0  0  0  0  0  0  0  0  0
   -8.8935   -1.5456  -13.2120 C   0  0  0  0  0  0  0  0  0  0  0  0
   -8.7782    0.8404  -13.5957 C   0  0  0  0  0  0  0  0  0  0  0  0
   -8.6927   -0.4759  -14.0734 C   0  0  0  0  0  0  0  0  0  0  0  0
   -8.5557    1.8308  -14.6925 C   0  0  0  0  0  0  0  0  0  0  0  0
   -7.8484    0.9504  -15.7313 C   0  0  0  0  0  0  0  0  0  0  0  0
   -7.9209   -2.8143  -16.5283 C   0  0  0  0  0  0  0  0  0  0  0  0
   -9.4576   -1.1848  -17.7686 C   0  0  0  0  0  0  0  0  0  0  0  0
   -7.3184   -1.5193  -15.9841 C   0  0  0  0  0  0  0  0  0  0  0  0
   -9.7241   -0.6930  -16.3481 C   0  0  0  0  0  0  0  0  0  0  0  0
   -8.7968   -2.5725  -17.7681 C   0  0  0  0  0  0  0  0  0  0  0  0
   -8.4020   -0.4975  -15.5629 C   0  0  0  0  0  0  0  0  0  0  0  0
   -8.0171   -2.7254  -18.9977 N   0  0  0  0  0  0  0  0  0  0  0  0
   -9.5022    0.2194  -10.3563 H   0  0  0  0  0  0  0  0  0  0  0  0
   -9.3407   -2.1098  -11.1821 H   0  0  0  0  0  0  0  0  0  0  0  0
   -9.1529    2.1297  -11.9079 H   0  0  0  0  0  0  0  0  0  0  0  0
   -8.8401   -2.5709  -13.5634 H   0  0  0  0  0  0  0  0  0  0  0  0
   -9.5128    2.2036  -15.0686 H   0  0  0  0  0  0  0  0  0  0  0  0
   -7.9226    2.6654  -14.3812 H   0  0  0  0  0  0  0  0  0  0  0  0
   -7.9648    1.3537  -16.7425 H   0  0  0  0  0  0  0  0  0  0  0  0
   -6.7695    0.9645  -15.5141 H   0  0  0  0  0  0  0  0  0  0  0  0
   -7.1130   -3.5262  -16.7650 H   0  0  0  0  0  0  0  0  0  0  0  0
   -8.5219   -3.2903  -15.7366 H   0  0  0  0  0  0  0  0  0  0  0  0
  -10.4054   -1.2260  -18.3174 H   0  0  0  0  0  0  0  0  0  0  0  0
   -8.8233   -0.4649  -18.2972 H   0  0  0  0  0  0  0  0  0  0  0  0
   -6.6854   -1.7687  -15.1232 H   0  0  0  0  0  0  0  0  0  0  0  0
   -6.6484   -1.0824  -16.7347 H   0  0  0  0  0  0  0  0  0  0  0  0
  -10.2960    0.2332  -16.3881 H   0  0  0  0  0  0  0  0  0  0  0  0
  -10.3446   -1.4293  -15.8353 H   0  0  0  0  0  0  0  0  0  0  0  0
   -9.5953   -3.3327  -17.7920 H   0  0  0  0  0  0  0  0  0  0  0  0
   -7.6400   -3.6426  -19.0117 H   0  0  0  0  0  0  0  0  0  0  0  0
   -8.6256   -2.5827  -19.7678 H   0  0  0  0  0  0  0  0  0  0  0  0
  1  2  2  0  0  0  0
  1  3  1  0  0  0  0
  2  4  1  0  0  0  0
  3  5  2  0  0  0  0
  4  6  2  0  0  0  0
  5  6  1  0  0  0  0
  5  7  1  0  0  0  0
  6 14  1  0  0  0  0
  7  8  1  0  0  0  0
  8 14  1  0  0  0  0
  9 11  1  0  0  0  0
  9 13  1  0  0  0  0
 10 12  1  0  0  0  0
 10 13  1  0  0  0  0
 11 14  1  6  0  0  0
 12 14  1  0  0  0  0
 13 15  1  1  0  0  0
  1 16  1  0  0  0  0
  2 17  1  0  0  0  0
  3 18  1  0  0  0  0
  4 19  1  0  0  0  0
  7 20  1  0  0  0  0
  7 21  1  0  0  0  0
  8 22  1  0  0  0  0
  8 23  1  0  0  0  0
  9 24  1  0  0  0  0
  9 25  1  0  0  0  0
 10 26  1  0  0  0  0
 10 27  1  0  0  0  0
 11 28  1  0  0  0  0
 11 29  1  0  0  0  0
 12 30  1  0  0  0  0
 12 31  1  0  0  0  0
 13 32  1  0  0  0  0
 15 33  1  0  0  0  0
 15 34  1  0  0  0  0
M  END
> <id>
EN300-30839382

> <smiles>
N[C@H]1CC[C@@]2(CCC=3C=CC=CC32)CC1

> <IUPAC Name>
(1r,4s)-2',3'-dihydrospiro[cyclohexane-1,1'-inden]-4-amine

> <CAS>
2694732-27-7

> <URL>
https://www.enaminestore.com/catalog/EN300-30839382

> <ROCS_ShapeQuery>
amalgated

> <ROCS_TanimotoCombo>
0.905 

> <ROCS_ShapeTanimoto>
0.482 

> <ROCS_ColorTanimoto>
0.423 

> <ROCS_RefTversky>
0.467 

> <ROCS_RefColorTversky>
0.518 

> <ROCS_RefTverskyCombo>
0.985 

> <ROCS_FitTversky>
1.069 

> <ROCS_FitColorTversky>
0.698 

> <ROCS_FitTverskyCombo>
1.767 

> <ROCS_ColorScore>
-3.572

> <ROCS_Overlap>
766.146

> <ROCS_Rank>
40                  

$$$$
untitled-dbase-52417_4
  -OEChem-10092318153D

 34 36  0     0  0  0  0  0  0999 V2000
   -9.2590    0.0401  -11.3989 C   0  0  0  0  0  0  0  0  0  0  0  0
   -9.1299   -1.2770  -11.8621 C   0  0  0  0  0  0  0  0  0  0  0  0
   -9.1062    1.1167  -12.2728 C   0  0  0  0  0  0  0  0  0  0  0  0
   -8.8487   -1.5361  -13.2061 C   0  0  0  0  0  0  0  0  0  0  0  0
   -8.8151    0.8507  -13.6015 C   0  0  0  0  0  0  0  0  0  0  0  0
   -8.6913   -0.4644  -14.0742 C   0  0  0  0  0  0  0  0  0  0  0  0
   -8.6362    1.8426  -14.7048 C   0  0  0  0  0  0  0  0  0  0  0  0
   -7.9105    0.9812  -15.7464 C   0  0  0  0  0  0  0  0  0  0  0  0
   -7.8647   -2.7879  -16.5255 C   0  0  0  0  0  0  0  0  0  0  0  0
   -9.4681   -1.2164  -17.7582 C   0  0  0  0  0  0  0  0  0  0  0  0
   -7.3016   -1.4704  -15.9939 C   0  0  0  0  0  0  0  0  0  0  0  0
   -9.7369   -0.7256  -16.3377 C   0  0  0  0  0  0  0  0  0  0  0  0
   -8.7658   -2.5837  -17.7552 C   0  0  0  0  0  0  0  0  0  0  0  0
   -8.4145   -0.4834  -15.5663 C   0  0  0  0  0  0  0  0  0  0  0  0
   -8.0146   -2.7304  -19.0039 N   0  0  0  0  0  0  0  0  0  0  0  0
   -9.4858    0.2220  -10.3521 H   0  0  0  0  0  0  0  0  0  0  0  0
   -9.2569   -2.1047  -11.1693 H   0  0  0  0  0  0  0  0  0  0  0  0
   -9.2145    2.1353  -11.9158 H   0  0  0  0  0  0  0  0  0  0  0  0
   -8.7655   -2.5608  -13.5530 H   0  0  0  0  0  0  0  0  0  0  0  0
   -9.6089    2.1818  -15.0732 H   0  0  0  0  0  0  0  0  0  0  0  0
   -8.0286    2.6995  -14.4035 H   0  0  0  0  0  0  0  0  0  0  0  0
   -8.0498    1.3757  -16.7583 H   0  0  0  0  0  0  0  0  0  0  0  0
   -6.8304    1.0316  -15.5405 H   0  0  0  0  0  0  0  0  0  0  0  0
   -7.0352   -3.4716  -16.7705 H   0  0  0  0  0  0  0  0  0  0  0  0
   -8.4377   -3.2822  -15.7242 H   0  0  0  0  0  0  0  0  0  0  0  0
  -10.4188   -1.2894  -18.2979 H   0  0  0  0  0  0  0  0  0  0  0  0
   -8.8609   -0.4806  -18.2959 H   0  0  0  0  0  0  0  0  0  0  0  0
   -6.6516   -1.6935  -15.1381 H   0  0  0  0  0  0  0  0  0  0  0  0
   -6.6542   -1.0150  -16.7536 H   0  0  0  0  0  0  0  0  0  0  0  0
  -10.3388    0.1813  -16.3767 H   0  0  0  0  0  0  0  0  0  0  0  0
  -10.3281   -1.4787  -15.8149 H   0  0  0  0  0  0  0  0  0  0  0  0
   -9.5479   -3.3661  -17.7538 H   0  0  0  0  0  0  0  0  0  0  0  0
   -7.6165   -3.6386  -19.0194 H   0  0  0  0  0  0  0  0  0  0  0  0
   -8.6462   -2.6096  -19.7590 H   0  0  0  0  0  0  0  0  0  0  0  0
  1  2  2  0  0  0  0
  1  3  1  0  0  0  0
  2  4  1  0  0  0  0
  3  5  2  0  0  0  0
  4  6  2  0  0  0  0
  5  6  1  0  0  0  0
  5  7  1  0  0  0  0
  6 14  1  0  0  0  0
  7  8  1  0  0  0  0
  8 14  1  0  0  0  0
  9 11  1  0  0  0  0
  9 13  1  0  0  0  0
 10 12  1  0  0  0  0
 10 13  1  0  0  0  0
 11 14  1  0  0  0  0
 12 14  1  0  0  0  0
 13 15  1  0  0  0  0
  1 16  1  0  0  0  0
  2 17  1  0  0  0  0
  3 18  1  0  0  0  0
  4 19  1  0  0  0  0
  7 20  1  0  0  0  0
  7 21  1  0  0  0  0
  8 22  1  0  0  0  0
  8 23  1  0  0  0  0
  9 24  1  0  0  0  0
  9 25  1  0  0  0  0
 10 26  1  0  0  0  0
 10 27  1  0  0  0  0
 11 28  1  0  0  0  0
 11 29  1  0  0  0  0
 12 30  1  0  0  0  0
 12 31  1  0  0  0  0
 13 32  1  0  0  0  0
 15 33  1  0  0  0  0
 15 34  1  0  0  0  0
M  END
> <id>
EN300-27753243

> <smiles>
Cl.NC1CCC2(CCC=3C=CC=CC32)CC1

> <IUPAC Name>
2',3'-dihydrospiro[cyclohexane-1,1'-inden]-4-amine hydrochloride

> <Purity>
95

> <URL>
https://www.enaminestore.com/catalog/EN300-27753243

> <Saltdate>
Cl

> <ROCS_ShapeQuery>
amalgated

> <ROCS_TanimotoCombo>
0.904 

> <ROCS_ShapeTanimoto>
0.481 

> <ROCS_ColorTanimoto>
0.423 

> <ROCS_RefTversky>
0.467 

> <ROCS_RefColorTversky>
0.517 

> <ROCS_RefTverskyCombo>
0.984 

> <ROCS_FitTversky>
1.068 

> <ROCS_FitColorTversky>
0.698 

> <ROCS_FitTverskyCombo>
1.766 

> <ROCS_ColorScore>
-3.571

> <ROCS_Overlap>
765.284

> <ROCS_Rank>
41                  

$$$$
untitled-dbase-52510_4
  -OEChem-10092318153D

 34 36  0     0  0  0  0  0  0999 V2000
   -9.2590    0.0401  -11.3989 C   0  0  0  0  0  0  0  0  0  0  0  0
   -9.1299   -1.2770  -11.8621 C   0  0  0  0  0  0  0  0  0  0  0  0
   -9.1062    1.1167  -12.2728 C   0  0  0  0  0  0  0  0  0  0  0  0
   -8.8487   -1.5361  -13.2061 C   0  0  0  0  0  0  0  0  0  0  0  0
   -8.8151    0.8507  -13.6015 C   0  0  0  0  0  0  0  0  0  0  0  0
   -8.6913   -0.4644  -14.0742 C   0  0  0  0  0  0  0  0  0  0  0  0
   -8.6362    1.8426  -14.7048 C   0  0  0  0  0  0  0  0  0  0  0  0
   -7.9105    0.9812  -15.7464 C   0  0  0  0  0  0  0  0  0  0  0  0
   -7.8647   -2.7879  -16.5255 C   0  0  0  0  0  0  0  0  0  0  0  0
   -9.4681   -1.2164  -17.7582 C   0  0  0  0  0  0  0  0  0  0  0  0
   -7.3016   -1.4704  -15.9939 C   0  0  0  0  0  0  0  0  0  0  0  0
   -9.7369   -0.7256  -16.3377 C   0  0  0  0  0  0  0  0  0  0  0  0
   -8.7658   -2.5837  -17.7552 C   0  0  0  0  0  0  0  0  0  0  0  0
   -8.4145   -0.4834  -15.5663 C   0  0  0  0  0  0  0  0  0  0  0  0
   -8.0146   -2.7304  -19.0039 N   0  0  0  0  0  0  0  0  0  0  0  0
   -9.4858    0.2220  -10.3521 H   0  0  0  0  0  0  0  0  0  0  0  0
   -9.2569   -2.1047  -11.1693 H   0  0  0  0  0  0  0  0  0  0  0  0
   -9.2145    2.1353  -11.9158 H   0  0  0  0  0  0  0  0  0  0  0  0
   -8.7655   -2.5608  -13.5530 H   0  0  0  0  0  0  0  0  0  0  0  0
   -9.6089    2.1818  -15.0732 H   0  0  0  0  0  0  0  0  0  0  0  0
   -8.0286    2.6995  -14.4035 H   0  0  0  0  0  0  0  0  0  0  0  0
   -8.0498    1.3757  -16.7583 H   0  0  0  0  0  0  0  0  0  0  0  0
   -6.8304    1.0316  -15.5405 H   0  0  0  0  0  0  0  0  0  0  0  0
   -7.0352   -3.4716  -16.7705 H   0  0  0  0  0  0  0  0  0  0  0  0
   -8.4377   -3.2822  -15.7242 H   0  0  0  0  0  0  0  0  0  0  0  0
  -10.4188   -1.2894  -18.2979 H   0  0  0  0  0  0  0  0  0  0  0  0
   -8.8609   -0.4806  -18.2959 H   0  0  0  0  0  0  0  0  0  0  0  0
   -6.6516   -1.6935  -15.1381 H   0  0  0  0  0  0  0  0  0  0  0  0
   -6.6542   -1.0150  -16.7536 H   0  0  0  0  0  0  0  0  0  0  0  0
  -10.3388    0.1813  -16.3767 H   0  0  0  0  0  0  0  0  0  0  0  0
  -10.3281   -1.4787  -15.8149 H   0  0  0  0  0  0  0  0  0  0  0  0
   -9.5479   -3.3661  -17.7538 H   0  0  0  0  0  0  0  0  0  0  0  0
   -7.6165   -3.6386  -19.0194 H   0  0  0  0  0  0  0  0  0  0  0  0
   -8.6462   -2.6096  -19.7590 H   0  0  0  0  0  0  0  0  0  0  0  0
  1  2  2  0  0  0  0
  1  3  1  0  0  0  0
  2  4  1  0  0  0  0
  3  5  2  0  0  0  0
  4  6  2  0  0  0  0
  5  6  1  0  0  0  0
  5  7  1  0  0  0  0
  6 14  1  0  0  0  0
  7  8  1  0  0  0  0
  8 14  1  0  0  0  0
  9 11  1  0  0  0  0
  9 13  1  0  0  0  0
 10 12  1  0  0  0  0
 10 13  1  0  0  0  0
 11 14  1  0  0  0  0
 12 14  1  0  0  0  0
 13 15  1  0  0  0  0
  1 16  1  0  0  0  0
  2 17  1  0  0  0  0
  3 18  1  0  0  0  0
  4 19  1  0  0  0  0
  7 20  1  0  0  0  0
  7 21  1  0  0  0  0
  8 22  1  0  0  0  0
  8 23  1  0  0  0  0
  9 24  1  0  0  0  0
  9 25  1  0  0  0  0
 10 26  1  0  0  0  0
 10 27  1  0  0  0  0
 11 28  1  0  0  0  0
 11 29  1  0  0  0  0
 12 30  1  0  0  0  0
 12 31  1  0  0  0  0
 13 32  1  0  0  0  0
 15 33  1  0  0  0  0
 15 34  1  0  0  0  0
M  END
> <id>
EN300-4323799

> <smiles>
NC1CCC2(CCC=3C=CC=CC32)CC1

> <MDLNUMBER>
MFCD24109118

> <IUPAC Name>
2',3'-dihydrospiro[cyclohexane-1,1'-indene]-4-amine

> <URL>
https://www.enaminestore.com/catalog/EN300-4323799

> <ROCS_ShapeQuery>
amalgated

> <ROCS_TanimotoCombo>
0.904 

> <ROCS_ShapeTanimoto>
0.481 

> <ROCS_ColorTanimoto>
0.423 

> <ROCS_RefTversky>
0.467 

> <ROCS_RefColorTversky>
0.517 

> <ROCS_RefTverskyCombo>
0.984 

> <ROCS_FitTversky>
1.068 

> <ROCS_FitColorTversky>
0.698 

> <ROCS_FitTverskyCombo>
1.766 

> <ROCS_ColorScore>
-3.571

> <ROCS_Overlap>
765.284

> <ROCS_Rank>
42                  

$$$$
untitled-dbase-51975_30
  -OEChem-10092318153D

 45 47  0     0  0  0  0  0  0999 V2000
   -8.3233   -0.6214  -17.5458 C   0  0  0  0  0  0  0  0  0  0  0  0
   -8.6907   -1.9532  -17.7557 C   0  0  0  0  0  0  0  0  0  0  0  0
   -9.1211   -2.2487  -15.3875 C   0  0  0  0  0  0  0  0  0  0  0  0
   -8.7553   -0.9231  -15.1800 C   0  0  0  0  0  0  0  0  0  0  0  0
   -8.3601   -0.1187  -16.2522 C   0  0  0  0  0  0  0  0  0  0  0  0
   -9.0871   -2.7622  -16.6840 C   0  0  0  0  0  0  0  0  0  0  0  0
   -7.6093    2.2399  -16.5766 C   0  0  0  0  0  0  0  0  0  0  0  0
  -10.1182   -0.0924  -13.2213 C   0  0  0  0  0  0  0  0  0  0  0  0
   -7.7317   -0.8087  -12.8724 C   0  0  0  0  0  0  0  0  0  0  0  0
  -10.0745    0.5559  -11.8359 C   0  0  0  0  0  0  0  0  0  0  0  0
   -7.7809   -0.1325  -11.5007 C   0  0  0  0  0  0  0  0  0  0  0  0
   -8.2324    1.2288  -14.3375 C   0  0  0  0  0  0  0  0  0  0  0  0
   -8.7209   -0.1707  -13.8680 C   0  0  0  0  0  0  0  0  0  0  0  0
   -5.2594    1.0982  -17.7490 C   0  0  0  0  0  0  0  0  0  0  0  0
   -6.3592    1.5623  -19.9590 C   0  0  0  0  0  0  0  0  0  0  0  0
   -5.7861    3.4652  -18.4232 C   0  0  0  0  0  0  0  0  0  0  0  0
   -6.2304    2.0054  -18.5033 C   0  0  0  0  0  0  0  0  0  0  0  0
   -9.1365   -0.1352  -10.9521 N   0  0  0  0  0  0  0  0  0  0  0  0
   -8.0398    1.1728  -15.7990 N   0  0  0  0  0  0  0  0  0  0  0  0
   -7.3318    3.3637  -16.1677 O   0  0  0  0  0  0  0  0  0  0  0  0
   -7.5245    1.8889  -17.9007 O   0  0  0  0  0  0  0  0  0  0  0  0
   -9.4356   -4.0368  -16.9062 F   0  0  0  0  0  0  0  0  0  0  0  0
   -8.0217   -0.0237  -18.3971 H   0  0  0  0  0  0  0  0  0  0  0  0
   -8.6687   -2.3660  -18.7607 H   0  0  0  0  0  0  0  0  0  0  0  0
   -9.4297   -2.8811  -14.5616 H   0  0  0  0  0  0  0  0  0  0  0  0
  -10.5418   -1.1010  -13.1189 H   0  0  0  0  0  0  0  0  0  0  0  0
  -10.8130    0.4634  -13.8641 H   0  0  0  0  0  0  0  0  0  0  0  0
   -6.7069   -0.7687  -13.2639 H   0  0  0  0  0  0  0  0  0  0  0  0
   -7.9644   -1.8745  -12.7423 H   0  0  0  0  0  0  0  0  0  0  0  0
   -9.8113    1.6174  -11.9105 H   0  0  0  0  0  0  0  0  0  0  0  0
  -11.0748    0.5098  -11.3910 H   0  0  0  0  0  0  0  0  0  0  0  0
   -7.1232   -0.6761  -10.8134 H   0  0  0  0  0  0  0  0  0  0  0  0
   -7.3984    0.8933  -11.5580 H   0  0  0  0  0  0  0  0  0  0  0  0
   -8.9539    2.0267  -14.1267 H   0  0  0  0  0  0  0  0  0  0  0  0
   -7.2767    1.5214  -13.8869 H   0  0  0  0  0  0  0  0  0  0  0  0
   -5.1642    1.4129  -16.7036 H   0  0  0  0  0  0  0  0  0  0  0  0
   -5.5854    0.0531  -17.7692 H   0  0  0  0  0  0  0  0  0  0  0  0
   -4.2542    1.1556  -18.1819 H   0  0  0  0  0  0  0  0  0  0  0  0
   -7.0550    2.2105  -20.5040 H   0  0  0  0  0  0  0  0  0  0  0  0
   -6.7681    0.5474  -20.0234 H   0  0  0  0  0  0  0  0  0  0  0  0
   -5.3932    1.5802  -20.4738 H   0  0  0  0  0  0  0  0  0  0  0  0
   -6.4824    4.1161  -18.9642 H   0  0  0  0  0  0  0  0  0  0  0  0
   -5.7238    3.8115  -17.3865 H   0  0  0  0  0  0  0  0  0  0  0  0
   -4.8062    3.6006  -18.8951 H   0  0  0  0  0  0  0  0  0  0  0  0
   -9.1318    0.3238  -10.0417 H   0  0  0  0  0  0  0  0  0  0  0  0
  1  2  1  0  0  0  0
  1  5  2  0  0  0  0
  2  6  2  0  0  0  0
  3  4  2  0  0  0  0
  3  6  1  0  0  0  0
  4  5  1  0  0  0  0
  4 13  1  0  0  0  0
  5 19  1  0  0  0  0
  6 22  1  0  0  0  0
  7 19  1  0  0  0  0
  7 20  2  0  0  0  0
  7 21  1  0  0  0  0
  8 10  1  0  0  0  0
  8 13  1  0  0  0  0
  9 11  1  0  0  0  0
  9 13  1  0  0  0  0
 10 18  1  0  0  0  0
 11 18  1  0  0  0  0
 12 13  1  0  0  0  0
 12 19  1  0  0  0  0
 14 17  1  0  0  0  0
 15 17  1  0  0  0  0
 16 17  1  0  0  0  0
 17 21  1  0  0  0  0
  1 23  1  0  0  0  0
  2 24  1  0  0  0  0
  3 25  1  0  0  0  0
  8 26  1  0  0  0  0
  8 27  1  0  0  0  0
  9 28  1  0  0  0  0
  9 29  1  0  0  0  0
 10 30  1  0  0  0  0
 10 31  1  0  0  0  0
 11 32  1  0  0  0  0
 11 33  1  0  0  0  0
 12 34  1  0  0  0  0
 12 35  1  0  0  0  0
 14 36  1  0  0  0  0
 14 37  1  0  0  0  0
 14 38  1  0  0  0  0
 15 39  1  0  0  0  0
 15 40  1  0  0  0  0
 15 41  1  0  0  0  0
 16 42  1  0  0  0  0
 16 43  1  0  0  0  0
 16 44  1  0  0  0  0
 18 45  1  0  0  0  0
M  END
> <id>
EN300-268948

> <smiles>
CC(C)(C)OC(=O)N1CC2(CCNCC2)C=3C=C(F)C=CC13

> <MDLNUMBER>
MFCD12198575

> <IUPAC Name>
tert-butyl 5-fluoro-1,2-dihydrospiro[indole-3,4'-piperidine]-1-carboxylate

> <URL>
https://www.enaminestore.com/catalog/EN300-268948

> <ROCS_ShapeQuery>
amalgated

> <ROCS_TanimotoCombo>
0.903 

> <ROCS_ShapeTanimoto>
0.654 

> <ROCS_ColorTanimoto>
0.249 

> <ROCS_RefTversky>
0.642 

> <ROCS_RefColorTversky>
0.399 

> <ROCS_RefTverskyCombo>
1.041 

> <ROCS_FitTversky>
1.031 

> <ROCS_FitColorTversky>
0.398 

> <ROCS_FitTverskyCombo>
1.429 

> <ROCS_ColorScore>
-2.792

> <ROCS_Overlap>
1062.262

> <ROCS_Rank>
43                  

$$$$
untitled-dbase-52271_30
  -OEChem-10092318153D

 45 47  0     0  0  0  0  0  0999 V2000
   -8.3233   -0.6214  -17.5458 C   0  0  0  0  0  0  0  0  0  0  0  0
   -8.6907   -1.9532  -17.7557 C   0  0  0  0  0  0  0  0  0  0  0  0
   -9.1211   -2.2487  -15.3875 C   0  0  0  0  0  0  0  0  0  0  0  0
   -8.7553   -0.9231  -15.1800 C   0  0  0  0  0  0  0  0  0  0  0  0
   -8.3601   -0.1187  -16.2522 C   0  0  0  0  0  0  0  0  0  0  0  0
   -9.0871   -2.7622  -16.6840 C   0  0  0  0  0  0  0  0  0  0  0  0
   -7.6093    2.2399  -16.5766 C   0  0  0  0  0  0  0  0  0  0  0  0
  -10.1182   -0.0924  -13.2213 C   0  0  0  0  0  0  0  0  0  0  0  0
   -7.7317   -0.8087  -12.8724 C   0  0  0  0  0  0  0  0  0  0  0  0
  -10.0745    0.5559  -11.8359 C   0  0  0  0  0  0  0  0  0  0  0  0
   -7.7809   -0.1325  -11.5007 C   0  0  0  0  0  0  0  0  0  0  0  0
   -8.2324    1.2288  -14.3375 C   0  0  0  0  0  0  0  0  0  0  0  0
   -8.7209   -0.1707  -13.8680 C   0  0  0  0  0  0  0  0  0  0  0  0
   -5.2594    1.0982  -17.7490 C   0  0  0  0  0  0  0  0  0  0  0  0
   -6.3592    1.5623  -19.9590 C   0  0  0  0  0  0  0  0  0  0  0  0
   -5.7861    3.4652  -18.4232 C   0  0  0  0  0  0  0  0  0  0  0  0
   -6.2304    2.0054  -18.5033 C   0  0  0  0  0  0  0  0  0  0  0  0
   -9.1365   -0.1352  -10.9521 N   0  0  0  0  0  0  0  0  0  0  0  0
   -8.0398    1.1728  -15.7990 N   0  0  0  0  0  0  0  0  0  0  0  0
   -7.3318    3.3637  -16.1677 O   0  0  0  0  0  0  0  0  0  0  0  0
   -7.5245    1.8889  -17.9007 O   0  0  0  0  0  0  0  0  0  0  0  0
   -9.4356   -4.0368  -16.9062 F   0  0  0  0  0  0  0  0  0  0  0  0
   -8.0217   -0.0237  -18.3971 H   0  0  0  0  0  0  0  0  0  0  0  0
   -8.6687   -2.3660  -18.7607 H   0  0  0  0  0  0  0  0  0  0  0  0
   -9.4297   -2.8811  -14.5616 H   0  0  0  0  0  0  0  0  0  0  0  0
  -10.5418   -1.1010  -13.1189 H   0  0  0  0  0  0  0  0  0  0  0  0
  -10.8130    0.4634  -13.8641 H   0  0  0  0  0  0  0  0  0  0  0  0
   -6.7069   -0.7687  -13.2639 H   0  0  0  0  0  0  0  0  0  0  0  0
   -7.9644   -1.8745  -12.7423 H   0  0  0  0  0  0  0  0  0  0  0  0
   -9.8113    1.6174  -11.9105 H   0  0  0  0  0  0  0  0  0  0  0  0
  -11.0748    0.5098  -11.3910 H   0  0  0  0  0  0  0  0  0  0  0  0
   -7.1232   -0.6761  -10.8134 H   0  0  0  0  0  0  0  0  0  0  0  0
   -7.3984    0.8933  -11.5580 H   0  0  0  0  0  0  0  0  0  0  0  0
   -8.9539    2.0267  -14.1267 H   0  0  0  0  0  0  0  0  0  0  0  0
   -7.2767    1.5214  -13.8869 H   0  0  0  0  0  0  0  0  0  0  0  0
   -5.1642    1.4129  -16.7036 H   0  0  0  0  0  0  0  0  0  0  0  0
   -5.5854    0.0531  -17.7692 H   0  0  0  0  0  0  0  0  0  0  0  0
   -4.2542    1.1556  -18.1819 H   0  0  0  0  0  0  0  0  0  0  0  0
   -7.0550    2.2105  -20.5040 H   0  0  0  0  0  0  0  0  0  0  0  0
   -6.7681    0.5474  -20.0234 H   0  0  0  0  0  0  0  0  0  0  0  0
   -5.3932    1.5802  -20.4738 H   0  0  0  0  0  0  0  0  0  0  0  0
   -6.4824    4.1161  -18.9642 H   0  0  0  0  0  0  0  0  0  0  0  0
   -5.7238    3.8115  -17.3865 H   0  0  0  0  0  0  0  0  0  0  0  0
   -4.8062    3.6006  -18.8951 H   0  0  0  0  0  0  0  0  0  0  0  0
   -9.1318    0.3238  -10.0417 H   0  0  0  0  0  0  0  0  0  0  0  0
  1  2  1  0  0  0  0
  1  5  2  0  0  0  0
  2  6  2  0  0  0  0
  3  4  2  0  0  0  0
  3  6  1  0  0  0  0
  4  5  1  0  0  0  0
  4 13  1  0  0  0  0
  5 19  1  0  0  0  0
  6 22  1  0  0  0  0
  7 19  1  0  0  0  0
  7 20  2  0  0  0  0
  7 21  1  0  0  0  0
  8 10  1  0  0  0  0
  8 13  1  0  0  0  0
  9 11  1  0  0  0  0
  9 13  1  0  0  0  0
 10 18  1  0  0  0  0
 11 18  1  0  0  0  0
 12 13  1  0  0  0  0
 12 19  1  0  0  0  0
 14 17  1  0  0  0  0
 15 17  1  0  0  0  0
 16 17  1  0  0  0  0
 17 21  1  0  0  0  0
  1 23  1  0  0  0  0
  2 24  1  0  0  0  0
  3 25  1  0  0  0  0
  8 26  1  0  0  0  0
  8 27  1  0  0  0  0
  9 28  1  0  0  0  0
  9 29  1  0  0  0  0
 10 30  1  0  0  0  0
 10 31  1  0  0  0  0
 11 32  1  0  0  0  0
 11 33  1  0  0  0  0
 12 34  1  0  0  0  0
 12 35  1  0  0  0  0
 14 36  1  0  0  0  0
 14 37  1  0  0  0  0
 14 38  1  0  0  0  0
 15 39  1  0  0  0  0
 15 40  1  0  0  0  0
 15 41  1  0  0  0  0
 16 42  1  0  0  0  0
 16 43  1  0  0  0  0
 16 44  1  0  0  0  0
 18 45  1  0  0  0  0
M  END
> <id>
EN300-18800220

> <smiles>
Cl.CC(C)(C)OC(=O)N1CC2(CCNCC2)C=3C=C(F)C=CC13

> <MDLNUMBER>
MFCD15071698

> <IUPAC Name>
tert-butyl 5-fluoro-1,2-dihydrospiro[indole-3,4'-piperidine]-1-carboxylate hydrochloride

> <CAS>
858351-44-7

> <Purity>
95

> <URL>
https://www.enaminestore.com/catalog/EN300-18800220

> <Saltdate>
Cl

> <ROCS_ShapeQuery>
amalgated

> <ROCS_TanimotoCombo>
0.903 

> <ROCS_ShapeTanimoto>
0.654 

> <ROCS_ColorTanimoto>
0.249 

> <ROCS_RefTversky>
0.642 

> <ROCS_RefColorTversky>
0.399 

> <ROCS_RefTverskyCombo>
1.041 

> <ROCS_FitTversky>
1.031 

> <ROCS_FitColorTversky>
0.398 

> <ROCS_FitTverskyCombo>
1.429 

> <ROCS_ColorScore>
-2.792

> <ROCS_Overlap>
1062.262

> <ROCS_Rank>
44                  

$$$$
untitled-dbase-46078_194
  -OEChem-10092318153D

 38 39  0     0  0  0  0  0  0999 V2000
   -8.5715    0.6437  -13.4212 C   0  0  0  0  0  0  0  0  0  0  0  0
   -9.0532   -0.8655  -17.8468 C   0  0  0  0  0  0  0  0  0  0  0  0
   -8.0365   -2.3176  -16.5832 C   0  0  0  0  0  0  0  0  0  0  0  0
   -7.7891    0.1524  -15.8109 C   0  0  0  0  0  0  0  0  0  0  0  0
   -9.6854   -0.7568  -15.3288 C   0  0  0  0  0  0  0  0  0  0  0  0
   -8.6368   -0.9387  -16.3951 C   0  0  0  0  0  0  0  0  0  0  0  0
   -8.8704   -2.4125  -17.8965 C   0  0  0  0  0  0  0  0  0  0  0  0
   -7.9610   -0.8484  -11.3453 C   0  0  0  0  0  0  0  0  0  0  0  0
   -9.6789    0.5421  -10.1517 C   0  0  0  0  0  0  0  0  0  0  0  0
  -10.3856   -1.5218  -11.3963 C   0  0  0  0  0  0  0  0  0  0  0  0
  -10.1133   -3.2752  -17.8806 C   0  0  0  0  0  0  0  0  0  0  0  0
   -9.4054   -0.3502  -11.3605 C   0  0  0  0  0  0  0  0  0  0  0  0
   -8.7338    0.1488  -14.6938 N   0  0  0  0  0  0  0  0  0  0  0  0
   -7.9671   -2.7444  -19.0002 N   0  0  0  0  0  0  0  0  0  0  0  0
   -7.5344    1.1890  -13.0440 O   0  0  0  0  0  0  0  0  0  0  0  0
   -9.6017    0.4465  -12.5398 O   0  0  0  0  0  0  0  0  0  0  0  0
  -10.8993   -2.9989  -18.9399 F   0  0  0  0  0  0  0  0  0  0  0  0
   -9.7875   -4.5820  -17.9278 F   0  0  0  0  0  0  0  0  0  0  0  0
  -10.8286   -3.0602  -16.7588 F   0  0  0  0  0  0  0  0  0  0  0  0
  -10.0914   -0.5481  -17.9906 H   0  0  0  0  0  0  0  0  0  0  0  0
   -8.4238   -0.2710  -18.5130 H   0  0  0  0  0  0  0  0  0  0  0  0
   -6.9508   -2.3735  -16.6802 H   0  0  0  0  0  0  0  0  0  0  0  0
   -8.3475   -3.0379  -15.8206 H   0  0  0  0  0  0  0  0  0  0  0  0
   -6.7758   -0.1215  -15.5019 H   0  0  0  0  0  0  0  0  0  0  0  0
   -7.7765    1.1075  -16.3446 H   0  0  0  0  0  0  0  0  0  0  0  0
  -10.6062   -0.2552  -15.6336 H   0  0  0  0  0  0  0  0  0  0  0  0
   -9.9095   -1.6309  -14.7139 H   0  0  0  0  0  0  0  0  0  0  0  0
   -7.7607   -1.4892  -12.2114 H   0  0  0  0  0  0  0  0  0  0  0  0
   -7.2477   -0.0178  -11.3549 H   0  0  0  0  0  0  0  0  0  0  0  0
   -7.7678   -1.4603  -10.4567 H   0  0  0  0  0  0  0  0  0  0  0  0
  -10.7141    0.9019  -10.1586 H   0  0  0  0  0  0  0  0  0  0  0  0
   -9.0421    1.4339  -10.1728 H   0  0  0  0  0  0  0  0  0  0  0  0
   -9.5023    0.0122   -9.2102 H   0  0  0  0  0  0  0  0  0  0  0  0
  -11.4217   -1.1647  -11.4072 H   0  0  0  0  0  0  0  0  0  0  0  0
  -10.2281   -2.1526  -12.2771 H   0  0  0  0  0  0  0  0  0  0  0  0
  -10.2823   -2.1437  -10.4997 H   0  0  0  0  0  0  0  0  0  0  0  0
   -8.3783   -2.4141  -19.8383 H   0  0  0  0  0  0  0  0  0  0  0  0
   -7.1011   -2.2963  -18.8276 H   0  0  0  0  0  0  0  0  0  0  0  0
  1 13  1  0  0  0  0
  1 15  2  0  0  0  0
  1 16  1  0  0  0  0
  2  6  1  0  0  0  0
  2  7  1  0  0  0  0
  3  6  1  0  0  0  0
  3  7  1  0  0  0  0
  4  6  1  0  0  0  0
  4 13  1  0  0  0  0
  5  6  1  0  0  0  0
  5 13  1  0  0  0  0
  7 11  1  0  0  0  0
  7 14  1  0  0  0  0
  8 12  1  0  0  0  0
  9 12  1  0  0  0  0
 10 12  1  0  0  0  0
 11 17  1  0  0  0  0
 11 18  1  0  0  0  0
 11 19  1  0  0  0  0
 12 16  1  0  0  0  0
  2 20  1  0  0  0  0
  2 21  1  0  0  0  0
  3 22  1  0  0  0  0
  3 23  1  0  0  0  0
  4 24  1  0  0  0  0
  4 25  1  0  0  0  0
  5 26  1  0  0  0  0
  5 27  1  0  0  0  0
  8 28  1  0  0  0  0
  8 29  1  0  0  0  0
  8 30  1  0  0  0  0
  9 31  1  0  0  0  0
  9 32  1  0  0  0  0
  9 33  1  0  0  0  0
 10 34  1  0  0  0  0
 10 35  1  0  0  0  0
 10 36  1  0  0  0  0
 14 37  1  0  0  0  0
 14 38  1  0  0  0  0
M  END
> <id>
EN300-22133933

> <smiles>
CC(C)(C)OC(=O)N1CC2(C1)CC(N)(C2)C(F)(F)F

> <MDLNUMBER>
MFCD31537366

> <IUPAC Name>
tert-butyl 6-amino-6-(trifluoromethyl)-2-azaspiro[3.3]heptane-2-carboxylate

> <CAS>
2306275-08-9

> <Purity>
95

> <URL>
https://www.enaminestore.com/catalog/EN300-22133933

> <ROCS_ShapeQuery>
amalgated

> <ROCS_TanimotoCombo>
0.903 

> <ROCS_ShapeTanimoto>
0.602 

> <ROCS_ColorTanimoto>
0.301 

> <ROCS_RefTversky>
0.580 

> <ROCS_RefColorTversky>
0.433 

> <ROCS_RefTverskyCombo>
1.013 

> <ROCS_FitTversky>
1.066 

> <ROCS_FitColorTversky>
0.496 

> <ROCS_FitTverskyCombo>
1.562 

> <ROCS_ColorScore>
-3.012

> <ROCS_Overlap>
956.226

> <ROCS_Rank>
45                  

$$$$
untitled-dbase-597_139
  -OEChem-10092318153D

 47 48  0     1  0  0  0  0  0999 V2000
   -8.1115    0.7129  -14.7833 C   0  0  0  0  0  0  0  0  0  0  0  0
   -6.2386    2.8411  -18.9038 C   0  0  0  0  0  0  0  0  0  0  0  0
   -7.6195    2.3011  -19.2517 C   0  0  0  0  0  0  0  0  0  0  0  0
   -5.3843    1.7999  -18.1909 C   0  0  0  0  0  0  0  0  0  0  0  0
   -8.3244    1.6609  -18.0503 C   0  0  0  0  0  0  0  0  0  0  0  0
   -6.1113    1.2593  -16.9543 C   0  0  0  0  0  0  0  0  0  0  0  0
   -9.4478   -1.5064  -17.5871 C   0  0  0  0  0  0  0  0  0  0  0  0
   -7.1748   -0.6586  -18.1914 C   0  0  0  0  0  0  0  0  0  0  0  0
   -9.4698   -0.6800  -16.3095 C   0  0  0  0  0  0  0  0  0  0  0  0
   -8.0207   -1.9063  -17.9064 C   0  0  2  0  0  0  0  0  0  0  0  0
   -7.4815    0.5915  -17.2882 C   0  0  0  0  0  0  0  0  0  0  0  0
   -8.2818    1.6175  -12.0643 C   0  0  0  0  0  0  0  0  0  0  0  0
  -10.0551   -0.1392  -11.7840 C   0  0  0  0  0  0  0  0  0  0  0  0
   -7.7097   -0.8133  -12.3781 C   0  0  0  0  0  0  0  0  0  0  0  0
   -8.7885    0.2567  -12.5398 C   0  0  0  0  0  0  0  0  0  0  0  0
   -8.2786    0.1614  -16.0753 N   0  0  0  0  0  0  0  0  0  0  0  0
   -7.9856   -2.8287  -19.0407 N   0  0  0  0  0  0  0  0  0  0  0  0
   -7.1868    1.4304  -14.4147 O   0  0  0  0  0  0  0  0  0  0  0  0
   -9.1278    0.3563  -13.9284 O   0  0  0  0  0  0  0  0  0  0  0  0
   -5.7311    3.1730  -19.8152 H   0  0  0  0  0  0  0  0  0  0  0  0
   -6.3460    3.7212  -18.2597 H   0  0  0  0  0  0  0  0  0  0  0  0
   -8.2433    3.1255  -19.6359 H   0  0  0  0  0  0  0  0  0  0  0  0
   -7.5437    1.5823  -20.0833 H   0  0  0  0  0  0  0  0  0  0  0  0
   -5.1415    0.9872  -18.8730 H   0  0  0  0  0  0  0  0  0  0  0  0
   -4.4419    2.2527  -17.8840 H   0  0  0  0  0  0  0  0  0  0  0  0
   -8.6023    2.5017  -17.4009 H   0  0  0  0  0  0  0  0  0  0  0  0
   -9.2818    1.2229  -18.3840 H   0  0  0  0  0  0  0  0  0  0  0  0
   -5.4568    0.5561  -16.4370 H   0  0  0  0  0  0  0  0  0  0  0  0
   -6.2720    2.1001  -16.2747 H   0  0  0  0  0  0  0  0  0  0  0  0
  -10.0732   -2.3919  -17.4493 H   0  0  0  0  0  0  0  0  0  0  0  0
   -9.8849   -0.9234  -18.4026 H   0  0  0  0  0  0  0  0  0  0  0  0
   -6.1151   -0.9406  -18.1216 H   0  0  0  0  0  0  0  0  0  0  0  0
   -7.3261   -0.3741  -19.2470 H   0  0  0  0  0  0  0  0  0  0  0  0
  -10.3744   -0.0665  -16.3264 H   0  0  0  0  0  0  0  0  0  0  0  0
   -9.5529   -1.3431  -15.4410 H   0  0  0  0  0  0  0  0  0  0  0  0
   -7.5859   -2.4496  -17.0313 H   0  0  0  0  0  0  0  0  0  0  0  0
   -7.3727    1.9053  -12.6045 H   0  0  0  0  0  0  0  0  0  0  0  0
   -9.0337    2.4004  -12.2073 H   0  0  0  0  0  0  0  0  0  0  0  0
   -8.0132    1.5855  -11.0022 H   0  0  0  0  0  0  0  0  0  0  0  0
  -10.4222   -1.1150  -12.1219 H   0  0  0  0  0  0  0  0  0  0  0  0
  -10.8627    0.5770  -11.9736 H   0  0  0  0  0  0  0  0  0  0  0  0
   -9.8822   -0.1889  -10.7041 H   0  0  0  0  0  0  0  0  0  0  0  0
   -8.0729   -1.7895  -12.7191 H   0  0  0  0  0  0  0  0  0  0  0  0
   -6.8062   -0.5638  -12.9440 H   0  0  0  0  0  0  0  0  0  0  0  0
   -7.4374   -0.9358  -11.3236 H   0  0  0  0  0  0  0  0  0  0  0  0
   -7.0403   -3.0803  -19.2048 H   0  0  0  0  0  0  0  0  0  0  0  0
   -8.5267   -3.6262  -18.8061 H   0  0  0  0  0  0  0  0  0  0  0  0
  1 16  1  0  0  0  0
  1 18  2  0  0  0  0
  1 19  1  0  0  0  0
  2  3  1  0  0  0  0
  2  4  1  0  0  0  0
  3  5  1  0  0  0  0
  4  6  1  0  0  0  0
  5 11  1  0  0  0  0
  6 11  1  0  0  0  0
  7  9  1  0  0  0  0
  7 10  1  0  0  0  0
  8 10  1  0  0  0  0
  8 11  1  0  0  0  0
  9 16  1  0  0  0  0
 10 17  1  0  0  0  0
 11 16  1  0  0  0  0
 12 15  1  0  0  0  0
 13 15  1  0  0  0  0
 14 15  1  0  0  0  0
 15 19  1  0  0  0  0
  2 20  1  0  0  0  0
  2 21  1  0  0  0  0
  3 22  1  0  0  0  0
  3 23  1  0  0  0  0
  4 24  1  0  0  0  0
  4 25  1  0  0  0  0
  5 26  1  0  0  0  0
  5 27  1  0  0  0  0
  6 28  1  0  0  0  0
  6 29  1  0  0  0  0
  7 30  1  0  0  0  0
  7 31  1  0  0  0  0
  8 32  1  0  0  0  0
  8 33  1  0  0  0  0
  9 34  1  0  0  0  0
  9 35  1  0  0  0  0
 10 36  1  0  0  0  0
 12 37  1  0  0  0  0
 12 38  1  0  0  0  0
 12 39  1  0  0  0  0
 13 40  1  0  0  0  0
 13 41  1  0  0  0  0
 13 42  1  0  0  0  0
 14 43  1  0  0  0  0
 14 44  1  0  0  0  0
 14 45  1  0  0  0  0
 17 46  1  0  0  0  0
 17 47  1  0  0  0  0
M  END
> <id>
EN300-27604

> <smiles>
CC(C)(C)OC(=O)N1CCC(N)CC21CCCCC2

> <MDLNUMBER>
MFCD09040651

> <IUPAC Name>
tert-butyl 4-amino-1-azaspiro[5.5]undecane-1-carboxylate

> <CAS>
929971-83-5

> <Purity>
95

> <URL>
https://www.enaminestore.com/catalog/EN300-27604

> <ROCS_ShapeQuery>
amalgated

> <ROCS_TanimotoCombo>
0.897 

> <ROCS_ShapeTanimoto>
0.567 

> <ROCS_ColorTanimoto>
0.329 

> <ROCS_RefTversky>
0.551 

> <ROCS_RefColorTversky>
0.464 

> <ROCS_RefTverskyCombo>
1.014 

> <ROCS_FitTversky>
1.055 

> <ROCS_FitColorTversky>
0.532 

> <ROCS_FitTverskyCombo>
1.588 

> <ROCS_ColorScore>
-3.221

> <ROCS_Overlap>
906.947

> <ROCS_Rank>
46                  

$$$$
untitled-dbase-11427_139
  -OEChem-10092318153D

 47 48  0     1  0  0  0  0  0999 V2000
   -8.1115    0.7129  -14.7833 C   0  0  0  0  0  0  0  0  0  0  0  0
   -6.2386    2.8411  -18.9038 C   0  0  0  0  0  0  0  0  0  0  0  0
   -7.6195    2.3011  -19.2517 C   0  0  0  0  0  0  0  0  0  0  0  0
   -5.3843    1.7999  -18.1909 C   0  0  0  0  0  0  0  0  0  0  0  0
   -8.3244    1.6609  -18.0503 C   0  0  0  0  0  0  0  0  0  0  0  0
   -6.1113    1.2593  -16.9543 C   0  0  0  0  0  0  0  0  0  0  0  0
   -9.4478   -1.5064  -17.5871 C   0  0  0  0  0  0  0  0  0  0  0  0
   -7.1748   -0.6586  -18.1914 C   0  0  0  0  0  0  0  0  0  0  0  0
   -9.4698   -0.6800  -16.3095 C   0  0  0  0  0  0  0  0  0  0  0  0
   -8.0207   -1.9063  -17.9064 C   0  0  2  0  0  0  0  0  0  0  0  0
   -7.4815    0.5915  -17.2882 C   0  0  0  0  0  0  0  0  0  0  0  0
   -8.2818    1.6175  -12.0643 C   0  0  0  0  0  0  0  0  0  0  0  0
  -10.0551   -0.1392  -11.7840 C   0  0  0  0  0  0  0  0  0  0  0  0
   -7.7097   -0.8133  -12.3781 C   0  0  0  0  0  0  0  0  0  0  0  0
   -8.7885    0.2567  -12.5398 C   0  0  0  0  0  0  0  0  0  0  0  0
   -8.2786    0.1614  -16.0753 N   0  0  0  0  0  0  0  0  0  0  0  0
   -7.9856   -2.8287  -19.0407 N   0  0  0  0  0  0  0  0  0  0  0  0
   -7.1868    1.4304  -14.4147 O   0  0  0  0  0  0  0  0  0  0  0  0
   -9.1278    0.3563  -13.9284 O   0  0  0  0  0  0  0  0  0  0  0  0
   -5.7311    3.1730  -19.8152 H   0  0  0  0  0  0  0  0  0  0  0  0
   -6.3460    3.7212  -18.2597 H   0  0  0  0  0  0  0  0  0  0  0  0
   -8.2433    3.1255  -19.6359 H   0  0  0  0  0  0  0  0  0  0  0  0
   -7.5437    1.5823  -20.0833 H   0  0  0  0  0  0  0  0  0  0  0  0
   -5.1415    0.9872  -18.8730 H   0  0  0  0  0  0  0  0  0  0  0  0
   -4.4419    2.2527  -17.8840 H   0  0  0  0  0  0  0  0  0  0  0  0
   -8.6023    2.5017  -17.4009 H   0  0  0  0  0  0  0  0  0  0  0  0
   -9.2818    1.2229  -18.3840 H   0  0  0  0  0  0  0  0  0  0  0  0
   -5.4568    0.5561  -16.4370 H   0  0  0  0  0  0  0  0  0  0  0  0
   -6.2720    2.1001  -16.2747 H   0  0  0  0  0  0  0  0  0  0  0  0
  -10.0732   -2.3919  -17.4493 H   0  0  0  0  0  0  0  0  0  0  0  0
   -9.8849   -0.9234  -18.4026 H   0  0  0  0  0  0  0  0  0  0  0  0
   -6.1151   -0.9406  -18.1216 H   0  0  0  0  0  0  0  0  0  0  0  0
   -7.3261   -0.3741  -19.2470 H   0  0  0  0  0  0  0  0  0  0  0  0
  -10.3744   -0.0665  -16.3264 H   0  0  0  0  0  0  0  0  0  0  0  0
   -9.5529   -1.3431  -15.4410 H   0  0  0  0  0  0  0  0  0  0  0  0
   -7.5859   -2.4496  -17.0313 H   0  0  0  0  0  0  0  0  0  0  0  0
   -7.3727    1.9053  -12.6045 H   0  0  0  0  0  0  0  0  0  0  0  0
   -9.0337    2.4004  -12.2073 H   0  0  0  0  0  0  0  0  0  0  0  0
   -8.0132    1.5855  -11.0022 H   0  0  0  0  0  0  0  0  0  0  0  0
  -10.4222   -1.1150  -12.1219 H   0  0  0  0  0  0  0  0  0  0  0  0
  -10.8627    0.5770  -11.9736 H   0  0  0  0  0  0  0  0  0  0  0  0
   -9.8822   -0.1889  -10.7041 H   0  0  0  0  0  0  0  0  0  0  0  0
   -8.0729   -1.7895  -12.7191 H   0  0  0  0  0  0  0  0  0  0  0  0
   -6.8062   -0.5638  -12.9440 H   0  0  0  0  0  0  0  0  0  0  0  0
   -7.4374   -0.9358  -11.3236 H   0  0  0  0  0  0  0  0  0  0  0  0
   -7.0403   -3.0803  -19.2048 H   0  0  0  0  0  0  0  0  0  0  0  0
   -8.5267   -3.6262  -18.8061 H   0  0  0  0  0  0  0  0  0  0  0  0
  1 16  1  0  0  0  0
  1 18  2  0  0  0  0
  1 19  1  0  0  0  0
  2  3  1  0  0  0  0
  2  4  1  0  0  0  0
  3  5  1  0  0  0  0
  4  6  1  0  0  0  0
  5 11  1  0  0  0  0
  6 11  1  0  0  0  0
  7  9  1  0  0  0  0
  7 10  1  0  0  0  0
  8 10  1  0  0  0  0
  8 11  1  0  0  0  0
  9 16  1  0  0  0  0
 10 17  1  0  0  0  0
 11 16  1  0  0  0  0
 12 15  1  0  0  0  0
 13 15  1  0  0  0  0
 14 15  1  0  0  0  0
 15 19  1  0  0  0  0
  2 20  1  0  0  0  0
  2 21  1  0  0  0  0
  3 22  1  0  0  0  0
  3 23  1  0  0  0  0
  4 24  1  0  0  0  0
  4 25  1  0  0  0  0
  5 26  1  0  0  0  0
  5 27  1  0  0  0  0
  6 28  1  0  0  0  0
  6 29  1  0  0  0  0
  7 30  1  0  0  0  0
  7 31  1  0  0  0  0
  8 32  1  0  0  0  0
  8 33  1  0  0  0  0
  9 34  1  0  0  0  0
  9 35  1  0  0  0  0
 10 36  1  0  0  0  0
 12 37  1  0  0  0  0
 12 38  1  0  0  0  0
 12 39  1  0  0  0  0
 13 40  1  0  0  0  0
 13 41  1  0  0  0  0
 13 42  1  0  0  0  0
 14 43  1  0  0  0  0
 14 44  1  0  0  0  0
 14 45  1  0  0  0  0
 17 46  1  0  0  0  0
 17 47  1  0  0  0  0
M  END
> <id>
EN300-391799

> <smiles>
Cl.CC(C)(C)OC(=O)N1CCC(N)CC21CCCCC2

> <MDLNUMBER>
MFCD26954780

> <IUPAC Name>
tert-butyl 4-amino-1-azaspiro[5.5]undecane-1-carboxylate hydrochloride

> <CAS>
1965309-66-3

> <Purity>
95

> <URL>
https://www.enaminestore.com/catalog/EN300-391799

> <Saltdate>
Cl

> <ROCS_ShapeQuery>
amalgated

> <ROCS_TanimotoCombo>
0.897 

> <ROCS_ShapeTanimoto>
0.567 

> <ROCS_ColorTanimoto>
0.329 

> <ROCS_RefTversky>
0.551 

> <ROCS_RefColorTversky>
0.464 

> <ROCS_RefTverskyCombo>
1.014 

> <ROCS_FitTversky>
1.055 

> <ROCS_FitColorTversky>
0.532 

> <ROCS_FitTverskyCombo>
1.588 

> <ROCS_ColorScore>
-3.221

> <ROCS_Overlap>
906.947

> <ROCS_Rank>
47                  

$$$$
untitled-dbase-17429_105
  -OEChem-10092318153D

 38 39  0     1  0  0  0  0  0999 V2000
   -8.9966   -0.1448  -14.2699 C   0  0  0  0  0  0  0  0  0  0  0  0
   -8.0612   -0.0631  -17.5705 C   0  0  0  0  0  0  0  0  0  0  0  0
   -9.2027   -0.8391  -18.2361 C   0  0  0  0  0  0  0  0  0  0  0  0
  -10.1411   -3.2416  -17.8740 C   0  0  0  0  0  0  0  0  0  0  0  0
   -7.5804   -0.6459  -16.2367 C   0  0  0  0  0  0  0  0  0  0  0  0
   -9.4675   -2.2229  -15.5860 C   0  0  0  0  0  0  0  0  0  0  0  0
   -9.0946   -2.9941  -16.8181 C   0  0  2  0  0  0  0  0  0  0  0  0
   -8.9729   -2.3323  -18.1840 C   0  0  2  0  0  0  0  0  0  0  0  0
   -9.8607    1.1578  -11.8733 C   0  0  0  0  0  0  0  0  0  0  0  0
   -9.9184   -1.1412  -10.8632 C   0  0  0  0  0  0  0  0  0  0  0  0
   -7.7449   -0.1929  -11.6905 C   0  0  0  0  0  0  0  0  0  0  0  0
   -9.2565   -0.2453  -11.9077 C   0  0  0  0  0  0  0  0  0  0  0  0
   -8.6791   -1.0015  -15.3356 N   0  0  0  0  0  0  0  0  0  0  0  0
   -7.9353   -2.8292  -19.1172 N   0  0  0  0  0  0  0  0  0  0  0  0
   -8.8359    1.0741  -14.2845 O   0  0  0  0  0  0  0  0  0  0  0  0
   -9.5126   -0.8203  -13.1941 O   0  0  0  0  0  0  0  0  0  0  0  0
   -7.2082    0.0454  -18.2600 H   0  0  0  0  0  0  0  0  0  0  0  0
   -8.4193    0.9599  -17.3708 H   0  0  0  0  0  0  0  0  0  0  0  0
  -10.1534   -0.5646  -17.7729 H   0  0  0  0  0  0  0  0  0  0  0  0
   -9.2724   -0.5302  -19.2829 H   0  0  0  0  0  0  0  0  0  0  0  0
  -10.1676   -4.2262  -18.3280 H   0  0  0  0  0  0  0  0  0  0  0  0
  -11.1236   -2.8046  -17.7379 H   0  0  0  0  0  0  0  0  0  0  0  0
   -6.9651   -1.5280  -16.4423 H   0  0  0  0  0  0  0  0  0  0  0  0
   -6.9313    0.0685  -15.7163 H   0  0  0  0  0  0  0  0  0  0  0  0
  -10.5511   -1.9409  -15.5811 H   0  0  0  0  0  0  0  0  0  0  0  0
   -9.3610   -2.8982  -14.7013 H   0  0  0  0  0  0  0  0  0  0  0  0
   -8.4214   -3.8074  -16.5879 H   0  0  0  0  0  0  0  0  0  0  0  0
   -9.3882    1.8040  -12.6217 H   0  0  0  0  0  0  0  0  0  0  0  0
  -10.9390    1.1373  -12.0625 H   0  0  0  0  0  0  0  0  0  0  0  0
   -9.6889    1.6338  -10.9012 H   0  0  0  0  0  0  0  0  0  0  0  0
   -9.4879   -2.1489  -10.8843 H   0  0  0  0  0  0  0  0  0  0  0  0
  -10.9882   -1.2582  -11.0708 H   0  0  0  0  0  0  0  0  0  0  0  0
   -9.8037   -0.7364   -9.8525 H   0  0  0  0  0  0  0  0  0  0  0  0
   -7.3112   -1.1992  -11.7152 H   0  0  0  0  0  0  0  0  0  0  0  0
   -7.2487    0.4160  -12.4532 H   0  0  0  0  0  0  0  0  0  0  0  0
   -7.5071    0.2222  -10.7044 H   0  0  0  0  0  0  0  0  0  0  0  0
   -8.2299   -2.5935  -20.0280 H   0  0  0  0  0  0  0  0  0  0  0  0
   -7.0922   -2.3788  -18.8764 H   0  0  0  0  0  0  0  0  0  0  0  0
  1 13  1  0  0  0  0
  1 15  2  0  0  0  0
  1 16  1  0  0  0  0
  2  3  1  0  0  0  0
  2  5  1  0  0  0  0
  3  8  1  0  0  0  0
  4  7  1  0  0  0  0
  4  8  1  0  0  0  0
  5 13  1  0  0  0  0
  6  7  1  0  0  0  0
  6 13  1  0  0  0  0
  7  8  1  0  0  0  0
  8 14  1  0  0  0  0
  9 12  1  0  0  0  0
 10 12  1  0  0  0  0
 11 12  1  0  0  0  0
 12 16  1  0  0  0  0
  2 17  1  0  0  0  0
  2 18  1  0  0  0  0
  3 19  1  0  0  0  0
  3 20  1  0  0  0  0
  4 21  1  0  0  0  0
  4 22  1  0  0  0  0
  5 23  1  0  0  0  0
  5 24  1  0  0  0  0
  6 25  1  0  0  0  0
  6 26  1  0  0  0  0
  7 27  1  0  0  0  0
  9 28  1  0  0  0  0
  9 29  1  0  0  0  0
  9 30  1  0  0  0  0
 10 31  1  0  0  0  0
 10 32  1  0  0  0  0
 10 33  1  0  0  0  0
 11 34  1  0  0  0  0
 11 35  1  0  0  0  0
 11 36  1  0  0  0  0
 14 37  1  0  0  0  0
 14 38  1  0  0  0  0
M  END
> <id>
EN300-1425969

> <smiles>
CC(C)(C)OC(=O)N1CCCC2(N)CC2C1

> <MDLNUMBER>
MFCD31615789

> <IUPAC Name>
tert-butyl 7-amino-3-azabicyclo[5.1.0]octane-3-carboxylate

> <CAS>
2155856-36-1

> <Purity>
95

> <URL>
https://www.enaminestore.com/catalog/EN300-1425969

> <ROCS_ShapeQuery>
amalgated

> <ROCS_TanimotoCombo>
0.895 

> <ROCS_ShapeTanimoto>
0.588 

> <ROCS_ColorTanimoto>
0.307 

> <ROCS_RefTversky>
0.537 

> <ROCS_RefColorTversky>
0.408 

> <ROCS_RefTverskyCombo>
0.946 

> <ROCS_FitTversky>
1.191 

> <ROCS_FitColorTversky>
0.553 

> <ROCS_FitTverskyCombo>
1.743 

> <ROCS_ColorScore>
-2.819

> <ROCS_Overlap>
881.268

> <ROCS_Rank>
48                  

$$$$
untitled-dbase-47383_6
  -OEChem-10092318153D

 31 33  0     0  0  0  0  0  0999 V2000
   -9.5603   -2.4703  -16.5306 C   0  0  0  0  0  0  0  0  0  0  0  0
   -9.0247   -2.8002  -17.7771 C   0  0  0  0  0  0  0  0  0  0  0  0
   -7.6995   -0.7850  -17.7425 C   0  0  0  0  0  0  0  0  0  0  0  0
   -8.2383   -0.4595  -16.4920 C   0  0  0  0  0  0  0  0  0  0  0  0
   -9.1634   -1.3035  -15.8631 C   0  0  0  0  0  0  0  0  0  0  0  0
   -8.0918   -1.9604  -18.3798 C   0  0  0  0  0  0  0  0  0  0  0  0
   -7.8745    0.8215  -15.8465 C   0  0  0  0  0  0  0  0  0  0  0  0
   -7.9891   -0.7351  -12.9109 C   0  0  0  0  0  0  0  0  0  0  0  0
  -10.1202    0.6590  -12.8746 C   0  0  0  0  0  0  0  0  0  0  0  0
   -7.8138   -0.0642  -11.5504 C   0  0  0  0  0  0  0  0  0  0  0  0
  -10.2721   -0.0745  -11.5435 C   0  0  0  0  0  0  0  0  0  0  0  0
   -9.0486   -0.0041  -13.7707 C   0  0  0  0  0  0  0  0  0  0  0  0
   -9.7041   -0.9886  -14.6257 N   0  0  0  0  0  0  0  0  0  0  0  0
   -8.4095    1.0313  -14.5908 N   0  0  0  0  0  0  0  0  0  0  0  0
   -9.0401   -0.0543  -10.7513 N   0  0  0  0  0  0  0  0  0  0  0  0
   -7.1718    1.6421  -16.4277 O   0  0  0  0  0  0  0  0  0  0  0  0
   -7.5633   -2.2882  -19.5660 F   0  0  0  0  0  0  0  0  0  0  0  0
  -10.3020   -3.1303  -16.0856 H   0  0  0  0  0  0  0  0  0  0  0  0
   -9.3354   -3.7133  -18.2765 H   0  0  0  0  0  0  0  0  0  0  0  0
   -6.9710   -0.1423  -18.2289 H   0  0  0  0  0  0  0  0  0  0  0  0
   -7.0310   -0.7682  -13.4340 H   0  0  0  0  0  0  0  0  0  0  0  0
   -8.3023   -1.7708  -12.7479 H   0  0  0  0  0  0  0  0  0  0  0  0
  -11.0874    0.6492  -13.3920 H   0  0  0  0  0  0  0  0  0  0  0  0
   -9.8757    1.7096  -12.6863 H   0  0  0  0  0  0  0  0  0  0  0  0
   -7.0323   -0.5960  -10.9825 H   0  0  0  0  0  0  0  0  0  0  0  0
   -7.4380    0.9668  -11.6648 H   0  0  0  0  0  0  0  0  0  0  0  0
  -11.1005    0.3493  -10.9552 H   0  0  0  0  0  0  0  0  0  0  0  0
  -10.5463   -1.1223  -11.7355 H   0  0  0  0  0  0  0  0  0  0  0  0
  -10.6884   -1.1830  -14.4732 H   0  0  0  0  0  0  0  0  0  0  0  0
   -8.3567    1.9709  -14.2070 H   0  0  0  0  0  0  0  0  0  0  0  0
   -9.0353   -0.8771  -10.1315 H   0  0  0  0  0  0  0  0  0  0  0  0
  1  2  1  0  0  0  0
  1  5  2  0  0  0  0
  2  6  2  0  0  0  0
  3  4  2  0  0  0  0
  3  6  1  0  0  0  0
  4  5  1  0  0  0  0
  4  7  1  0  0  0  0
  5 13  1  0  0  0  0
  6 17  1  0  0  0  0
  7 14  1  0  0  0  0
  7 16  2  0  0  0  0
  8 10  1  0  0  0  0
  8 12  1  0  0  0  0
  9 11  1  0  0  0  0
  9 12  1  0  0  0  0
 10 15  1  0  0  0  0
 11 15  1  0  0  0  0
 12 13  1  0  0  0  0
 12 14  1  0  0  0  0
  1 18  1  0  0  0  0
  2 19  1  0  0  0  0
  3 20  1  0  0  0  0
  8 21  1  0  0  0  0
  8 22  1  0  0  0  0
  9 23  1  0  0  0  0
  9 24  1  0  0  0  0
 10 25  1  0  0  0  0
 10 26  1  0  0  0  0
 11 27  1  0  0  0  0
 11 28  1  0  0  0  0
 13 29  1  0  0  0  0
 14 30  1  0  0  0  0
 15 31  1  0  0  0  0
M  END
> <id>
EN300-264869

> <smiles>
FC=1C=CC=2NC3(CCNCC3)NC(=O)C2C1

> <MDLNUMBER>
MFCD21086530

> <IUPAC Name>
6'-fluoro-3',4'-dihydro-1'H-spiro[piperidine-4,2'-quinazoline]-4'-one

> <CAS>
1355195-80-0

> <URL>
https://www.enaminestore.com/catalog/EN300-264869

> <ROCS_ShapeQuery>
amalgated

> <ROCS_TanimotoCombo>
0.894 

> <ROCS_ShapeTanimoto>
0.611 

> <ROCS_ColorTanimoto>
0.283 

> <ROCS_RefTversky>
0.570 

> <ROCS_RefColorTversky>
0.469 

> <ROCS_RefTverskyCombo>
1.039 

> <ROCS_FitTversky>
1.136 

> <ROCS_FitColorTversky>
0.416 

> <ROCS_FitTverskyCombo>
1.552 

> <ROCS_ColorScore>
-3.308

> <ROCS_Overlap>
936.737

> <ROCS_Rank>
49                  

$$$$
untitled-dbase-7998_4
  -OEChem-10092318153D

 33 35  0     0  0  0  0  0  0999 V2000
   -9.0423   -2.7582  -17.9488 C   0  0  0  0  0  0  0  0  0  0  0  0
   -8.0702   -1.9193  -18.4850 C   0  0  0  0  0  0  0  0  0  0  0  0
   -9.5737   -2.4931  -16.6870 C   0  0  0  0  0  0  0  0  0  0  0  0
   -7.6328   -0.8099  -17.7615 C   0  0  0  0  0  0  0  0  0  0  0  0
   -9.1337   -1.3805  -15.9562 C   0  0  0  0  0  0  0  0  0  0  0  0
   -8.1673   -0.5216  -16.4962 C   0  0  0  0  0  0  0  0  0  0  0  0
   -9.7067   -1.1309  -14.6058 C   0  0  0  0  0  0  0  0  0  0  0  0
   -7.6569    0.6759  -15.7480 C   0  0  0  0  0  0  0  0  0  0  0  0
   -8.6321    1.1330  -14.6696 C   0  0  0  0  0  0  0  0  0  0  0  0
   -7.9673   -0.6128  -12.8914 C   0  0  0  0  0  0  0  0  0  0  0  0
  -10.2134    0.5771  -12.8163 C   0  0  0  0  0  0  0  0  0  0  0  0
   -7.8339    0.0875  -11.5405 C   0  0  0  0  0  0  0  0  0  0  0  0
  -10.2754   -0.1384  -11.4670 C   0  0  0  0  0  0  0  0  0  0  0  0
   -9.1095   -0.0058  -13.7444 C   0  0  0  0  0  0  0  0  0  0  0  0
   -9.0288   -0.0526  -10.7089 N   0  0  0  0  0  0  0  0  0  0  0  0
  -10.6027   -1.8641  -14.1927 O   0  0  0  0  0  0  0  0  0  0  0  0
   -9.3837   -3.6226  -18.5106 H   0  0  0  0  0  0  0  0  0  0  0  0
   -7.6517   -2.1282  -19.4650 H   0  0  0  0  0  0  0  0  0  0  0  0
  -10.3250   -3.1700  -16.2876 H   0  0  0  0  0  0  0  0  0  0  0  0
   -6.8707   -0.1645  -18.1926 H   0  0  0  0  0  0  0  0  0  0  0  0
   -6.6825    0.4324  -15.3066 H   0  0  0  0  0  0  0  0  0  0  0  0
   -7.4969    1.5084  -16.4454 H   0  0  0  0  0  0  0  0  0  0  0  0
   -8.1568    1.9337  -14.0815 H   0  0  0  0  0  0  0  0  0  0  0  0
   -9.5067    1.5945  -15.1584 H   0  0  0  0  0  0  0  0  0  0  0  0
   -7.0217   -0.5165  -13.4307 H   0  0  0  0  0  0  0  0  0  0  0  0
   -8.1318   -1.6756  -12.7101 H   0  0  0  0  0  0  0  0  0  0  0  0
  -11.1862    0.5154  -13.3001 H   0  0  0  0  0  0  0  0  0  0  0  0
  -10.0033    1.6305  -12.6302 H   0  0  0  0  0  0  0  0  0  0  0  0
   -6.9465   -0.2804  -10.9973 H   0  0  0  0  0  0  0  0  0  0  0  0
   -7.6549    1.1609  -11.7142 H   0  0  0  0  0  0  0  0  0  0  0  0
  -11.0800    0.3152  -10.8650 H   0  0  0  0  0  0  0  0  0  0  0  0
  -10.5650   -1.1947  -11.5918 H   0  0  0  0  0  0  0  0  0  0  0  0
   -8.9334   -0.8988  -10.1261 H   0  0  0  0  0  0  0  0  0  0  0  0
  1  2  2  0  0  0  0
  1  3  1  0  0  0  0
  2  4  1  0  0  0  0
  3  5  2  0  0  0  0
  4  6  2  0  0  0  0
  5  6  1  0  0  0  0
  5  7  1  0  0  0  0
  6  8  1  0  0  0  0
  7 14  1  0  0  0  0
  7 16  2  0  0  0  0
  8  9  1  0  0  0  0
  9 14  1  0  0  0  0
 10 12  1  0  0  0  0
 10 14  1  0  0  0  0
 11 13  1  0  0  0  0
 11 14  1  0  0  0  0
 12 15  1  0  0  0  0
 13 15  1  0  0  0  0
  1 17  1  0  0  0  0
  2 18  1  0  0  0  0
  3 19  1  0  0  0  0
  4 20  1  0  0  0  0
  8 21  1  0  0  0  0
  8 22  1  0  0  0  0
  9 23  1  0  0  0  0
  9 24  1  0  0  0  0
 10 25  1  0  0  0  0
 10 26  1  0  0  0  0
 11 27  1  0  0  0  0
 11 28  1  0  0  0  0
 12 29  1  0  0  0  0
 12 30  1  0  0  0  0
 13 31  1  0  0  0  0
 13 32  1  0  0  0  0
 15 33  1  0  0  0  0
M  END
> <id>
EN300-263069

> <smiles>
O=C1C=2C=CC=CC2CCC31CCNCC3

> <MDLNUMBER>
MFCD24395704

> <IUPAC Name>
3,4-dihydro-1H-spiro[naphthalene-2,4'-piperidine]-1-one

> <CAS>
136080-34-7

> <URL>
https://www.enaminestore.com/catalog/EN300-263069

> <ROCS_ShapeQuery>
amalgated

> <ROCS_TanimotoCombo>
0.892 

> <ROCS_ShapeTanimoto>
0.553 

> <ROCS_ColorTanimoto>
0.340 

> <ROCS_RefTversky>
0.522 

> <ROCS_RefColorTversky>
0.475 

> <ROCS_RefTverskyCombo>
0.997 

> <ROCS_FitTversky>
1.118 

> <ROCS_FitColorTversky>
0.545 

> <ROCS_FitTverskyCombo>
1.663 

> <ROCS_ColorScore>
-3.299

> <ROCS_Overlap>
857.152

> <ROCS_Rank>
50                  

$$$$
untitled-dbase-35190_4
  -OEChem-10092318153D

 33 35  0     0  0  0  0  0  0999 V2000
   -9.0423   -2.7582  -17.9488 C   0  0  0  0  0  0  0  0  0  0  0  0
   -8.0702   -1.9193  -18.4850 C   0  0  0  0  0  0  0  0  0  0  0  0
   -9.5737   -2.4931  -16.6870 C   0  0  0  0  0  0  0  0  0  0  0  0
   -7.6328   -0.8099  -17.7615 C   0  0  0  0  0  0  0  0  0  0  0  0
   -9.1337   -1.3805  -15.9562 C   0  0  0  0  0  0  0  0  0  0  0  0
   -8.1673   -0.5216  -16.4962 C   0  0  0  0  0  0  0  0  0  0  0  0
   -9.7067   -1.1309  -14.6058 C   0  0  0  0  0  0  0  0  0  0  0  0
   -7.6569    0.6759  -15.7480 C   0  0  0  0  0  0  0  0  0  0  0  0
   -8.6321    1.1330  -14.6696 C   0  0  0  0  0  0  0  0  0  0  0  0
   -7.9673   -0.6128  -12.8914 C   0  0  0  0  0  0  0  0  0  0  0  0
  -10.2134    0.5771  -12.8163 C   0  0  0  0  0  0  0  0  0  0  0  0
   -7.8339    0.0875  -11.5405 C   0  0  0  0  0  0  0  0  0  0  0  0
  -10.2754   -0.1384  -11.4670 C   0  0  0  0  0  0  0  0  0  0  0  0
   -9.1095   -0.0058  -13.7444 C   0  0  0  0  0  0  0  0  0  0  0  0
   -9.0288   -0.0526  -10.7089 N   0  0  0  0  0  0  0  0  0  0  0  0
  -10.6027   -1.8641  -14.1927 O   0  0  0  0  0  0  0  0  0  0  0  0
   -9.3837   -3.6226  -18.5106 H   0  0  0  0  0  0  0  0  0  0  0  0
   -7.6517   -2.1282  -19.4650 H   0  0  0  0  0  0  0  0  0  0  0  0
  -10.3250   -3.1700  -16.2876 H   0  0  0  0  0  0  0  0  0  0  0  0
   -6.8707   -0.1645  -18.1926 H   0  0  0  0  0  0  0  0  0  0  0  0
   -6.6825    0.4324  -15.3066 H   0  0  0  0  0  0  0  0  0  0  0  0
   -7.4969    1.5084  -16.4454 H   0  0  0  0  0  0  0  0  0  0  0  0
   -8.1568    1.9337  -14.0815 H   0  0  0  0  0  0  0  0  0  0  0  0
   -9.5067    1.5945  -15.1584 H   0  0  0  0  0  0  0  0  0  0  0  0
   -7.0217   -0.5165  -13.4307 H   0  0  0  0  0  0  0  0  0  0  0  0
   -8.1318   -1.6756  -12.7101 H   0  0  0  0  0  0  0  0  0  0  0  0
  -11.1862    0.5154  -13.3001 H   0  0  0  0  0  0  0  0  0  0  0  0
  -10.0033    1.6305  -12.6302 H   0  0  0  0  0  0  0  0  0  0  0  0
   -6.9465   -0.2804  -10.9973 H   0  0  0  0  0  0  0  0  0  0  0  0
   -7.6549    1.1609  -11.7142 H   0  0  0  0  0  0  0  0  0  0  0  0
  -11.0800    0.3152  -10.8650 H   0  0  0  0  0  0  0  0  0  0  0  0
  -10.5650   -1.1947  -11.5918 H   0  0  0  0  0  0  0  0  0  0  0  0
   -8.9334   -0.8988  -10.1261 H   0  0  0  0  0  0  0  0  0  0  0  0
  1  2  2  0  0  0  0
  1  3  1  0  0  0  0
  2  4  1  0  0  0  0
  3  5  2  0  0  0  0
  4  6  2  0  0  0  0
  5  6  1  0  0  0  0
  5  7  1  0  0  0  0
  6  8  1  0  0  0  0
  7 14  1  0  0  0  0
  7 16  2  0  0  0  0
  8  9  1  0  0  0  0
  9 14  1  0  0  0  0
 10 12  1  0  0  0  0
 10 14  1  0  0  0  0
 11 13  1  0  0  0  0
 11 14  1  0  0  0  0
 12 15  1  0  0  0  0
 13 15  1  0  0  0  0
  1 17  1  0  0  0  0
  2 18  1  0  0  0  0
  3 19  1  0  0  0  0
  4 20  1  0  0  0  0
  8 21  1  0  0  0  0
  8 22  1  0  0  0  0
  9 23  1  0  0  0  0
  9 24  1  0  0  0  0
 10 25  1  0  0  0  0
 10 26  1  0  0  0  0
 11 27  1  0  0  0  0
 11 28  1  0  0  0  0
 12 29  1  0  0  0  0
 12 30  1  0  0  0  0
 13 31  1  0  0  0  0
 13 32  1  0  0  0  0
 15 33  1  0  0  0  0
M  END
> <id>
EN300-263589

> <smiles>
Cl.O=C1C=2C=CC=CC2CCC31CCNCC3

> <MDLNUMBER>
MFCD18711482

> <IUPAC Name>
3,4-dihydro-1H-spiro[naphthalene-2,4'-piperidine]-1-one hydrochloride

> <CAS>
312600-59-2

> <Purity>
95

> <URL>
https://www.enaminestore.com/catalog/EN300-263589

> <Saltdate>
Cl

> <MP>
235-237

> <ROCS_ShapeQuery>
amalgated

> <ROCS_TanimotoCombo>
0.892 

> <ROCS_ShapeTanimoto>
0.553 

> <ROCS_ColorTanimoto>
0.340 

> <ROCS_RefTversky>
0.522 

> <ROCS_RefColorTversky>
0.475 

> <ROCS_RefTverskyCombo>
0.997 

> <ROCS_FitTversky>
1.118 

> <ROCS_FitColorTversky>
0.545 

> <ROCS_FitTverskyCombo>
1.663 

> <ROCS_ColorScore>
-3.299

> <ROCS_Overlap>
857.152

> <ROCS_Rank>
51                  

$$$$
untitled-dbase-11873_85
  -OEChem-10092318153D

 48 50  0     1  0  0  0  0  0999 V2000
   -8.2534   -0.9483  -13.7284 C   0  0  0  0  0  0  0  0  0  0  0  0
   -7.5702    1.6336  -16.8675 C   0  0  0  0  0  0  0  0  0  0  0  0
  -10.9194   -3.5531  -16.8708 C   0  0  0  0  0  0  0  0  0  0  0  0
   -8.4458    1.8387  -15.6305 C   0  0  0  0  0  0  0  0  0  0  0  0
   -8.2030    0.7207  -17.9134 C   0  0  0  0  0  0  0  0  0  0  0  0
  -10.7453   -2.0439  -16.5746 C   0  0  0  0  0  0  0  0  0  0  0  0
   -9.4083   -3.7157  -16.5794 C   0  0  0  0  0  0  0  0  0  0  0  0
   -9.3286    0.6549  -15.2509 C   0  0  0  0  0  0  0  0  0  0  0  0
   -7.8864   -0.7403  -17.5941 C   0  0  1  0  0  0  0  0  0  0  0  0
   -8.1960   -1.4316  -16.2223 C   0  0  2  0  0  0  0  0  0  0  0  0
   -8.8364   -1.7691  -18.2920 C   0  0  2  0  0  0  0  0  0  0  0  0
   -9.2718   -2.2379  -16.9134 C   0  0  0  0  0  0  0  0  0  0  0  0
   -8.9165   -1.6409  -11.0317 C   0  0  0  0  0  0  0  0  0  0  0  0
   -9.9706    0.6353  -10.9022 C   0  0  0  0  0  0  0  0  0  0  0  0
  -10.8558   -1.0623  -12.5278 C   0  0  0  0  0  0  0  0  0  0  0  0
   -9.6103   -0.5309  -11.8199 C   0  0  0  0  0  0  0  0  0  0  0  0
   -8.5813   -0.5848  -15.0492 N   0  0  0  0  0  0  0  0  0  0  0  0
   -8.0015   -2.7662  -18.9629 N   0  0  0  0  0  0  0  0  0  0  0  0
   -7.6298   -1.9622  -13.4193 O   0  0  0  0  0  0  0  0  0  0  0  0
   -8.6999   -0.0366  -12.8086 O   0  0  0  0  0  0  0  0  0  0  0  0
   -7.3002    2.5952  -17.3006 H   0  0  0  0  0  0  0  0  0  0  0  0
   -6.6403    1.1662  -16.5370 H   0  0  0  0  0  0  0  0  0  0  0  0
  -11.5650   -4.0715  -16.1529 H   0  0  0  0  0  0  0  0  0  0  0  0
  -11.2385   -3.8041  -17.8849 H   0  0  0  0  0  0  0  0  0  0  0  0
   -7.8263    2.1489  -14.7700 H   0  0  0  0  0  0  0  0  0  0  0  0
   -9.1067    2.7001  -15.8337 H   0  0  0  0  0  0  0  0  0  0  0  0
   -9.2675    0.8560  -17.8675 H   0  0  0  0  0  0  0  0  0  0  0  0
   -7.8494    0.9704  -18.8925 H   0  0  0  0  0  0  0  0  0  0  0  0
  -11.2778   -1.3992  -17.2821 H   0  0  0  0  0  0  0  0  0  0  0  0
  -11.0112   -1.7408  -15.5619 H   0  0  0  0  0  0  0  0  0  0  0  0
   -9.1598   -4.0283  -15.5594 H   0  0  0  0  0  0  0  0  0  0  0  0
   -8.9269   -4.4117  -17.2788 H   0  0  0  0  0  0  0  0  0  0  0  0
   -9.8503    0.9066  -14.3172 H   0  0  0  0  0  0  0  0  0  0  0  0
  -10.1219    0.4962  -15.9894 H   0  0  0  0  0  0  0  0  0  0  0  0
   -6.8677   -0.8790  -17.8711 H   0  0  0  0  0  0  0  0  0  0  0  0
   -7.3038   -2.0520  -15.9421 H   0  0  0  0  0  0  0  0  0  0  0  0
   -9.6324   -1.3638  -18.9186 H   0  0  0  0  0  0  0  0  0  0  0  0
   -8.6562   -2.4799  -11.6868 H   0  0  0  0  0  0  0  0  0  0  0  0
   -8.0026   -1.2812  -10.5477 H   0  0  0  0  0  0  0  0  0  0  0  0
   -9.5805   -2.0461  -10.2596 H   0  0  0  0  0  0  0  0  0  0  0  0
  -10.4687    1.4340  -11.4636 H   0  0  0  0  0  0  0  0  0  0  0  0
   -9.0697    1.0808  -10.4651 H   0  0  0  0  0  0  0  0  0  0  0  0
  -10.6313    0.3198  -10.0882 H   0  0  0  0  0  0  0  0  0  0  0  0
  -11.3538   -0.2663  -13.0933 H   0  0  0  0  0  0  0  0  0  0  0  0
  -10.6110   -1.8757  -13.2186 H   0  0  0  0  0  0  0  0  0  0  0  0
  -11.5893   -1.4310  -11.8017 H   0  0  0  0  0  0  0  0  0  0  0  0
   -8.5810   -3.5223  -19.2446 H   0  0  0  0  0  0  0  0  0  0  0  0
   -7.5774   -2.3389  -19.7532 H   0  0  0  0  0  0  0  0  0  0  0  0
  1 17  1  0  0  0  0
  1 19  2  0  0  0  0
  1 20  1  0  0  0  0
  2  4  1  0  0  0  0
  2  5  1  0  0  0  0
  3  6  1  0  0  0  0
  3  7  1  0  0  0  0
  4  8  1  0  0  0  0
  5  9  1  0  0  0  0
  6 12  1  0  0  0  0
  7 12  1  0  0  0  0
  8 17  1  0  0  0  0
  9 10  1  0  0  0  0
  9 11  1  0  0  0  0
 10 12  1  0  0  0  0
 10 17  1  0  0  0  0
 11 12  1  0  0  0  0
 11 18  1  0  0  0  0
 13 16  1  0  0  0  0
 14 16  1  0  0  0  0
 15 16  1  0  0  0  0
 16 20  1  0  0  0  0
  2 21  1  0  0  0  0
  2 22  1  0  0  0  0
  3 23  1  0  0  0  0
  3 24  1  0  0  0  0
  4 25  1  0  0  0  0
  4 26  1  0  0  0  0
  5 27  1  0  0  0  0
  5 28  1  0  0  0  0
  6 29  1  0  0  0  0
  6 30  1  0  0  0  0
  7 31  1  0  0  0  0
  7 32  1  0  0  0  0
  8 33  1  0  0  0  0
  8 34  1  0  0  0  0
  9 35  1  0  0  0  0
 10 36  1  0  0  0  0
 11 37  1  0  0  0  0
 13 38  1  0  0  0  0
 13 39  1  0  0  0  0
 13 40  1  0  0  0  0
 14 41  1  0  0  0  0
 14 42  1  0  0  0  0
 14 43  1  0  0  0  0
 15 44  1  0  0  0  0
 15 45  1  0  0  0  0
 15 46  1  0  0  0  0
 18 47  1  0  0  0  0
 18 48  1  0  0  0  0
M  END
> <id>
EN300-701140

> <smiles>
CC(C)(C)OC(=O)N1CCCCC2C(N)C3(CCC3)C21

> <IUPAC Name>
tert-butyl 9-amino-6-azaspiro[bicyclo[5.2.0]nonane-8,1'-cyclobutane]-6-carboxylate

> <CAS>
2137951-11-0

> <URL>
https://www.enaminestore.com/catalog/EN300-701140

> <ROCS_ShapeQuery>
amalgated

> <ROCS_TanimotoCombo>
0.891 

> <ROCS_ShapeTanimoto>
0.618 

> <ROCS_ColorTanimoto>
0.272 

> <ROCS_RefTversky>
0.595 

> <ROCS_RefColorTversky>
0.430 

> <ROCS_RefTverskyCombo>
1.025 

> <ROCS_FitTversky>
1.068 

> <ROCS_FitColorTversky>
0.426 

> <ROCS_FitTverskyCombo>
1.493 

> <ROCS_ColorScore>
-3.013

> <ROCS_Overlap>
981.529

> <ROCS_Rank>
52                  

$$$$
untitled-dbase-34363_199
  -OEChem-10092318153D

 45 46  0     1  0  0  0  0  0999 V2000
   -8.5180   -0.9276  -14.4932 C   0  0  0  0  0  0  0  0  0  0  0  0
   -8.2001    1.9051  -18.5096 C   0  0  0  0  0  0  0  0  0  0  0  0
   -6.3960    1.2302  -16.9083 C   0  0  0  0  0  0  0  0  0  0  0  0
   -7.3868   -0.5201  -18.4759 C   0  0  0  0  0  0  0  0  0  0  0  0
   -8.4316   -2.0167  -16.7486 C   0  0  0  0  0  0  0  0  0  0  0  0
   -8.7750    0.4455  -16.5489 C   0  0  0  0  0  0  0  0  0  0  0  0
   -7.1029    2.5057  -19.3852 C   0  0  0  0  0  0  0  0  0  0  0  0
   -5.3979    1.8382  -17.8882 C   0  0  0  0  0  0  0  0  0  0  0  0
   -8.3890   -1.6569  -18.2352 C   0  0  2  0  0  0  0  0  0  0  0  0
   -7.6899    0.7483  -17.6137 C   0  0  0  0  0  0  0  0  0  0  0  0
   -7.8498    0.2017  -11.9511 C   0  0  0  0  0  0  0  0  0  0  0  0
  -10.1492    1.2114  -12.0013 C   0  0  0  0  0  0  0  0  0  0  0  0
   -9.8797   -1.2857  -11.9957 C   0  0  0  0  0  0  0  0  0  0  0  0
   -9.2815    0.0415  -12.4602 C   0  0  0  0  0  0  0  0  0  0  0  0
   -8.5532   -0.8377  -15.8877 N   0  0  0  0  0  0  0  0  0  0  0  0
   -8.0169   -2.8353  -19.0169 N   0  0  0  0  0  0  0  0  0  0  0  0
   -7.8977   -1.7832  -13.8654 O   0  0  0  0  0  0  0  0  0  0  0  0
   -5.9920    2.9239  -18.5960 O   0  0  0  0  0  0  0  0  0  0  0  0
   -9.2603    0.0557  -13.8921 O   0  0  0  0  0  0  0  0  0  0  0  0
   -8.6650    2.7028  -17.9181 H   0  0  0  0  0  0  0  0  0  0  0  0
   -8.9815    1.5108  -19.1750 H   0  0  0  0  0  0  0  0  0  0  0  0
   -5.9175    0.3675  -16.4295 H   0  0  0  0  0  0  0  0  0  0  0  0
   -6.6279    1.9513  -16.1184 H   0  0  0  0  0  0  0  0  0  0  0  0
   -6.3741   -0.8719  -18.2357 H   0  0  0  0  0  0  0  0  0  0  0  0
   -7.3756   -0.2511  -19.5394 H   0  0  0  0  0  0  0  0  0  0  0  0
   -9.2593   -2.7199  -16.5501 H   0  0  0  0  0  0  0  0  0  0  0  0
   -7.5066   -2.5383  -16.4410 H   0  0  0  0  0  0  0  0  0  0  0  0
   -8.7506    1.2118  -15.7588 H   0  0  0  0  0  0  0  0  0  0  0  0
   -9.7813    0.4941  -16.9799 H   0  0  0  0  0  0  0  0  0  0  0  0
   -6.7409    1.7481  -20.0882 H   0  0  0  0  0  0  0  0  0  0  0  0
   -7.4685    3.3486  -19.9817 H   0  0  0  0  0  0  0  0  0  0  0  0
   -4.4860    2.1788  -17.3884 H   0  0  0  0  0  0  0  0  0  0  0  0
   -5.1031    1.0857  -18.6254 H   0  0  0  0  0  0  0  0  0  0  0  0
   -9.3870   -1.3391  -18.5534 H   0  0  0  0  0  0  0  0  0  0  0  0
   -7.2238   -0.6361  -12.2783 H   0  0  0  0  0  0  0  0  0  0  0  0
   -7.3973    1.1333  -12.3061 H   0  0  0  0  0  0  0  0  0  0  0  0
   -7.8218    0.1990  -10.8554 H   0  0  0  0  0  0  0  0  0  0  0  0
  -11.1774    1.1006  -12.3644 H   0  0  0  0  0  0  0  0  0  0  0  0
   -9.7774    2.1574  -12.4113 H   0  0  0  0  0  0  0  0  0  0  0  0
  -10.1738    1.2925  -10.9098 H   0  0  0  0  0  0  0  0  0  0  0  0
  -10.9066   -1.4008  -12.3608 H   0  0  0  0  0  0  0  0  0  0  0  0
   -9.2902   -2.1387  -12.3472 H   0  0  0  0  0  0  0  0  0  0  0  0
   -9.9339   -1.3270  -10.9018 H   0  0  0  0  0  0  0  0  0  0  0  0
   -8.6860   -3.5459  -18.8411 H   0  0  0  0  0  0  0  0  0  0  0  0
   -8.0163   -2.5811  -19.9756 H   0  0  0  0  0  0  0  0  0  0  0  0
  1 15  1  0  0  0  0
  1 17  2  0  0  0  0
  1 19  1  0  0  0  0
  2  7  1  0  0  0  0
  2 10  1  0  0  0  0
  3  8  1  0  0  0  0
  3 10  1  0  0  0  0
  4  9  1  0  0  0  0
  4 10  1  0  0  0  0
  5  9  1  0  0  0  0
  5 15  1  0  0  0  0
  6 10  1  0  0  0  0
  6 15  1  0  0  0  0
  7 18  1  0  0  0  0
  8 18  1  0  0  0  0
  9 16  1  0  0  0  0
 11 14  1  0  0  0  0
 12 14  1  0  0  0  0
 13 14  1  0  0  0  0
 14 19  1  0  0  0  0
  2 20  1  0  0  0  0
  2 21  1  0  0  0  0
  3 22  1  0  0  0  0
  3 23  1  0  0  0  0
  4 24  1  0  0  0  0
  4 25  1  0  0  0  0
  5 26  1  0  0  0  0
  5 27  1  0  0  0  0
  6 28  1  0  0  0  0
  6 29  1  0  0  0  0
  7 30  1  0  0  0  0
  7 31  1  0  0  0  0
  8 32  1  0  0  0  0
  8 33  1  0  0  0  0
  9 34  1  0  0  0  0
 11 35  1  0  0  0  0
 11 36  1  0  0  0  0
 11 37  1  0  0  0  0
 12 38  1  0  0  0  0
 12 39  1  0  0  0  0
 12 40  1  0  0  0  0
 13 41  1  0  0  0  0
 13 42  1  0  0  0  0
 13 43  1  0  0  0  0
 16 44  1  0  0  0  0
 16 45  1  0  0  0  0
M  END
> <id>
EN300-374492

> <smiles>
CC(C)(C)OC(=O)N1CC(N)CC2(CCOCC2)C1

> <MDLNUMBER>
MFCD30731667

> <IUPAC Name>
tert-butyl 4-amino-9-oxa-2-azaspiro[5.5]undecane-2-carboxylate

> <CAS>
2095410-40-3

> <Purity>
95

> <URL>
https://www.enaminestore.com/catalog/EN300-374492

> <ROCS_ShapeQuery>
amalgated

> <ROCS_TanimotoCombo>
0.890 

> <ROCS_ShapeTanimoto>
0.588 

> <ROCS_ColorTanimoto>
0.303 

> <ROCS_RefTversky>
0.565 

> <ROCS_RefColorTversky>
0.465 

> <ROCS_RefTverskyCombo>
1.029 

> <ROCS_FitTversky>
1.073 

> <ROCS_FitColorTversky>
0.465 

> <ROCS_FitTverskyCombo>
1.538 

> <ROCS_ColorScore>
-3.252

> <ROCS_Overlap>
930.254

> <ROCS_Rank>
53                  

$$$$
untitled-dbase-42809_77
  -OEChem-10092318153D

 37 37  0     1  0  0  0  0  0999 V2000
   -8.5999   -0.8579  -14.1397 C   0  0  0  0  0  0  0  0  0  0  0  0
   -9.4191   -2.6128  -17.1425 C   0  0  0  0  0  0  0  0  0  0  0  0
   -7.8925   -0.7363  -17.8707 C   0  0  0  0  0  0  0  0  0  0  0  0
   -9.8898   -1.5614  -16.1353 C   0  0  0  0  0  0  0  0  0  0  0  0
   -8.0756   -2.2547  -17.8015 C   0  0  2  0  0  0  0  0  0  0  0  0
   -7.8646   -0.1331  -16.4515 C   0  0  1  0  0  0  0  0  0  0  0  0
   -9.5610    1.1585  -12.3510 C   0  0  0  0  0  0  0  0  0  0  0  0
  -11.2429   -0.5563  -11.6161 C   0  0  0  0  0  0  0  0  0  0  0  0
   -8.7910   -0.9856  -11.2811 C   0  0  0  0  0  0  0  0  0  0  0  0
   -8.1905    1.3601  -16.4963 C   0  0  0  0  0  0  0  0  0  0  0  0
   -9.8411   -0.3339  -12.1797 C   0  0  0  0  0  0  0  0  0  0  0  0
   -8.7688   -0.8507  -15.5292 N   0  0  0  0  0  0  0  0  0  0  0  0
   -7.9722   -2.8526  -19.1308 N   0  0  0  0  0  0  0  0  0  0  0  0
   -7.5122   -0.7820  -13.5715 O   0  0  0  0  0  0  0  0  0  0  0  0
   -9.7898   -0.9579  -13.4675 O   0  0  0  0  0  0  0  0  0  0  0  0
   -7.3513    1.9854  -17.3340 F   0  0  0  0  0  0  0  0  0  0  0  0
   -9.4486    1.5401  -16.9223 F   0  0  0  0  0  0  0  0  0  0  0  0
   -8.0629    1.8917  -15.2723 F   0  0  0  0  0  0  0  0  0  0  0  0
   -9.3157   -3.5767  -16.6260 H   0  0  0  0  0  0  0  0  0  0  0  0
  -10.1918   -2.7578  -17.9082 H   0  0  0  0  0  0  0  0  0  0  0  0
   -6.9373   -0.5368  -18.3325 H   0  0  0  0  0  0  0  0  0  0  0  0
   -8.6625   -0.2787  -18.4645 H   0  0  0  0  0  0  0  0  0  0  0  0
  -10.5291   -0.8182  -16.6217 H   0  0  0  0  0  0  0  0  0  0  0  0
  -10.4961   -2.0483  -15.3661 H   0  0  0  0  0  0  0  0  0  0  0  0
   -7.2634   -2.6775  -17.1912 H   0  0  0  0  0  0  0  0  0  0  0  0
   -6.8450   -0.2182  -16.1033 H   0  0  0  0  0  0  0  0  0  0  0  0
   -8.5557    1.3224  -12.7553 H   0  0  0  0  0  0  0  0  0  0  0  0
  -10.2866    1.6307  -13.0212 H   0  0  0  0  0  0  0  0  0  0  0  0
   -9.5940    1.6759  -11.3853 H   0  0  0  0  0  0  0  0  0  0  0  0
  -11.4481   -1.6257  -11.4916 H   0  0  0  0  0  0  0  0  0  0  0  0
  -12.0054   -0.1738  -12.3042 H   0  0  0  0  0  0  0  0  0  0  0  0
  -11.3717   -0.0634  -10.6471 H   0  0  0  0  0  0  0  0  0  0  0  0
   -8.9917   -2.0561  -11.1581 H   0  0  0  0  0  0  0  0  0  0  0  0
   -7.7819   -0.8679  -11.6891 H   0  0  0  0  0  0  0  0  0  0  0  0
   -8.8134   -0.5493  -10.2759 H   0  0  0  0  0  0  0  0  0  0  0  0
   -7.0832   -2.6214  -19.5054 H   0  0  0  0  0  0  0  0  0  0  0  0
   -8.0691   -3.8353  -19.0355 H   0  0  0  0  0  0  0  0  0  0  0  0
  1 12  1  0  0  0  0
  1 14  2  0  0  0  0
  1 15  1  0  0  0  0
  2  4  1  0  0  0  0
  2  5  1  0  0  0  0
  3  5  1  0  0  0  0
  3  6  1  0  0  0  0
  4 12  1  0  0  0  0
  5 13  1  1  0  0  0
  6 10  1  1  0  0  0
  6 12  1  0  0  0  0
  7 11  1  0  0  0  0
  8 11  1  0  0  0  0
  9 11  1  0  0  0  0
 10 16  1  0  0  0  0
 10 17  1  0  0  0  0
 10 18  1  0  0  0  0
 11 15  1  0  0  0  0
  2 19  1  0  0  0  0
  2 20  1  0  0  0  0
  3 21  1  0  0  0  0
  3 22  1  0  0  0  0
  4 23  1  0  0  0  0
  4 24  1  0  0  0  0
  5 25  1  0  0  0  0
  6 26  1  0  0  0  0
  7 27  1  0  0  0  0
  7 28  1  0  0  0  0
  7 29  1  0  0  0  0
  8 30  1  0  0  0  0
  8 31  1  0  0  0  0
  8 32  1  0  0  0  0
  9 33  1  0  0  0  0
  9 34  1  0  0  0  0
  9 35  1  0  0  0  0
 13 36  1  0  0  0  0
 13 37  1  0  0  0  0
M  END
> <id>
EN300-27151896

> <smiles>
CC(C)(C)OC(=O)N1CC[C@@H](N)C[C@H]1C(F)(F)F |&1:10,13,r|

> <MDLNUMBER>
MFCD32878443

> <IUPAC Name>
rac-tert-butyl (2R,4S)-4-amino-2-(trifluoromethyl)piperidine-1-carboxylate

> <CAS>
2567489-19-2

> <Purity>
91

> <URL>
https://www.enaminestore.com/catalog/EN300-27151896

> <ROCS_ShapeQuery>
amalgated

> <ROCS_TanimotoCombo>
0.890 

> <ROCS_ShapeTanimoto>
0.590 

> <ROCS_ColorTanimoto>
0.300 

> <ROCS_RefTversky>
0.560 

> <ROCS_RefColorTversky>
0.401 

> <ROCS_RefTverskyCombo>
0.962 

> <ROCS_FitTversky>
1.098 

> <ROCS_FitColorTversky>
0.543 

> <ROCS_FitTverskyCombo>
1.641 

> <ROCS_ColorScore>
-2.770

> <ROCS_Overlap>
921.709

> <ROCS_Rank>
54                  

$$$$
untitled-dbase-47058_1
  -OEChem-10092318153D

 30 32  0     0  0  0  0  0  0999 V2000
   -8.9685   -2.2629  -15.9234 C   0  0  0  0  0  0  0  0  0  0  0  0
   -8.9981   -2.9796  -17.1246 C   0  0  0  0  0  0  0  0  0  0  0  0
   -8.3196   -1.0100  -18.3916 C   0  0  0  0  0  0  0  0  0  0  0  0
   -8.6140   -0.9281  -15.9759 C   0  0  0  0  0  0  0  0  0  0  0  0
   -8.2967   -0.3214  -17.1947 C   0  0  0  0  0  0  0  0  0  0  0  0
   -8.6768   -2.3590  -18.3466 C   0  0  0  0  0  0  0  0  0  0  0  0
   -8.4751    0.1150  -14.9653 C   0  0  0  0  0  0  0  0  0  0  0  0
   -8.6717    0.0275  -13.6422 C   0  0  0  0  0  0  0  0  0  0  0  0
   -8.0553    1.3816  -15.6536 C   0  0  0  0  0  0  0  0  0  0  0  0
   -8.4851    1.2072  -12.7237 C   0  0  0  0  0  0  0  0  0  0  0  0
   -9.0948   -1.2552  -12.9745 C   0  0  0  0  0  0  0  0  0  0  0  0
   -8.1660    0.7321  -11.3048 C   0  0  0  0  0  0  0  0  0  0  0  0
   -9.9105   -0.9571  -11.7149 C   0  0  0  0  0  0  0  0  0  0  0  0
   -7.9711    1.0261  -17.0036 N   0  0  0  0  0  0  0  0  0  0  0  0
   -9.2131   -0.1207  -10.7339 N   0  0  0  0  0  0  0  0  0  0  0  0
   -7.8432    2.4600  -15.1305 O   0  0  0  0  0  0  0  0  0  0  0  0
   -8.7239   -3.2777  -19.8036 Cl  0  0  0  0  0  0  0  0  0  0  0  0
   -9.2178   -2.7513  -14.9878 H   0  0  0  0  0  0  0  0  0  0  0  0
   -9.2749   -4.0315  -17.0997 H   0  0  0  0  0  0  0  0  0  0  0  0
   -8.0690   -0.5177  -19.3254 H   0  0  0  0  0  0  0  0  0  0  0  0
   -7.6633    1.8280  -13.1017 H   0  0  0  0  0  0  0  0  0  0  0  0
   -9.3801    1.8392  -12.7007 H   0  0  0  0  0  0  0  0  0  0  0  0
   -9.6898   -1.8791  -13.6516 H   0  0  0  0  0  0  0  0  0  0  0  0
   -8.1998   -1.8323  -12.7098 H   0  0  0  0  0  0  0  0  0  0  0  0
   -7.2199    0.1679  -11.3151 H   0  0  0  0  0  0  0  0  0  0  0  0
   -7.9924    1.5958  -10.6405 H   0  0  0  0  0  0  0  0  0  0  0  0
  -10.8730   -0.4799  -11.9856 H   0  0  0  0  0  0  0  0  0  0  0  0
  -10.1878   -1.9108  -11.2286 H   0  0  0  0  0  0  0  0  0  0  0  0
   -7.7084    1.6620  -17.7471 H   0  0  0  0  0  0  0  0  0  0  0  0
   -8.7842   -0.7361  -10.0240 H   0  0  0  0  0  0  0  0  0  0  0  0
  1  2  1  0  0  0  0
  1  4  2  0  0  0  0
  2  6  2  0  0  0  0
  3  5  2  0  0  0  0
  3  6  1  0  0  0  0
  4  5  1  0  0  0  0
  4  7  1  0  0  0  0
  5 14  1  0  0  0  0
  6 17  1  0  0  0  0
  7  8  2  0  0  0  0
  7  9  1  0  0  0  0
  8 10  1  0  0  0  0
  8 11  1  0  0  0  0
  9 14  1  0  0  0  0
  9 16  2  0  0  0  0
 10 12  1  0  0  0  0
 11 13  1  0  0  0  0
 12 15  1  0  0  0  0
 13 15  1  0  0  0  0
  1 18  1  0  0  0  0
  2 19  1  0  0  0  0
  3 20  1  0  0  0  0
 10 21  1  0  0  0  0
 10 22  1  0  0  0  0
 11 23  1  0  0  0  0
 11 24  1  0  0  0  0
 12 25  1  0  0  0  0
 12 26  1  0  0  0  0
 13 27  1  0  0  0  0
 13 28  1  0  0  0  0
 14 29  1  0  0  0  0
 15 30  1  0  0  0  0
M  END
> <id>
EN300-64473

> <smiles>
Cl.ClC=1C=CC=2C(=C3CCNCC3)C(=O)NC2C1

> <MDLNUMBER>
MFCD16547679

> <IUPAC Name>
6-chloro-3-(piperidin-4-ylidene)-2,3-dihydro-1H-indol-2-one hydrochloride

> <CAS>
1240526-91-3

> <Purity>
95

> <URL>
https://www.enaminestore.com/catalog/EN300-64473

> <Saltdate>
Cl

> <ROCS_ShapeQuery>
amalgated

> <ROCS_TanimotoCombo>
0.890 

> <ROCS_ShapeTanimoto>
0.580 

> <ROCS_ColorTanimoto>
0.310 

> <ROCS_RefTversky>
0.549 

> <ROCS_RefColorTversky>
0.473 

> <ROCS_RefTverskyCombo>
1.022 

> <ROCS_FitTversky>
1.109 

> <ROCS_FitColorTversky>
0.472 

> <ROCS_FitTverskyCombo>
1.581 

> <ROCS_ColorScore>
-3.314

> <ROCS_Overlap>
902.124

> <ROCS_Rank>
55                  

$$$$
untitled-dbase-46550_1
  -OEChem-10092318153D

 30 32  0     0  0  0  0  0  0999 V2000
   -8.9685   -2.2629  -15.9234 C   0  0  0  0  0  0  0  0  0  0  0  0
   -8.9981   -2.9796  -17.1246 C   0  0  0  0  0  0  0  0  0  0  0  0
   -8.3196   -1.0100  -18.3916 C   0  0  0  0  0  0  0  0  0  0  0  0
   -8.6140   -0.9281  -15.9759 C   0  0  0  0  0  0  0  0  0  0  0  0
   -8.2967   -0.3214  -17.1947 C   0  0  0  0  0  0  0  0  0  0  0  0
   -8.6768   -2.3590  -18.3466 C   0  0  0  0  0  0  0  0  0  0  0  0
   -8.4751    0.1150  -14.9653 C   0  0  0  0  0  0  0  0  0  0  0  0
   -8.6717    0.0275  -13.6422 C   0  0  0  0  0  0  0  0  0  0  0  0
   -8.0553    1.3816  -15.6536 C   0  0  0  0  0  0  0  0  0  0  0  0
   -8.4851    1.2072  -12.7237 C   0  0  0  0  0  0  0  0  0  0  0  0
   -9.0948   -1.2552  -12.9745 C   0  0  0  0  0  0  0  0  0  0  0  0
   -8.1660    0.7321  -11.3048 C   0  0  0  0  0  0  0  0  0  0  0  0
   -9.9105   -0.9571  -11.7149 C   0  0  0  0  0  0  0  0  0  0  0  0
   -7.9711    1.0261  -17.0036 N   0  0  0  0  0  0  0  0  0  0  0  0
   -9.2131   -0.1207  -10.7339 N   0  0  0  0  0  0  0  0  0  0  0  0
   -7.8432    2.4600  -15.1305 O   0  0  0  0  0  0  0  0  0  0  0  0
   -8.7239   -3.2777  -19.8036 Cl  0  0  0  0  0  0  0  0  0  0  0  0
   -9.2178   -2.7513  -14.9878 H   0  0  0  0  0  0  0  0  0  0  0  0
   -9.2749   -4.0315  -17.0997 H   0  0  0  0  0  0  0  0  0  0  0  0
   -8.0690   -0.5177  -19.3254 H   0  0  0  0  0  0  0  0  0  0  0  0
   -7.6633    1.8280  -13.1017 H   0  0  0  0  0  0  0  0  0  0  0  0
   -9.3801    1.8392  -12.7007 H   0  0  0  0  0  0  0  0  0  0  0  0
   -9.6898   -1.8791  -13.6516 H   0  0  0  0  0  0  0  0  0  0  0  0
   -8.1998   -1.8323  -12.7098 H   0  0  0  0  0  0  0  0  0  0  0  0
   -7.2199    0.1679  -11.3151 H   0  0  0  0  0  0  0  0  0  0  0  0
   -7.9924    1.5958  -10.6405 H   0  0  0  0  0  0  0  0  0  0  0  0
  -10.8730   -0.4799  -11.9856 H   0  0  0  0  0  0  0  0  0  0  0  0
  -10.1878   -1.9108  -11.2286 H   0  0  0  0  0  0  0  0  0  0  0  0
   -7.7084    1.6620  -17.7471 H   0  0  0  0  0  0  0  0  0  0  0  0
   -8.7842   -0.7361  -10.0240 H   0  0  0  0  0  0  0  0  0  0  0  0
  1  2  1  0  0  0  0
  1  4  2  0  0  0  0
  2  6  2  0  0  0  0
  3  5  2  0  0  0  0
  3  6  1  0  0  0  0
  4  5  1  0  0  0  0
  4  7  1  0  0  0  0
  5 14  1  0  0  0  0
  6 17  1  0  0  0  0
  7  8  2  0  0  0  0
  7  9  1  0  0  0  0
  8 10  1  0  0  0  0
  8 11  1  0  0  0  0
  9 14  1  0  0  0  0
  9 16  2  0  0  0  0
 10 12  1  0  0  0  0
 11 13  1  0  0  0  0
 12 15  1  0  0  0  0
 13 15  1  0  0  0  0
  1 18  1  0  0  0  0
  2 19  1  0  0  0  0
  3 20  1  0  0  0  0
 10 21  1  0  0  0  0
 10 22  1  0  0  0  0
 11 23  1  0  0  0  0
 11 24  1  0  0  0  0
 12 25  1  0  0  0  0
 12 26  1  0  0  0  0
 13 27  1  0  0  0  0
 13 28  1  0  0  0  0
 14 29  1  0  0  0  0
 15 30  1  0  0  0  0
M  END
> <id>
EN300-145219

> <smiles>
ClC=1C=CC=2C(=C3CCNCC3)C(=O)NC2C1

> <MDLNUMBER>
MFCD21876396

> <IUPAC Name>
6-chloro-3-(piperidin-4-ylidene)-2,3-dihydro-1H-indol-2-one

> <CAS>
1240562-13-3

> <URL>
https://www.enaminestore.com/catalog/EN300-145219

> <ROCS_ShapeQuery>
amalgated

> <ROCS_TanimotoCombo>
0.890 

> <ROCS_ShapeTanimoto>
0.580 

> <ROCS_ColorTanimoto>
0.310 

> <ROCS_RefTversky>
0.549 

> <ROCS_RefColorTversky>
0.473 

> <ROCS_RefTverskyCombo>
1.022 

> <ROCS_FitTversky>
1.109 

> <ROCS_FitColorTversky>
0.472 

> <ROCS_FitTverskyCombo>
1.581 

> <ROCS_ColorScore>
-3.314

> <ROCS_Overlap>
902.124

> <ROCS_Rank>
56                  

$$$$
untitled-dbase-16964_9
  -OEChem-10092318153D

 40 42  0     1  0  0  0  0  0999 V2000
   -9.4425   -2.0587  -16.3872 C   0  0  0  0  0  0  0  0  0  0  0  0
   -9.4068   -1.6841  -15.0473 C   0  0  0  0  0  0  0  0  0  0  0  0
   -8.0930    0.2444  -15.6456 C   0  0  0  0  0  0  0  0  0  0  0  0
   -8.8007   -1.2880  -17.3781 C   0  0  0  0  0  0  0  0  0  0  0  0
   -8.0942   -0.1219  -17.0094 C   0  0  0  0  0  0  0  0  0  0  0  0
   -8.7347   -0.5286  -14.6767 C   0  0  0  0  0  0  0  0  0  0  0  0
   -6.0507    3.2655  -18.8920 C   0  0  0  0  0  0  0  0  0  0  0  0
   -7.3127    3.3802  -18.0489 C   0  0  0  0  0  0  0  0  0  0  0  0
   -5.1931    2.0608  -18.5069 C   0  0  0  0  0  0  0  0  0  0  0  0
   -8.6163   -0.6304  -19.7985 C   0  0  0  0  0  0  0  0  0  0  0  0
   -8.1846    2.1259  -18.1598 C   0  0  0  0  0  0  0  0  0  0  0  0
   -5.9205    1.0603  -17.6051 C   0  0  0  0  0  0  0  0  0  0  0  0
   -7.3280    0.1018  -19.4438 C   0  0  0  0  0  0  0  0  0  0  0  0
   -8.8940   -1.7652  -18.8122 C   0  0  1  0  0  0  0  0  0  0  0  0
   -7.3905    0.7822  -18.0427 C   0  0  0  0  0  0  0  0  0  0  0  0
   -8.7051   -0.1083  -13.2462 C   0  0  0  0  0  0  0  0  0  0  0  0
   -7.9933   -2.8959  -19.0636 N   0  0  0  0  0  0  0  0  0  0  0  0
   -9.3804   -0.9543  -12.4132 F   0  0  0  0  0  0  0  0  0  0  0  0
   -7.4448   -0.0271  -12.7261 F   0  0  0  0  0  0  0  0  0  0  0  0
   -9.2626    1.1218  -13.0490 F   0  0  0  0  0  0  0  0  0  0  0  0
   -9.9815   -2.9626  -16.6630 H   0  0  0  0  0  0  0  0  0  0  0  0
   -9.9116   -2.2960  -14.3048 H   0  0  0  0  0  0  0  0  0  0  0  0
   -7.5999    1.1577  -15.3225 H   0  0  0  0  0  0  0  0  0  0  0  0
   -6.3200    3.1989  -19.9545 H   0  0  0  0  0  0  0  0  0  0  0  0
   -5.4540    4.1818  -18.7786 H   0  0  0  0  0  0  0  0  0  0  0  0
   -7.0352    3.5331  -17.0003 H   0  0  0  0  0  0  0  0  0  0  0  0
   -7.8813    4.2662  -18.3474 H   0  0  0  0  0  0  0  0  0  0  0  0
   -4.8292    1.5575  -19.4201 H   0  0  0  0  0  0  0  0  0  0  0  0
   -4.2836    2.4172  -17.9911 H   0  0  0  0  0  0  0  0  0  0  0  0
   -9.4579    0.0731  -19.7994 H   0  0  0  0  0  0  0  0  0  0  0  0
   -8.5512   -1.0206  -20.8222 H   0  0  0  0  0  0  0  0  0  0  0  0
   -8.9368    2.1816  -17.3623 H   0  0  0  0  0  0  0  0  0  0  0  0
   -8.7489    2.1614  -19.0983 H   0  0  0  0  0  0  0  0  0  0  0  0
   -5.3513    0.1212  -17.5693 H   0  0  0  0  0  0  0  0  0  0  0  0
   -5.8804    1.4664  -16.5871 H   0  0  0  0  0  0  0  0  0  0  0  0
   -6.4943   -0.6110  -19.4741 H   0  0  0  0  0  0  0  0  0  0  0  0
   -7.1156    0.8282  -20.2337 H   0  0  0  0  0  0  0  0  0  0  0  0
   -9.9169   -2.1091  -19.0007 H   0  0  0  0  0  0  0  0  0  0  0  0
   -7.3693   -2.6318  -19.7857 H   0  0  0  0  0  0  0  0  0  0  0  0
   -7.5054   -3.0867  -18.2233 H   0  0  0  0  0  0  0  0  0  0  0  0
  1  2  1  0  0  0  0
  1  4  2  0  0  0  0
  2  6  2  0  0  0  0
  3  5  2  0  0  0  0
  3  6  1  0  0  0  0
  4  5  1  0  0  0  0
  4 14  1  0  0  0  0
  5 15  1  0  0  0  0
  6 16  1  0  0  0  0
  7  8  1  0  0  0  0
  7  9  1  0  0  0  0
  8 11  1  0  0  0  0
  9 12  1  0  0  0  0
 10 13  1  0  0  0  0
 10 14  1  0  0  0  0
 11 15  1  0  0  0  0
 12 15  1  0  0  0  0
 13 15  1  0  0  0  0
 14 17  1  0  0  0  0
 16 18  1  0  0  0  0
 16 19  1  0  0  0  0
 16 20  1  0  0  0  0
  1 21  1  0  0  0  0
  2 22  1  0  0  0  0
  3 23  1  0  0  0  0
  7 24  1  0  0  0  0
  7 25  1  0  0  0  0
  8 26  1  0  0  0  0
  8 27  1  0  0  0  0
  9 28  1  0  0  0  0
  9 29  1  0  0  0  0
 10 30  1  0  0  0  0
 10 31  1  0  0  0  0
 11 32  1  0  0  0  0
 11 33  1  0  0  0  0
 12 34  1  0  0  0  0
 12 35  1  0  0  0  0
 13 36  1  0  0  0  0
 13 37  1  0  0  0  0
 14 38  1  0  0  0  0
 17 39  1  0  0  0  0
 17 40  1  0  0  0  0
M  END
> <id>
EN300-1458046

> <smiles>
NC1CCC2(CCCCC2)C=3C=C(C=CC13)C(F)(F)F

> <IUPAC Name>
7'-(trifluoromethyl)-3',4'-dihydro-2'H-spiro[cyclohexane-1,1'-naphthalene]-4'-amine

> <CAS>
2172293-75-1

> <URL>
https://www.enaminestore.com/catalog/EN300-1458046

> <ROCS_ShapeQuery>
amalgated

> <ROCS_TanimotoCombo>
0.889 

> <ROCS_ShapeTanimoto>
0.535 

> <ROCS_ColorTanimoto>
0.355 

> <ROCS_RefTversky>
0.545 

> <ROCS_RefColorTversky>
0.455 

> <ROCS_RefTverskyCombo>
1.001 

> <ROCS_FitTversky>
0.965 

> <ROCS_FitColorTversky>
0.616 

> <ROCS_FitTverskyCombo>
1.581 

> <ROCS_ColorScore>
-3.143

> <ROCS_Overlap>
899.521

> <ROCS_Rank>
57                  

$$$$
untitled-dbase-34738_54
  -OEChem-10092318153D

 40 40  0     1  0  0  0  0  0999 V2000
   -8.7403   -0.1584  -14.7653 C   0  0  0  0  0  0  0  0  0  0  0  0
   -8.9130   -0.6453  -18.2472 C   0  0  0  0  0  0  0  0  0  0  0  0
   -8.3414   -2.3489  -15.9308 C   0  0  0  0  0  0  0  0  0  0  0  0
   -9.3784   -2.8172  -16.9694 C   0  0  2  0  0  0  0  0  0  0  0  0
   -9.1319   -2.1684  -18.3545 C   0  0  2  0  0  0  0  0  0  0  0  0
   -7.8865   -0.2601  -17.1642 C   0  0  1  0  0  0  0  0  0  0  0  0
  -10.8045   -2.5349  -16.4779 C   0  0  0  0  0  0  0  0  0  0  0  0
   -7.6499    1.2497  -17.1670 C   0  0  0  0  0  0  0  0  0  0  0  0
   -9.8538    0.8278  -12.3138 C   0  0  0  0  0  0  0  0  0  0  0  0
   -9.7031   -1.5459  -11.5062 C   0  0  0  0  0  0  0  0  0  0  0  0
   -7.6119   -0.3006  -12.1264 C   0  0  0  0  0  0  0  0  0  0  0  0
   -9.0965   -0.4940  -12.4323 C   0  0  0  0  0  0  0  0  0  0  0  0
   -8.2846   -0.8794  -15.8807 N   0  0  0  0  0  0  0  0  0  0  0  0
   -7.9724   -2.7813  -19.0157 N   0  0  0  0  0  0  0  0  0  0  0  0
   -8.7252    1.0643  -14.6510 O   0  0  0  0  0  0  0  0  0  0  0  0
   -9.2264   -0.9750  -13.7755 O   0  0  0  0  0  0  0  0  0  0  0  0
   -8.5537   -0.2628  -19.2104 H   0  0  0  0  0  0  0  0  0  0  0  0
   -9.8645   -0.1413  -18.0465 H   0  0  0  0  0  0  0  0  0  0  0  0
   -8.6077   -2.6938  -14.9356 H   0  0  0  0  0  0  0  0  0  0  0  0
   -7.3645   -2.7514  -16.1776 H   0  0  0  0  0  0  0  0  0  0  0  0
   -9.2835   -3.9132  -17.0770 H   0  0  0  0  0  0  0  0  0  0  0  0
  -10.0101   -2.3606  -18.9993 H   0  0  0  0  0  0  0  0  0  0  0  0
   -6.9389   -0.7317  -17.5049 H   0  0  0  0  0  0  0  0  0  0  0  0
  -10.9424   -1.4634  -16.3577 H   0  0  0  0  0  0  0  0  0  0  0  0
  -10.9644   -3.0285  -15.5228 H   0  0  0  0  0  0  0  0  0  0  0  0
  -11.5207   -2.9118  -17.2035 H   0  0  0  0  0  0  0  0  0  0  0  0
   -8.5518    1.7617  -16.8396 H   0  0  0  0  0  0  0  0  0  0  0  0
   -7.3952    1.5778  -18.1721 H   0  0  0  0  0  0  0  0  0  0  0  0
   -6.8330    1.4929  -16.4915 H   0  0  0  0  0  0  0  0  0  0  0  0
   -9.4214    1.5855  -12.9771 H   0  0  0  0  0  0  0  0  0  0  0  0
  -10.9130    0.7097  -12.5648 H   0  0  0  0  0  0  0  0  0  0  0  0
   -9.7819    1.2299  -11.2968 H   0  0  0  0  0  0  0  0  0  0  0  0
   -9.1628   -2.4959  -11.5880 H   0  0  0  0  0  0  0  0  0  0  0  0
  -10.7423   -1.7570  -11.7832 H   0  0  0  0  0  0  0  0  0  0  0  0
   -9.6817   -1.2237  -10.4601 H   0  0  0  0  0  0  0  0  0  0  0  0
   -7.0684   -1.2486  -12.2113 H   0  0  0  0  0  0  0  0  0  0  0  0
   -7.1512    0.4240  -12.8056 H   0  0  0  0  0  0  0  0  0  0  0  0
   -7.4683    0.0470  -11.0969 H   0  0  0  0  0  0  0  0  0  0  0  0
   -8.1493   -3.7524  -19.1062 H   0  0  0  0  0  0  0  0  0  0  0  0
   -7.8675   -2.3564  -19.9050 H   0  0  0  0  0  0  0  0  0  0  0  0
  1 13  1  0  0  0  0
  1 15  2  0  0  0  0
  1 16  1  0  0  0  0
  2  5  1  0  0  0  0
  2  6  1  0  0  0  0
  3  4  1  0  0  0  0
  3 13  1  0  0  0  0
  4  5  1  0  0  0  0
  4  7  1  0  0  0  0
  5 14  1  0  0  0  0
  6  8  1  0  0  0  0
  6 13  1  0  0  0  0
  9 12  1  0  0  0  0
 10 12  1  0  0  0  0
 11 12  1  0  0  0  0
 12 16  1  0  0  0  0
  2 17  1  0  0  0  0
  2 18  1  0  0  0  0
  3 19  1  0  0  0  0
  3 20  1  0  0  0  0
  4 21  1  0  0  0  0
  5 22  1  0  0  0  0
  6 23  1  0  0  0  0
  7 24  1  0  0  0  0
  7 25  1  0  0  0  0
  7 26  1  0  0  0  0
  8 27  1  0  0  0  0
  8 28  1  0  0  0  0
  8 29  1  0  0  0  0
  9 30  1  0  0  0  0
  9 31  1  0  0  0  0
  9 32  1  0  0  0  0
 10 33  1  0  0  0  0
 10 34  1  0  0  0  0
 10 35  1  0  0  0  0
 11 36  1  0  0  0  0
 11 37  1  0  0  0  0
 11 38  1  0  0  0  0
 14 39  1  0  0  0  0
 14 40  1  0  0  0  0
M  END
> <id>
EN300-1653423

> <smiles>
CC1CN(C(C)CC1N)C(=O)OC(C)(C)C

> <MDLNUMBER>
MFCD32761721

> <IUPAC Name>
tert-butyl 4-amino-2,5-dimethylpiperidine-1-carboxylate

> <CAS>
1353101-19-5

> <URL>
https://www.enaminestore.com/catalog/EN300-1653423

> <ROCS_ShapeQuery>
amalgated

> <ROCS_TanimotoCombo>
0.889 

> <ROCS_ShapeTanimoto>
0.558 

> <ROCS_ColorTanimoto>
0.331 

> <ROCS_RefTversky>
0.517 

> <ROCS_RefColorTversky>
0.432 

> <ROCS_RefTverskyCombo>
0.949 

> <ROCS_FitTversky>
1.167 

> <ROCS_FitColorTversky>
0.584 

> <ROCS_FitTverskyCombo>
1.752 

> <ROCS_ColorScore>
-2.981

> <ROCS_Overlap>
847.566

> <ROCS_Rank>
58                  

$$$$
untitled-dbase-45453_48
  -OEChem-10092318153D

 45 47  0     1  0  0  0  0  0999 V2000
   -8.8425   -1.8817  -15.8149 C   0  0  0  0  0  0  0  0  0  0  0  0
   -8.4334   -1.3142  -18.4862 C   0  0  0  0  0  0  0  0  0  0  0  0
   -8.3919   -0.5943  -16.1700 C   0  0  0  0  0  0  0  0  0  0  0  0
   -8.1154   -0.3146  -17.5361 C   0  0  0  0  0  0  0  0  0  0  0  0
   -9.1191   -2.8519  -16.7761 C   0  0  0  0  0  0  0  0  0  0  0  0
   -8.9343   -2.5612  -18.1147 C   0  0  0  0  0  0  0  0  0  0  0  0
   -8.7262    0.4551  -13.8740 C   0  0  0  0  0  0  0  0  0  0  0  0
   -5.6498    2.9786  -18.6893 C   0  0  0  0  0  0  0  0  0  0  0  0
   -6.7478    2.5445  -19.6415 C   0  0  0  0  0  0  0  0  0  0  0  0
   -6.1772    2.9114  -17.2680 C   0  0  0  0  0  0  0  0  0  0  0  0
   -7.2079    1.1242  -19.3407 C   0  0  0  0  0  0  0  0  0  0  0  0
   -7.4352    1.6112  -15.5739 C   0  0  0  0  0  0  0  0  0  0  0  0
   -6.6790    1.5081  -16.8933 C   0  0  1  0  0  0  0  0  0  0  0  0
  -10.9392   -0.1629  -12.1604 C   0  0  0  0  0  0  0  0  0  0  0  0
   -9.6672   -2.2508  -11.5846 C   0  0  0  0  0  0  0  0  0  0  0  0
   -8.6921   -0.0016  -11.0383 C   0  0  0  0  0  0  0  0  0  0  0  0
   -9.5537   -0.7921  -12.0220 C   0  0  0  0  0  0  0  0  0  0  0  0
   -8.1758    0.4211  -15.1773 N   0  0  0  0  0  0  0  0  0  0  0  0
   -7.5401    0.9181  -17.9241 N   0  0  2  0  0  0  0  0  0  0  0  0
   -9.0839    1.4960  -13.3200 O   0  0  0  0  0  0  0  0  0  0  0  0
   -8.9148   -0.7744  -13.3042 O   0  0  0  0  0  0  0  0  0  0  0  0
   -9.5738   -4.0507  -16.3846 F   0  0  0  0  0  0  0  0  0  0  0  0
   -9.3706   -3.8367  -19.4404 Br  0  0  0  0  0  0  0  0  0  0  0  0
   -9.0361   -2.1673  -14.7873 H   0  0  0  0  0  0  0  0  0  0  0  0
   -8.2877   -1.1423  -19.5470 H   0  0  0  0  0  0  0  0  0  0  0  0
   -4.7720    2.3318  -18.8007 H   0  0  0  0  0  0  0  0  0  0  0  0
   -5.3348    4.0010  -18.9234 H   0  0  0  0  0  0  0  0  0  0  0  0
   -7.5973    3.2294  -19.5597 H   0  0  0  0  0  0  0  0  0  0  0  0
   -6.3864    2.6023  -20.6711 H   0  0  0  0  0  0  0  0  0  0  0  0
   -5.3796    3.2133  -16.5737 H   0  0  0  0  0  0  0  0  0  0  0  0
   -6.9855    3.6486  -17.1451 H   0  0  0  0  0  0  0  0  0  0  0  0
   -8.0789    0.9600  -19.9829 H   0  0  0  0  0  0  0  0  0  0  0  0
   -6.4253    0.4141  -19.6341 H   0  0  0  0  0  0  0  0  0  0  0  0
   -6.7069    1.8902  -14.7809 H   0  0  0  0  0  0  0  0  0  0  0  0
   -8.1649    2.4539  -15.5937 H   0  0  0  0  0  0  0  0  0  0  0  0
   -5.8011    0.8583  -16.7577 H   0  0  0  0  0  0  0  0  0  0  0  0
  -10.8621    0.8843  -12.4742 H   0  0  0  0  0  0  0  0  0  0  0  0
  -11.5551   -0.6998  -12.8892 H   0  0  0  0  0  0  0  0  0  0  0  0
  -11.4650   -0.1594  -11.1987 H   0  0  0  0  0  0  0  0  0  0  0  0
   -8.6754   -2.7063  -11.4840 H   0  0  0  0  0  0  0  0  0  0  0  0
  -10.2039   -2.8426  -12.3349 H   0  0  0  0  0  0  0  0  0  0  0  0
  -10.1911   -2.3462  -10.6281 H   0  0  0  0  0  0  0  0  0  0  0  0
   -7.6982   -0.4527  -10.9388 H   0  0  0  0  0  0  0  0  0  0  0  0
   -8.5691    1.0389  -11.3556 H   0  0  0  0  0  0  0  0  0  0  0  0
   -9.1371   -0.0099  -10.0367 H   0  0  0  0  0  0  0  0  0  0  0  0
  1  3  2  0  0  0  0
  1  5  1  0  0  0  0
  2  4  2  0  0  0  0
  2  6  1  0  0  0  0
  3  4  1  0  0  0  0
  3 18  1  0  0  0  0
  4 19  1  0  0  0  0
  5  6  2  0  0  0  0
  5 22  1  0  0  0  0
  6 23  1  0  0  0  0
  7 18  1  0  0  0  0
  7 20  2  0  0  0  0
  7 21  1  0  0  0  0
  8  9  1  0  0  0  0
  8 10  1  0  0  0  0
  9 11  1  0  0  0  0
 10 13  1  0  0  0  0
 11 19  1  0  0  0  0
 12 13  1  0  0  0  0
 12 18  1  0  0  0  0
 13 19  1  0  0  0  0
 14 17  1  0  0  0  0
 15 17  1  0  0  0  0
 16 17  1  0  0  0  0
 17 21  1  0  0  0  0
  1 24  1  0  0  0  0
  2 25  1  0  0  0  0
  8 26  1  0  0  0  0
  8 27  1  0  0  0  0
  9 28  1  0  0  0  0
  9 29  1  0  0  0  0
 10 30  1  0  0  0  0
 10 31  1  0  0  0  0
 11 32  1  0  0  0  0
 11 33  1  0  0  0  0
 12 34  1  0  0  0  0
 12 35  1  0  0  0  0
 13 36  1  0  0  0  0
 14 37  1  0  0  0  0
 14 38  1  0  0  0  0
 14 39  1  0  0  0  0
 15 40  1  0  0  0  0
 15 41  1  0  0  0  0
 15 42  1  0  0  0  0
 16 43  1  0  0  0  0
 16 44  1  0  0  0  0
 16 45  1  0  0  0  0
M  END
> <id>
EN300-28302225

> <smiles>
CC(C)(C)OC(=O)N1CC2CCCCN2C=3C=C(Br)C(F)=CC13

> <IUPAC Name>
tert-butyl 2-bromo-3-fluoro-5H,6H,6aH,7H,8H,9H,10H-pyrido[1,2-a]quinoxaline-5-carboxylate

> <CAS>
2680742-41-8

> <URL>
https://www.enaminestore.com/catalog/EN300-28302225

> <ROCS_ShapeQuery>
amalgated

> <ROCS_TanimotoCombo>
0.888 

> <ROCS_ShapeTanimoto>
0.706 

> <ROCS_ColorTanimoto>
0.182 

> <ROCS_RefTversky>
0.679 

> <ROCS_RefColorTversky>
0.288 

> <ROCS_RefTverskyCombo>
0.967 

> <ROCS_FitTversky>
1.061 

> <ROCS_FitColorTversky>
0.331 

> <ROCS_FitTverskyCombo>
1.391 

> <ROCS_ColorScore>
-2.003

> <ROCS_Overlap>
1125.318

> <ROCS_Rank>
59                  

$$$$
untitled-dbase-438_1
  -OEChem-10092318153D

 40 42  0     1  0  0  0  0  0999 V2000
   -8.1618   -0.3450  -16.4269 C   0  0  0  0  0  0  0  0  0  0  0  0
   -8.9637   -1.1645  -15.7248 C   0  0  0  0  0  0  0  0  0  0  0  0
   -7.7847    0.9712  -15.8336 C   0  0  0  0  0  0  0  0  0  0  0  0
   -7.6617   -0.6896  -17.7999 C   0  0  0  0  0  0  0  0  0  0  0  0
   -9.4336   -2.4735  -16.3207 C   0  0  0  0  0  0  0  0  0  0  0  0
   -7.7670   -0.3441  -12.7079 C   0  0  0  0  0  0  0  0  0  0  0  0
   -9.9619    0.8732  -12.8332 C   0  0  0  0  0  0  0  0  0  0  0  0
   -7.8966   -2.1621  -18.1621 C   0  0  0  0  0  0  0  0  0  0  0  0
   -8.3630   -1.2129  -11.5948 C   0  0  0  0  0  0  0  0  0  0  0  0
  -10.4785   -0.0301  -11.7073 C   0  0  0  0  0  0  0  0  0  0  0  0
   -8.8418    0.2163  -13.6566 C   0  0  0  0  0  0  0  0  0  0  0  0
   -9.5525   -3.9159  -18.2532 C   0  0  0  0  0  0  0  0  0  0  0  0
   -9.8992   -1.2951   -9.7414 C   0  0  0  0  0  0  0  0  0  0  0  0
   -9.3956   -0.8687  -14.4530 N   0  0  0  0  0  0  0  0  0  0  0  0
   -8.2388    1.2128  -14.5525 N   0  0  0  0  0  0  0  0  0  0  0  0
   -9.2550   -2.5646  -17.7814 N   0  0  1  0  0  0  0  0  0  0  0  0
   -9.3824   -0.4755  -10.8372 N   0  0  0  0  0  0  0  0  0  0  0  0
   -7.1351    1.7910  -16.4797 O   0  0  0  0  0  0  0  0  0  0  0  0
   -8.1723   -0.0475  -18.5288 H   0  0  0  0  0  0  0  0  0  0  0  0
   -6.5882   -0.4796  -17.8745 H   0  0  0  0  0  0  0  0  0  0  0  0
   -8.9003   -3.2884  -15.8123 H   0  0  0  0  0  0  0  0  0  0  0  0
  -10.5025   -2.5942  -16.1027 H   0  0  0  0  0  0  0  0  0  0  0  0
   -7.1804    0.4700  -12.2590 H   0  0  0  0  0  0  0  0  0  0  0  0
   -7.0532   -0.9566  -13.2798 H   0  0  0  0  0  0  0  0  0  0  0  0
  -10.8092    1.1171  -13.4915 H   0  0  0  0  0  0  0  0  0  0  0  0
   -9.6188    1.8267  -12.4086 H   0  0  0  0  0  0  0  0  0  0  0  0
   -7.7509   -2.2757  -19.2434 H   0  0  0  0  0  0  0  0  0  0  0  0
   -7.1483   -2.7954  -17.6663 H   0  0  0  0  0  0  0  0  0  0  0  0
   -8.8185   -2.0943  -12.0631 H   0  0  0  0  0  0  0  0  0  0  0  0
   -7.5660   -1.5766  -10.9334 H   0  0  0  0  0  0  0  0  0  0  0  0
  -11.2527    0.4908  -11.1300 H   0  0  0  0  0  0  0  0  0  0  0  0
  -10.9582   -0.9020  -12.1691 H   0  0  0  0  0  0  0  0  0  0  0  0
   -9.4137   -3.9631  -19.3434 H   0  0  0  0  0  0  0  0  0  0  0  0
   -8.8742   -4.6318  -17.7660 H   0  0  0  0  0  0  0  0  0  0  0  0
  -10.5936   -4.1699  -18.0049 H   0  0  0  0  0  0  0  0  0  0  0  0
  -10.6603   -0.7277   -9.1858 H   0  0  0  0  0  0  0  0  0  0  0  0
  -10.3508   -2.2111  -10.1502 H   0  0  0  0  0  0  0  0  0  0  0  0
   -9.0751   -1.5634   -9.0640 H   0  0  0  0  0  0  0  0  0  0  0  0
   -9.9714   -1.5641  -13.9905 H   0  0  0  0  0  0  0  0  0  0  0  0
   -8.1480    2.1615  -14.1994 H   0  0  0  0  0  0  0  0  0  0  0  0
  1  2  2  0  0  0  0
  1  3  1  0  0  0  0
  1  4  1  0  0  0  0
  2  5  1  0  0  0  0
  2 14  1  0  0  0  0
  3 15  1  0  0  0  0
  3 18  2  0  0  0  0
  4  8  1  0  0  0  0
  5 16  1  0  0  0  0
  6  9  1  0  0  0  0
  6 11  1  0  0  0  0
  7 10  1  0  0  0  0
  7 11  1  0  0  0  0
  8 16  1  0  0  0  0
  9 17  1  0  0  0  0
 10 17  1  0  0  0  0
 11 14  1  0  0  0  0
 11 15  1  0  0  0  0
 12 16  1  0  0  0  0
 13 17  1  0  0  0  0
  4 19  1  0  0  0  0
  4 20  1  0  0  0  0
  5 21  1  0  0  0  0
  5 22  1  0  0  0  0
  6 23  1  0  0  0  0
  6 24  1  0  0  0  0
  7 25  1  0  0  0  0
  7 26  1  0  0  0  0
  8 27  1  0  0  0  0
  8 28  1  0  0  0  0
  9 29  1  0  0  0  0
  9 30  1  0  0  0  0
 10 31  1  0  0  0  0
 10 32  1  0  0  0  0
 12 33  1  0  0  0  0
 12 34  1  0  0  0  0
 12 35  1  0  0  0  0
 13 36  1  0  0  0  0
 13 37  1  0  0  0  0
 13 38  1  0  0  0  0
 14 39  1  0  0  0  0
 15 40  1  0  0  0  0
M  END
> <id>
EN300-12218

> <smiles>
CN1CCC2(CC1)NC(=O)C3=C(CN(C)CC3)N2

> <MDLNUMBER>
MFCD06385035

> <IUPAC Name>
1,7'-dimethyl-3',4',5',6',7',8'-hexahydro-1'H-spiro[piperidine-4,2'-pyrido[3,4-d]pyrimidine]-4'-one

> <CAS>
850021-30-6

> <Purity>
95

> <URL>
https://www.enaminestore.com/catalog/EN300-12218

> <ROCS_ShapeQuery>
amalgated

> <ROCS_TanimotoCombo>
0.886 

> <ROCS_ShapeTanimoto>
0.668 

> <ROCS_ColorTanimoto>
0.218 

> <ROCS_RefTversky>
0.607 

> <ROCS_RefColorTversky>
0.403 

> <ROCS_RefTverskyCombo>
1.010 

> <ROCS_FitTversky>
1.176 

> <ROCS_FitColorTversky>
0.321 

> <ROCS_FitTverskyCombo>
1.497 

> <ROCS_ColorScore>
-2.863

> <ROCS_Overlap>
999.606

> <ROCS_Rank>
60                  

$$$$
untitled-dbase-34807_1
  -OEChem-10092318153D

 38 39  0     1  0  0  0  0  0999 V2000
   -8.6286   -0.1455  -14.1532 C   0  0  0  0  0  0  0  0  0  0  0  0
  -10.1813   -2.0243  -17.4245 C   0  0  0  0  0  0  0  0  0  0  0  0
   -9.6719   -0.7280  -18.0726 C   0  0  0  0  0  0  0  0  0  0  0  0
   -8.5990   -2.2442  -15.4618 C   0  0  0  0  0  0  0  0  0  0  0  0
   -7.7687   -0.1196  -16.5200 C   0  0  0  0  0  0  0  0  0  0  0  0
   -8.9195   -2.7258  -16.8869 C   0  0  2  0  0  0  0  0  0  0  0  0
   -8.1445   -0.7530  -17.8715 C   0  0  1  0  0  0  0  0  0  0  0  0
   -7.8093   -2.2496  -17.8329 C   0  0  0  0  0  0  0  0  0  0  0  0
  -10.4020    0.6098  -12.0388 C   0  0  0  0  0  0  0  0  0  0  0  0
   -9.7218   -1.5475  -10.9467 C   0  0  0  0  0  0  0  0  0  0  0  0
   -8.0024    0.2311  -11.3806 C   0  0  0  0  0  0  0  0  0  0  0  0
   -9.2873   -0.4240  -11.8853 C   0  0  0  0  0  0  0  0  0  0  0  0
   -8.4022   -0.7924  -15.3745 N   0  0  0  0  0  0  0  0  0  0  0  0
   -7.9246   -2.8638  -19.1533 N   0  0  0  0  0  0  0  0  0  0  0  0
   -8.4926    1.0637  -13.9754 O   0  0  0  0  0  0  0  0  0  0  0  0
   -9.0281   -1.0084  -13.1670 O   0  0  0  0  0  0  0  0  0  0  0  0
  -10.9190   -1.8259  -16.6400 H   0  0  0  0  0  0  0  0  0  0  0  0
  -10.6711   -2.6461  -18.1830 H   0  0  0  0  0  0  0  0  0  0  0  0
   -9.9174   -0.7301  -19.1412 H   0  0  0  0  0  0  0  0  0  0  0  0
  -10.1400    0.1590  -17.6327 H   0  0  0  0  0  0  0  0  0  0  0  0
   -9.3956   -2.5452  -14.7720 H   0  0  0  0  0  0  0  0  0  0  0  0
   -7.6721   -2.7108  -15.1064 H   0  0  0  0  0  0  0  0  0  0  0  0
   -6.6852   -0.1802  -16.3623 H   0  0  0  0  0  0  0  0  0  0  0  0
   -8.0380    0.9420  -16.5216 H   0  0  0  0  0  0  0  0  0  0  0  0
   -9.0370   -3.8149  -16.8844 H   0  0  0  0  0  0  0  0  0  0  0  0
   -7.6258   -0.2226  -18.6776 H   0  0  0  0  0  0  0  0  0  0  0  0
   -6.8076   -2.4434  -17.4331 H   0  0  0  0  0  0  0  0  0  0  0  0
  -10.0940    1.4179  -12.7118 H   0  0  0  0  0  0  0  0  0  0  0  0
  -11.3186    0.1591  -12.4333 H   0  0  0  0  0  0  0  0  0  0  0  0
  -10.6341    1.0804  -11.0766 H   0  0  0  0  0  0  0  0  0  0  0  0
   -8.9250   -2.2915  -10.8337 H   0  0  0  0  0  0  0  0  0  0  0  0
  -10.5881   -2.0823  -11.3528 H   0  0  0  0  0  0  0  0  0  0  0  0
   -9.9836   -1.1664   -9.9544 H   0  0  0  0  0  0  0  0  0  0  0  0
   -7.2027   -0.5101  -11.2704 H   0  0  0  0  0  0  0  0  0  0  0  0
   -7.6553    1.0154  -12.0611 H   0  0  0  0  0  0  0  0  0  0  0  0
   -8.1537    0.6725  -10.3888 H   0  0  0  0  0  0  0  0  0  0  0  0
   -7.2350   -2.4624  -19.7433 H   0  0  0  0  0  0  0  0  0  0  0  0
   -7.7771   -3.8402  -19.0545 H   0  0  0  0  0  0  0  0  0  0  0  0
  1 13  1  0  0  0  0
  1 15  2  0  0  0  0
  1 16  1  0  0  0  0
  2  3  1  0  0  0  0
  2  6  1  0  0  0  0
  3  7  1  0  0  0  0
  4  6  1  0  0  0  0
  4 13  1  0  0  0  0
  5  7  1  0  0  0  0
  5 13  1  0  0  0  0
  6  8  1  0  0  0  0
  7  8  1  0  0  0  0
  8 14  1  0  0  0  0
  9 12  1  0  0  0  0
 10 12  1  0  0  0  0
 11 12  1  0  0  0  0
 12 16  1  0  0  0  0
  2 17  1  0  0  0  0
  2 18  1  0  0  0  0
  3 19  1  0  0  0  0
  3 20  1  0  0  0  0
  4 21  1  0  0  0  0
  4 22  1  0  0  0  0
  5 23  1  0  0  0  0
  5 24  1  0  0  0  0
  6 25  1  0  0  0  0
  7 26  1  0  0  0  0
  8 27  1  0  0  0  0
  9 28  1  0  0  0  0
  9 29  1  0  0  0  0
  9 30  1  0  0  0  0
 10 31  1  0  0  0  0
 10 32  1  0  0  0  0
 10 33  1  0  0  0  0
 11 34  1  0  0  0  0
 11 35  1  0  0  0  0
 11 36  1  0  0  0  0
 14 37  1  0  0  0  0
 14 38  1  0  0  0  0
M  END
> <id>
EN300-1265923

> <smiles>
CC(C)(C)OC(=O)N1CC2CCC(C1)C2N

> <MDLNUMBER>
MFCD22566230

> <IUPAC Name>
tert-butyl 8-amino-3-azabicyclo[3.2.1]octane-3-carboxylate

> <CAS>
1330763-51-3

> <Purity>
95

> <URL>
https://www.enaminestore.com/catalog/EN300-1265923

> <ROCS_ShapeQuery>
amalgated

> <ROCS_TanimotoCombo>
0.885 

> <ROCS_ShapeTanimoto>
0.562 

> <ROCS_ColorTanimoto>
0.322 

> <ROCS_RefTversky>
0.525 

> <ROCS_RefColorTversky>
0.574 

> <ROCS_RefTverskyCombo>
1.099 

> <ROCS_FitTversky>
1.145 

> <ROCS_FitColorTversky>
0.424 

> <ROCS_FitTverskyCombo>
1.569 

> <ROCS_ColorScore>
-4.098

> <ROCS_Overlap>
861.376

> <ROCS_Rank>
61                  

$$$$
untitled-dbase-17178_1
  -OEChem-10092318153D

 30 32  0     0  0  0  0  0  0999 V2000
   -8.4121   -1.3625  -18.3810 C   0  0  0  0  0  0  0  0  0  0  0  0
   -8.8462   -2.6112  -17.9060 C   0  0  0  0  0  0  0  0  0  0  0  0
   -8.2244   -0.2961  -17.5020 C   0  0  0  0  0  0  0  0  0  0  0  0
   -9.0983   -2.8093  -16.5445 C   0  0  0  0  0  0  0  0  0  0  0  0
   -8.4816   -0.5232  -16.1623 C   0  0  0  0  0  0  0  0  0  0  0  0
   -8.9110   -1.7484  -15.6726 C   0  0  0  0  0  0  0  0  0  0  0  0
   -8.3672    0.4048  -15.0489 C   0  0  0  0  0  0  0  0  0  0  0  0
   -9.1209   -1.7477  -14.1906 C   0  0  0  0  0  0  0  0  0  0  0  0
   -9.9615    0.4282  -13.1171 C   0  0  0  0  0  0  0  0  0  0  0  0
   -7.5699   -0.2721  -12.7727 C   0  0  0  0  0  0  0  0  0  0  0  0
  -10.2595   -0.0798  -11.7054 C   0  0  0  0  0  0  0  0  0  0  0  0
   -7.9658   -0.7523  -11.3754 C   0  0  0  0  0  0  0  0  0  0  0  0
   -8.7594   -0.2959  -13.7489 C   0  0  0  0  0  0  0  0  0  0  0  0
   -9.0871    0.0179  -10.8339 N   0  0  0  0  0  0  0  0  0  0  0  0
   -8.0084    1.5626  -15.1746 O   0  0  0  0  0  0  0  0  0  0  0  0
   -8.2212   -1.2284  -19.4424 H   0  0  0  0  0  0  0  0  0  0  0  0
   -8.9855   -3.4317  -18.6049 H   0  0  0  0  0  0  0  0  0  0  0  0
   -7.8910    0.6692  -17.8649 H   0  0  0  0  0  0  0  0  0  0  0  0
   -9.4316   -3.7773  -16.1847 H   0  0  0  0  0  0  0  0  0  0  0  0
  -10.1578   -2.0045  -13.9569 H   0  0  0  0  0  0  0  0  0  0  0  0
   -8.4611   -2.4897  -13.7309 H   0  0  0  0  0  0  0  0  0  0  0  0
  -10.8499    0.2651  -13.7347 H   0  0  0  0  0  0  0  0  0  0  0  0
   -9.7867    1.5061  -13.0775 H   0  0  0  0  0  0  0  0  0  0  0  0
   -7.1542    0.7348  -12.6990 H   0  0  0  0  0  0  0  0  0  0  0  0
   -6.7796   -0.9264  -13.1502 H   0  0  0  0  0  0  0  0  0  0  0  0
  -11.1057    0.4624  -11.2656 H   0  0  0  0  0  0  0  0  0  0  0  0
  -10.5632   -1.1320  -11.7647 H   0  0  0  0  0  0  0  0  0  0  0  0
   -8.2623   -1.8059  -11.4351 H   0  0  0  0  0  0  0  0  0  0  0  0
   -7.1113   -0.7089  -10.6900 H   0  0  0  0  0  0  0  0  0  0  0  0
   -8.8129    0.9945  -10.7489 H   0  0  0  0  0  0  0  0  0  0  0  0
  1  2  2  0  0  0  0
  1  3  1  0  0  0  0
  2  4  1  0  0  0  0
  3  5  2  0  0  0  0
  4  6  2  0  0  0  0
  5  6  1  0  0  0  0
  5  7  1  0  0  0  0
  6  8  1  0  0  0  0
  7 13  1  0  0  0  0
  7 15  2  0  0  0  0
  8 13  1  0  0  0  0
  9 11  1  0  0  0  0
  9 13  1  0  0  0  0
 10 12  1  0  0  0  0
 10 13  1  0  0  0  0
 11 14  1  0  0  0  0
 12 14  1  0  0  0  0
  1 16  1  0  0  0  0
  2 17  1  0  0  0  0
  3 18  1  0  0  0  0
  4 19  1  0  0  0  0
  8 20  1  0  0  0  0
  8 21  1  0  0  0  0
  9 22  1  0  0  0  0
  9 23  1  0  0  0  0
 10 24  1  0  0  0  0
 10 25  1  0  0  0  0
 11 26  1  0  0  0  0
 11 27  1  0  0  0  0
 12 28  1  0  0  0  0
 12 29  1  0  0  0  0
 14 30  1  0  0  0  0
M  END
> <id>
EN300-103838

> <smiles>
O=C1C=2C=CC=CC2CC31CCNCC3

> <MDLNUMBER>
MFCD16660761

> <IUPAC Name>
1,3-dihydrospiro[indene-2,4'-piperidine]-3-one

> <CAS>
136080-25-6

> <URL>
https://www.enaminestore.com/catalog/EN300-103838

> <ROCS_ShapeQuery>
amalgated

> <ROCS_TanimotoCombo>
0.885 

> <ROCS_ShapeTanimoto>
0.548 

> <ROCS_ColorTanimoto>
0.336 

> <ROCS_RefTversky>
0.512 

> <ROCS_RefColorTversky>
0.471 

> <ROCS_RefTverskyCombo>
0.983 

> <ROCS_FitTversky>
1.149 

> <ROCS_FitColorTversky>
0.540 

> <ROCS_FitTverskyCombo>
1.689 

> <ROCS_ColorScore>
-3.275

> <ROCS_Overlap>
839.631

> <ROCS_Rank>
62                  

$$$$
untitled-dbase-36204_1
  -OEChem-10092318153D

 30 32  0     0  0  0  0  0  0999 V2000
   -8.4121   -1.3625  -18.3810 C   0  0  0  0  0  0  0  0  0  0  0  0
   -8.8462   -2.6112  -17.9060 C   0  0  0  0  0  0  0  0  0  0  0  0
   -8.2244   -0.2961  -17.5020 C   0  0  0  0  0  0  0  0  0  0  0  0
   -9.0983   -2.8093  -16.5445 C   0  0  0  0  0  0  0  0  0  0  0  0
   -8.4816   -0.5232  -16.1623 C   0  0  0  0  0  0  0  0  0  0  0  0
   -8.9110   -1.7484  -15.6726 C   0  0  0  0  0  0  0  0  0  0  0  0
   -8.3672    0.4048  -15.0489 C   0  0  0  0  0  0  0  0  0  0  0  0
   -9.1209   -1.7477  -14.1906 C   0  0  0  0  0  0  0  0  0  0  0  0
   -9.9615    0.4282  -13.1171 C   0  0  0  0  0  0  0  0  0  0  0  0
   -7.5699   -0.2721  -12.7727 C   0  0  0  0  0  0  0  0  0  0  0  0
  -10.2595   -0.0798  -11.7054 C   0  0  0  0  0  0  0  0  0  0  0  0
   -7.9658   -0.7523  -11.3754 C   0  0  0  0  0  0  0  0  0  0  0  0
   -8.7594   -0.2959  -13.7489 C   0  0  0  0  0  0  0  0  0  0  0  0
   -9.0871    0.0179  -10.8339 N   0  0  0  0  0  0  0  0  0  0  0  0
   -8.0084    1.5626  -15.1746 O   0  0  0  0  0  0  0  0  0  0  0  0
   -8.2212   -1.2284  -19.4424 H   0  0  0  0  0  0  0  0  0  0  0  0
   -8.9855   -3.4317  -18.6049 H   0  0  0  0  0  0  0  0  0  0  0  0
   -7.8910    0.6692  -17.8649 H   0  0  0  0  0  0  0  0  0  0  0  0
   -9.4316   -3.7773  -16.1847 H   0  0  0  0  0  0  0  0  0  0  0  0
  -10.1578   -2.0045  -13.9569 H   0  0  0  0  0  0  0  0  0  0  0  0
   -8.4611   -2.4897  -13.7309 H   0  0  0  0  0  0  0  0  0  0  0  0
  -10.8499    0.2651  -13.7347 H   0  0  0  0  0  0  0  0  0  0  0  0
   -9.7867    1.5061  -13.0775 H   0  0  0  0  0  0  0  0  0  0  0  0
   -7.1542    0.7348  -12.6990 H   0  0  0  0  0  0  0  0  0  0  0  0
   -6.7796   -0.9264  -13.1502 H   0  0  0  0  0  0  0  0  0  0  0  0
  -11.1057    0.4624  -11.2656 H   0  0  0  0  0  0  0  0  0  0  0  0
  -10.5632   -1.1320  -11.7647 H   0  0  0  0  0  0  0  0  0  0  0  0
   -8.2623   -1.8059  -11.4351 H   0  0  0  0  0  0  0  0  0  0  0  0
   -7.1113   -0.7089  -10.6900 H   0  0  0  0  0  0  0  0  0  0  0  0
   -8.8129    0.9945  -10.7489 H   0  0  0  0  0  0  0  0  0  0  0  0
  1  2  2  0  0  0  0
  1  3  1  0  0  0  0
  2  4  1  0  0  0  0
  3  5  2  0  0  0  0
  4  6  2  0  0  0  0
  5  6  1  0  0  0  0
  5  7  1  0  0  0  0
  6  8  1  0  0  0  0
  7 13  1  0  0  0  0
  7 15  2  0  0  0  0
  8 13  1  0  0  0  0
  9 11  1  0  0  0  0
  9 13  1  0  0  0  0
 10 12  1  0  0  0  0
 10 13  1  0  0  0  0
 11 14  1  0  0  0  0
 12 14  1  0  0  0  0
  1 16  1  0  0  0  0
  2 17  1  0  0  0  0
  3 18  1  0  0  0  0
  4 19  1  0  0  0  0
  8 20  1  0  0  0  0
  8 21  1  0  0  0  0
  9 22  1  0  0  0  0
  9 23  1  0  0  0  0
 10 24  1  0  0  0  0
 10 25  1  0  0  0  0
 11 26  1  0  0  0  0
 11 27  1  0  0  0  0
 12 28  1  0  0  0  0
 12 29  1  0  0  0  0
 14 30  1  0  0  0  0
M  END
> <id>
EN300-1700263

> <smiles>
Cl.O=C1C=2C=CC=CC2CC31CCNCC3

> <MDLNUMBER>
MFCD18711589

> <IUPAC Name>
1,3-dihydrospiro[indene-2,4'-piperidine]-3-one hydrochloride

> <CAS>
185525-49-9

> <Purity>
95

> <URL>
https://www.enaminestore.com/catalog/EN300-1700263

> <Saltdate>
Cl

> <ROCS_ShapeQuery>
amalgated

> <ROCS_TanimotoCombo>
0.885 

> <ROCS_ShapeTanimoto>
0.548 

> <ROCS_ColorTanimoto>
0.336 

> <ROCS_RefTversky>
0.512 

> <ROCS_RefColorTversky>
0.471 

> <ROCS_RefTverskyCombo>
0.983 

> <ROCS_FitTversky>
1.149 

> <ROCS_FitColorTversky>
0.540 

> <ROCS_FitTverskyCombo>
1.689 

> <ROCS_ColorScore>
-3.275

> <ROCS_Overlap>
839.631

> <ROCS_Rank>
63                  

$$$$
untitled-dbase-40452_2
  -OEChem-10092318153D

 34 34  0     1  0  0  0  0  0999 V2000
   -8.3619   -0.3871  -14.6003 C   0  0  0  0  0  0  0  0  0  0  0  0
   -8.7157   -0.5647  -18.2286 C   0  0  0  0  0  0  0  0  0  0  0  0
   -7.8000   -0.3925  -17.0157 C   0  0  0  0  0  0  0  0  0  0  0  0
   -8.7227   -2.4661  -15.9903 C   0  0  0  0  0  0  0  0  0  0  0  0
   -9.0960   -2.0295  -18.4834 C   0  0  2  0  0  0  0  0  0  0  0  0
   -9.6324   -2.6530  -17.1952 C   0  0  0  0  0  0  0  0  0  0  0  0
   -9.8095    0.7305  -12.3987 C   0  0  0  0  0  0  0  0  0  0  0  0
   -9.5789   -1.5344  -11.3373 C   0  0  0  0  0  0  0  0  0  0  0  0
   -7.5269   -0.1851  -11.8637 C   0  0  0  0  0  0  0  0  0  0  0  0
   -8.9503   -0.5292  -12.3000 C   0  0  0  0  0  0  0  0  0  0  0  0
   -8.3404   -1.0581  -15.8285 N   0  0  0  0  0  0  0  0  0  0  0  0
   -7.9507   -2.7776  -19.0053 N   0  0  0  0  0  0  0  0  0  0  0  0
   -7.9487    0.7586  -14.4295 O   0  0  0  0  0  0  0  0  0  0  0  0
   -8.8949   -1.1455  -13.5918 O   0  0  0  0  0  0  0  0  0  0  0  0
  -10.8427   -2.0953  -16.9126 F   0  0  0  0  0  0  0  0  0  0  0  0
   -9.8683   -3.9766  -17.3837 F   0  0  0  0  0  0  0  0  0  0  0  0
   -9.6271    0.0408  -18.0805 H   0  0  0  0  0  0  0  0  0  0  0  0
   -8.2136   -0.1412  -19.1179 H   0  0  0  0  0  0  0  0  0  0  0  0
   -6.7994   -0.7728  -17.2507 H   0  0  0  0  0  0  0  0  0  0  0  0
   -7.6927    0.6715  -16.7682 H   0  0  0  0  0  0  0  0  0  0  0  0
   -9.2344   -2.7752  -15.0713 H   0  0  0  0  0  0  0  0  0  0  0  0
   -7.8424   -3.1057  -16.0978 H   0  0  0  0  0  0  0  0  0  0  0  0
   -9.8949   -2.0612  -19.2447 H   0  0  0  0  0  0  0  0  0  0  0  0
   -9.3617    1.4545  -13.0888 H   0  0  0  0  0  0  0  0  0  0  0  0
  -10.8229    0.5015  -12.7443 H   0  0  0  0  0  0  0  0  0  0  0  0
   -9.8804    1.2326  -11.4271 H   0  0  0  0  0  0  0  0  0  0  0  0
   -8.9657   -2.4398  -11.2634 H   0  0  0  0  0  0  0  0  0  0  0  0
  -10.5629   -1.8564  -11.6969 H   0  0  0  0  0  0  0  0  0  0  0  0
   -9.6973   -1.1130  -10.3338 H   0  0  0  0  0  0  0  0  0  0  0  0
   -6.9104   -1.0885  -11.7928 H   0  0  0  0  0  0  0  0  0  0  0  0
   -7.0469    0.5068  -12.5633 H   0  0  0  0  0  0  0  0  0  0  0  0
   -7.5243    0.2700  -10.8667 H   0  0  0  0  0  0  0  0  0  0  0  0
   -8.2421   -3.7106  -19.1750 H   0  0  0  0  0  0  0  0  0  0  0  0
   -7.6554   -2.3427  -19.8467 H   0  0  0  0  0  0  0  0  0  0  0  0
  1 11  1  0  0  0  0
  1 13  2  0  0  0  0
  1 14  1  0  0  0  0
  2  3  1  0  0  0  0
  2  5  1  0  0  0  0
  3 11  1  0  0  0  0
  4  6  1  0  0  0  0
  4 11  1  0  0  0  0
  5  6  1  0  0  0  0
  5 12  1  0  0  0  0
  6 15  1  0  0  0  0
  6 16  1  0  0  0  0
  7 10  1  0  0  0  0
  8 10  1  0  0  0  0
  9 10  1  0  0  0  0
 10 14  1  0  0  0  0
  2 17  1  0  0  0  0
  2 18  1  0  0  0  0
  3 19  1  0  0  0  0
  3 20  1  0  0  0  0
  4 21  1  0  0  0  0
  4 22  1  0  0  0  0
  5 23  1  0  0  0  0
  7 24  1  0  0  0  0
  7 25  1  0  0  0  0
  7 26  1  0  0  0  0
  8 27  1  0  0  0  0
  8 28  1  0  0  0  0
  8 29  1  0  0  0  0
  9 30  1  0  0  0  0
  9 31  1  0  0  0  0
  9 32  1  0  0  0  0
 12 33  1  0  0  0  0
 12 34  1  0  0  0  0
M  END
> <id>
EN300-316673

> <smiles>
CC(C)(C)OC(=O)N1CCC(N)C(F)(F)C1

> <MDLNUMBER>
MFCD16250242

> <IUPAC Name>
tert-butyl 4-amino-3,3-difluoropiperidine-1-carboxylate

> <CAS>
1255666-48-8

> <Purity>
95

> <URL>
https://www.enaminestore.com/catalog/EN300-316673

> <ROCS_ShapeQuery>
amalgated

> <ROCS_TanimotoCombo>
0.884 

> <ROCS_ShapeTanimoto>
0.554 

> <ROCS_ColorTanimoto>
0.330 

> <ROCS_RefTversky>
0.519 

> <ROCS_RefColorTversky>
0.431 

> <ROCS_RefTverskyCombo>
0.950 

> <ROCS_FitTversky>
1.138 

> <ROCS_FitColorTversky>
0.584 

> <ROCS_FitTverskyCombo>
1.722 

> <ROCS_ColorScore>
-2.977

> <ROCS_Overlap>
851.162

> <ROCS_Rank>
64                  

$$$$
untitled-dbase-2069_196
  -OEChem-10092318153D

 41 42  0     1  0  0  0  0  0999 V2000
   -8.4521    0.1130  -14.8908 C   0  0  0  0  0  0  0  0  0  0  0  0
   -6.6482    1.4409  -17.5463 C   0  0  0  0  0  0  0  0  0  0  0  0
   -6.7091   -0.0222  -18.0258 C   0  0  0  0  0  0  0  0  0  0  0  0
   -8.1813    1.4669  -17.6726 C   0  0  0  0  0  0  0  0  0  0  0  0
   -9.1250   -2.8098  -16.8309 C   0  0  0  0  0  0  0  0  0  0  0  0
   -9.2438   -0.7729  -18.3199 C   0  0  0  0  0  0  0  0  0  0  0  0
   -8.0595   -2.1161  -15.9879 C   0  0  0  0  0  0  0  0  0  0  0  0
   -9.1460   -2.3043  -18.2763 C   0  0  1  0  0  0  0  0  0  0  0  0
   -8.1742   -0.0813  -17.4623 C   0  0  0  0  0  0  0  0  0  0  0  0
   -9.2129    1.2413  -12.3662 C   0  0  0  0  0  0  0  0  0  0  0  0
   -9.7049   -1.1210  -11.6685 C   0  0  0  0  0  0  0  0  0  0  0  0
   -7.3630   -0.4638  -12.2943 C   0  0  0  0  0  0  0  0  0  0  0  0
   -8.8484   -0.2293  -12.5648 C   0  0  0  0  0  0  0  0  0  0  0  0
   -8.2235   -0.6483  -16.0510 N   0  0  0  0  0  0  0  0  0  0  0  0
   -7.9669   -2.7744  -19.0048 N   0  0  0  0  0  0  0  0  0  0  0  0
   -8.1019    1.2772  -14.7218 O   0  0  0  0  0  0  0  0  0  0  0  0
   -9.1269   -0.5884  -13.9236 O   0  0  0  0  0  0  0  0  0  0  0  0
   -6.2525    1.5940  -16.5396 H   0  0  0  0  0  0  0  0  0  0  0  0
   -6.1309    2.1157  -18.2366 H   0  0  0  0  0  0  0  0  0  0  0  0
   -6.6019   -0.1667  -19.1018 H   0  0  0  0  0  0  0  0  0  0  0  0
   -5.9794   -0.6484  -17.5040 H   0  0  0  0  0  0  0  0  0  0  0  0
   -8.6708    2.0327  -16.8677 H   0  0  0  0  0  0  0  0  0  0  0  0
   -8.5577    1.8412  -18.6300 H   0  0  0  0  0  0  0  0  0  0  0  0
   -8.9431   -3.8985  -16.8091 H   0  0  0  0  0  0  0  0  0  0  0  0
  -10.1125   -2.6570  -16.3647 H   0  0  0  0  0  0  0  0  0  0  0  0
   -9.1522   -0.4167  -19.3675 H   0  0  0  0  0  0  0  0  0  0  0  0
  -10.2589   -0.4603  -18.0006 H   0  0  0  0  0  0  0  0  0  0  0  0
   -8.1394   -2.4182  -14.9318 H   0  0  0  0  0  0  0  0  0  0  0  0
   -7.0595   -2.4242  -16.3245 H   0  0  0  0  0  0  0  0  0  0  0  0
  -10.0328   -2.7295  -18.7706 H   0  0  0  0  0  0  0  0  0  0  0  0
   -8.6003    1.8847  -13.0079 H   0  0  0  0  0  0  0  0  0  0  0  0
  -10.2678    1.4293  -12.5909 H   0  0  0  0  0  0  0  0  0  0  0  0
   -9.0171    1.5568  -11.3350 H   0  0  0  0  0  0  0  0  0  0  0  0
   -9.4467   -2.1770  -11.8077 H   0  0  0  0  0  0  0  0  0  0  0  0
  -10.7665   -1.0265  -11.9239 H   0  0  0  0  0  0  0  0  0  0  0  0
   -9.5791   -0.8700  -10.6103 H   0  0  0  0  0  0  0  0  0  0  0  0
   -7.1013   -1.5185  -12.4367 H   0  0  0  0  0  0  0  0  0  0  0  0
   -6.7324    0.1408  -12.9542 H   0  0  0  0  0  0  0  0  0  0  0  0
   -7.1130   -0.2208  -11.2552 H   0  0  0  0  0  0  0  0  0  0  0  0
   -7.9560   -3.7653  -18.9668 H   0  0  0  0  0  0  0  0  0  0  0  0
   -8.0382   -2.4583  -19.9421 H   0  0  0  0  0  0  0  0  0  0  0  0
  1 14  1  0  0  0  0
  1 16  2  0  0  0  0
  1 17  1  0  0  0  0
  2  3  1  0  0  0  0
  2  4  1  0  0  0  0
  3  9  1  0  0  0  0
  4  9  1  0  0  0  0
  5  7  1  0  0  0  0
  5  8  1  0  0  0  0
  6  8  1  0  0  0  0
  6  9  1  0  0  0  0
  7 14  1  0  0  0  0
  8 15  1  0  0  0  0
  9 14  1  0  0  0  0
 10 13  1  0  0  0  0
 11 13  1  0  0  0  0
 12 13  1  0  0  0  0
 13 17  1  0  0  0  0
  2 18  1  0  0  0  0
  2 19  1  0  0  0  0
  3 20  1  0  0  0  0
  3 21  1  0  0  0  0
  4 22  1  0  0  0  0
  4 23  1  0  0  0  0
  5 24  1  0  0  0  0
  5 25  1  0  0  0  0
  6 26  1  0  0  0  0
  6 27  1  0  0  0  0
  7 28  1  0  0  0  0
  7 29  1  0  0  0  0
  8 30  1  0  0  0  0
 10 31  1  0  0  0  0
 10 32  1  0  0  0  0
 10 33  1  0  0  0  0
 11 34  1  0  0  0  0
 11 35  1  0  0  0  0
 11 36  1  0  0  0  0
 12 37  1  0  0  0  0
 12 38  1  0  0  0  0
 12 39  1  0  0  0  0
 15 40  1  0  0  0  0
 15 41  1  0  0  0  0
M  END
> <id>
EN300-26948

> <smiles>
CC(C)(C)OC(=O)N1CCC(N)CC21CCC2

> <MDLNUMBER>
MFCD09040608

> <IUPAC Name>
tert-butyl 8-amino-5-azaspiro[3.5]nonane-5-carboxylate

> <CAS>
778646-91-6

> <Purity>
95

> <URL>
https://www.enaminestore.com/catalog/EN300-26948

> <ROCS_ShapeQuery>
amalgated

> <ROCS_TanimotoCombo>
0.883 

> <ROCS_ShapeTanimoto>
0.578 

> <ROCS_ColorTanimoto>
0.305 

> <ROCS_RefTversky>
0.541 

> <ROCS_RefColorTversky>
0.438 

> <ROCS_RefTverskyCombo>
0.979 

> <ROCS_FitTversky>
1.133 

> <ROCS_FitColorTversky>
0.503 

> <ROCS_FitTverskyCombo>
1.636 

> <ROCS_ColorScore>
-3.042

> <ROCS_Overlap>
888.917

> <ROCS_Rank>
65                  

$$$$
untitled-dbase-28340_246
  -OEChem-10092318153D

 33 34  0     0  0  0  0  0  0999 V2000
   -9.5292   -0.6394  -15.5703 C   0  0  0  0  0  0  0  0  0  0  0  0
   -8.7023    0.2817  -14.7663 C   0  0  0  0  0  0  0  0  0  0  0  0
   -7.7329   -1.2686  -18.7411 C   0  0  0  0  0  0  0  0  0  0  0  0
   -9.2820   -3.0602  -18.2948 C   0  0  0  0  0  0  0  0  0  0  0  0
   -7.6696   -0.9077  -17.2586 C   0  0  0  0  0  0  0  0  0  0  0  0
   -9.2534   -2.7537  -16.8006 C   0  0  0  0  0  0  0  0  0  0  0  0
   -8.4425    1.2258  -12.5045 C   0  0  0  0  0  0  0  0  0  0  0  0
   -8.6379   -1.2122  -12.6908 C   0  0  0  0  0  0  0  0  0  0  0  0
   -9.4160    1.1684  -11.3349 C   0  0  0  0  0  0  0  0  0  0  0  0
   -9.6055   -1.1765  -11.5145 C   0  0  0  0  0  0  0  0  0  0  0  0
   -8.0226   -2.6886  -18.9392 N   0  0  0  0  0  0  0  0  0  0  0  0
   -8.8625   -1.3702  -16.5439 N   0  0  0  0  0  0  0  0  0  0  0  0
   -8.6482    0.0791  -13.3912 N   0  0  0  0  0  0  0  0  0  0  0  0
  -10.7198   -0.6654  -15.2871 O   0  0  0  0  0  0  0  0  0  0  0  0
   -8.1045    1.1784  -15.3644 O   0  0  0  0  0  0  0  0  0  0  0  0
   -9.2946   -0.0807  -10.6492 O   0  0  0  0  0  0  0  0  0  0  0  0
   -8.4901   -0.6561  -19.2461 H   0  0  0  0  0  0  0  0  0  0  0  0
   -6.7697   -1.0358  -19.2082 H   0  0  0  0  0  0  0  0  0  0  0  0
   -9.4501   -4.1331  -18.4382 H   0  0  0  0  0  0  0  0  0  0  0  0
  -10.1197   -2.5376  -18.7728 H   0  0  0  0  0  0  0  0  0  0  0  0
   -6.8077   -1.3923  -16.7839 H   0  0  0  0  0  0  0  0  0  0  0  0
   -7.5366    0.1722  -17.1525 H   0  0  0  0  0  0  0  0  0  0  0  0
  -10.2316   -2.9638  -16.3553 H   0  0  0  0  0  0  0  0  0  0  0  0
   -8.5198   -3.3924  -16.2932 H   0  0  0  0  0  0  0  0  0  0  0  0
   -8.5538    2.1655  -13.0542 H   0  0  0  0  0  0  0  0  0  0  0  0
   -7.4094    1.1612  -12.1433 H   0  0  0  0  0  0  0  0  0  0  0  0
   -7.6122   -1.3645  -12.3349 H   0  0  0  0  0  0  0  0  0  0  0  0
   -8.8908   -2.0367  -13.3615 H   0  0  0  0  0  0  0  0  0  0  0  0
   -9.1852    1.9634  -10.6190 H   0  0  0  0  0  0  0  0  0  0  0  0
  -10.4520    1.3083  -11.6655 H   0  0  0  0  0  0  0  0  0  0  0  0
  -10.6461   -1.0975  -11.8507 H   0  0  0  0  0  0  0  0  0  0  0  0
   -9.5138   -2.0968  -10.9292 H   0  0  0  0  0  0  0  0  0  0  0  0
   -8.0831   -2.8850  -19.9378 H   0  0  0  0  0  0  0  0  0  0  0  0
  1  2  1  0  0  0  0
  1 12  1  0  0  0  0
  1 14  2  0  0  0  0
  2 13  1  0  0  0  0
  2 15  2  0  0  0  0
  3  5  1  0  0  0  0
  3 11  1  0  0  0  0
  4  6  1  0  0  0  0
  4 11  1  0  0  0  0
  5 12  1  0  0  0  0
  6 12  1  0  0  0  0
  7  9  1  0  0  0  0
  7 13  1  0  0  0  0
  8 10  1  0  0  0  0
  8 13  1  0  0  0  0
  9 16  1  0  0  0  0
 10 16  1  0  0  0  0
  3 17  1  0  0  0  0
  3 18  1  0  0  0  0
  4 19  1  0  0  0  0
  4 20  1  0  0  0  0
  5 21  1  0  0  0  0
  5 22  1  0  0  0  0
  6 23  1  0  0  0  0
  6 24  1  0  0  0  0
  7 25  1  0  0  0  0
  7 26  1  0  0  0  0
  8 27  1  0  0  0  0
  8 28  1  0  0  0  0
  9 29  1  0  0  0  0
  9 30  1  0  0  0  0
 10 31  1  0  0  0  0
 10 32  1  0  0  0  0
 11 33  1  0  0  0  0
M  END
> <id>
EN300-23599

> <smiles>
O=C(N1CCNCC1)C(=O)N2CCOCC2

> <MDLNUMBER>
MFCD07838439

> <IUPAC Name>
1-(morpholin-4-yl)-2-(piperazin-1-yl)ethane-1,2-dione

> <CAS>
875164-29-7

> <Purity>
95

> <URL>
https://www.enaminestore.com/catalog/EN300-23599

> <ROCS_ShapeQuery>
amalgated

> <ROCS_TanimotoCombo>
0.883 

> <ROCS_ShapeTanimoto>
0.551 

> <ROCS_ColorTanimoto>
0.332 

> <ROCS_RefTversky>
0.518 

> <ROCS_RefColorTversky>
0.498 

> <ROCS_RefTverskyCombo>
1.016 

> <ROCS_FitTversky>
1.130 

> <ROCS_FitColorTversky>
0.498 

> <ROCS_FitTverskyCombo>
1.629 

> <ROCS_ColorScore>
-3.488

> <ROCS_Overlap>
849.654

> <ROCS_Rank>
66                  

$$$$
untitled-dbase-30766_0
  -OEChem-10092318153D

 31 33  0     0  0  0  0  0  0999 V2000
   -8.8806   -2.6464  -17.7265 C   0  0  0  0  0  0  0  0  0  0  0  0
   -7.9770   -1.6503  -18.1275 C   0  0  0  0  0  0  0  0  0  0  0  0
   -9.5511   -2.5482  -16.5057 C   0  0  0  0  0  0  0  0  0  0  0  0
   -7.7322   -0.5429  -17.3130 C   0  0  0  0  0  0  0  0  0  0  0  0
   -9.2925   -1.4518  -15.6996 C   0  0  0  0  0  0  0  0  0  0  0  0
   -8.3934   -0.4606  -16.0987 C   0  0  0  0  0  0  0  0  0  0  0  0
   -9.9099   -1.1193  -14.3767 C   0  0  0  0  0  0  0  0  0  0  0  0
   -8.3195    0.6381  -15.0859 C   0  0  0  0  0  0  0  0  0  0  0  0
   -9.6958    1.0181  -12.9769 C   0  0  0  0  0  0  0  0  0  0  0  0
   -7.8304   -0.6556  -12.9421 C   0  0  0  0  0  0  0  0  0  0  0  0
  -10.1677    0.4505  -11.6388 C   0  0  0  0  0  0  0  0  0  0  0  0
   -8.3479   -1.1391  -11.5849 C   0  0  0  0  0  0  0  0  0  0  0  0
   -8.9430   -0.0270  -13.8221 C   0  0  0  0  0  0  0  0  0  0  0  0
   -9.0465   -0.0771  -10.8637 N   0  0  0  0  0  0  0  0  0  0  0  0
   -9.0630   -3.4986  -18.3756 H   0  0  0  0  0  0  0  0  0  0  0  0
   -7.4683   -1.7403  -19.0835 H   0  0  0  0  0  0  0  0  0  0  0  0
  -10.2567   -3.3140  -16.2020 H   0  0  0  0  0  0  0  0  0  0  0  0
   -7.0415    0.2312  -17.6295 H   0  0  0  0  0  0  0  0  0  0  0  0
  -10.9173   -0.7219  -14.5444 H   0  0  0  0  0  0  0  0  0  0  0  0
   -9.9740   -2.0021  -13.7354 H   0  0  0  0  0  0  0  0  0  0  0  0
   -7.2897    0.9691  -14.9194 H   0  0  0  0  0  0  0  0  0  0  0  0
   -8.9199    1.4864  -15.4342 H   0  0  0  0  0  0  0  0  0  0  0  0
  -10.5601    1.4072  -13.5291 H   0  0  0  0  0  0  0  0  0  0  0  0
   -9.0383    1.8779  -12.7886 H   0  0  0  0  0  0  0  0  0  0  0  0
   -7.0438    0.0908  -12.7650 H   0  0  0  0  0  0  0  0  0  0  0  0
   -7.3478   -1.4926  -13.4613 H   0  0  0  0  0  0  0  0  0  0  0  0
  -10.6526    1.2440  -11.0594 H   0  0  0  0  0  0  0  0  0  0  0  0
  -10.9216   -0.3308  -11.7903 H   0  0  0  0  0  0  0  0  0  0  0  0
   -9.0064   -2.0070  -11.7002 H   0  0  0  0  0  0  0  0  0  0  0  0
   -7.5012   -1.4780  -10.9774 H   0  0  0  0  0  0  0  0  0  0  0  0
   -8.3899    0.6806  -10.6743 H   0  0  0  0  0  0  0  0  0  0  0  0
  1  2  2  0  0  0  0
  1  3  1  0  0  0  0
  2  4  1  0  0  0  0
  3  5  2  0  0  0  0
  4  6  2  0  0  0  0
  5  6  1  0  0  0  0
  5  7  1  0  0  0  0
  6  8  1  0  0  0  0
  7 13  1  0  0  0  0
  8 13  1  0  0  0  0
  9 11  1  0  0  0  0
  9 13  1  0  0  0  0
 10 12  1  0  0  0  0
 10 13  1  0  0  0  0
 11 14  1  0  0  0  0
 12 14  1  0  0  0  0
  1 15  1  0  0  0  0
  2 16  1  0  0  0  0
  3 17  1  0  0  0  0
  4 18  1  0  0  0  0
  7 19  1  0  0  0  0
  7 20  1  0  0  0  0
  8 21  1  0  0  0  0
  8 22  1  0  0  0  0
  9 23  1  0  0  0  0
  9 24  1  0  0  0  0
 10 25  1  0  0  0  0
 10 26  1  0  0  0  0
 11 27  1  0  0  0  0
 11 28  1  0  0  0  0
 12 29  1  0  0  0  0
 12 30  1  0  0  0  0
 14 31  1  0  0  0  0
M  END
> <id>
EN300-7423939

> <smiles>
Cl.C1C=2C=CC=CC2CC13CCNCC3

> <MDLNUMBER>
MFCD02178983

> <IUPAC Name>
1,3-dihydrospiro[indene-2,4'-piperidine] hydrochloride

> <CAS>
185525-52-4

> <Purity>
95

> <URL>
https://www.enaminestore.com/catalog/EN300-7423939

> <Saltdate>
Cl

> <ROCS_ShapeQuery>
amalgated

> <ROCS_TanimotoCombo>
0.882 

> <ROCS_ShapeTanimoto>
0.518 

> <ROCS_ColorTanimoto>
0.364 

> <ROCS_RefTversky>
0.483 

> <ROCS_RefColorTversky>
0.465 

> <ROCS_RefTverskyCombo>
0.948 

> <ROCS_FitTversky>
1.164 

> <ROCS_FitColorTversky>
0.627 

> <ROCS_FitTverskyCombo>
1.792 

> <ROCS_ColorScore>
-3.210

> <ROCS_Overlap>
790.240

> <ROCS_Rank>
67                  

$$$$
untitled-dbase-22369_0
  -OEChem-10092318153D

 31 33  0     0  0  0  0  0  0999 V2000
   -8.8806   -2.6464  -17.7265 C   0  0  0  0  0  0  0  0  0  0  0  0
   -7.9770   -1.6503  -18.1275 C   0  0  0  0  0  0  0  0  0  0  0  0
   -9.5511   -2.5482  -16.5057 C   0  0  0  0  0  0  0  0  0  0  0  0
   -7.7322   -0.5429  -17.3130 C   0  0  0  0  0  0  0  0  0  0  0  0
   -9.2925   -1.4518  -15.6996 C   0  0  0  0  0  0  0  0  0  0  0  0
   -8.3934   -0.4606  -16.0987 C   0  0  0  0  0  0  0  0  0  0  0  0
   -9.9099   -1.1193  -14.3767 C   0  0  0  0  0  0  0  0  0  0  0  0
   -8.3195    0.6381  -15.0859 C   0  0  0  0  0  0  0  0  0  0  0  0
   -9.6958    1.0181  -12.9769 C   0  0  0  0  0  0  0  0  0  0  0  0
   -7.8304   -0.6556  -12.9421 C   0  0  0  0  0  0  0  0  0  0  0  0
  -10.1677    0.4505  -11.6388 C   0  0  0  0  0  0  0  0  0  0  0  0
   -8.3479   -1.1391  -11.5849 C   0  0  0  0  0  0  0  0  0  0  0  0
   -8.9430   -0.0270  -13.8221 C   0  0  0  0  0  0  0  0  0  0  0  0
   -9.0465   -0.0771  -10.8637 N   0  0  0  0  0  0  0  0  0  0  0  0
   -9.0630   -3.4986  -18.3756 H   0  0  0  0  0  0  0  0  0  0  0  0
   -7.4683   -1.7403  -19.0835 H   0  0  0  0  0  0  0  0  0  0  0  0
  -10.2567   -3.3140  -16.2020 H   0  0  0  0  0  0  0  0  0  0  0  0
   -7.0415    0.2312  -17.6295 H   0  0  0  0  0  0  0  0  0  0  0  0
  -10.9173   -0.7219  -14.5444 H   0  0  0  0  0  0  0  0  0  0  0  0
   -9.9740   -2.0021  -13.7354 H   0  0  0  0  0  0  0  0  0  0  0  0
   -7.2897    0.9691  -14.9194 H   0  0  0  0  0  0  0  0  0  0  0  0
   -8.9199    1.4864  -15.4342 H   0  0  0  0  0  0  0  0  0  0  0  0
  -10.5601    1.4072  -13.5291 H   0  0  0  0  0  0  0  0  0  0  0  0
   -9.0383    1.8779  -12.7886 H   0  0  0  0  0  0  0  0  0  0  0  0
   -7.0438    0.0908  -12.7650 H   0  0  0  0  0  0  0  0  0  0  0  0
   -7.3478   -1.4926  -13.4613 H   0  0  0  0  0  0  0  0  0  0  0  0
  -10.6526    1.2440  -11.0594 H   0  0  0  0  0  0  0  0  0  0  0  0
  -10.9216   -0.3308  -11.7903 H   0  0  0  0  0  0  0  0  0  0  0  0
   -9.0064   -2.0070  -11.7002 H   0  0  0  0  0  0  0  0  0  0  0  0
   -7.5012   -1.4780  -10.9774 H   0  0  0  0  0  0  0  0  0  0  0  0
   -8.3899    0.6806  -10.6743 H   0  0  0  0  0  0  0  0  0  0  0  0
  1  2  2  0  0  0  0
  1  3  1  0  0  0  0
  2  4  1  0  0  0  0
  3  5  2  0  0  0  0
  4  6  2  0  0  0  0
  5  6  1  0  0  0  0
  5  7  1  0  0  0  0
  6  8  1  0  0  0  0
  7 13  1  0  0  0  0
  8 13  1  0  0  0  0
  9 11  1  0  0  0  0
  9 13  1  0  0  0  0
 10 12  1  0  0  0  0
 10 13  1  0  0  0  0
 11 14  1  0  0  0  0
 12 14  1  0  0  0  0
  1 15  1  0  0  0  0
  2 16  1  0  0  0  0
  3 17  1  0  0  0  0
  4 18  1  0  0  0  0
  7 19  1  0  0  0  0
  7 20  1  0  0  0  0
  8 21  1  0  0  0  0
  8 22  1  0  0  0  0
  9 23  1  0  0  0  0
  9 24  1  0  0  0  0
 10 25  1  0  0  0  0
 10 26  1  0  0  0  0
 11 27  1  0  0  0  0
 11 28  1  0  0  0  0
 12 29  1  0  0  0  0
 12 30  1  0  0  0  0
 14 31  1  0  0  0  0
M  END
> <id>
EN300-2713866

> <smiles>
C1C=2C=CC=CC2CC13CCNCC3

> <MDLNUMBER>
MFCD11045510

> <IUPAC Name>
1,3-dihydrospiro[indene-2,4'-piperidine]

> <CAS>
6841-89-0

> <URL>
https://www.enaminestore.com/catalog/EN300-2713866

> <ROCS_ShapeQuery>
amalgated

> <ROCS_TanimotoCombo>
0.882 

> <ROCS_ShapeTanimoto>
0.518 

> <ROCS_ColorTanimoto>
0.364 

> <ROCS_RefTversky>
0.483 

> <ROCS_RefColorTversky>
0.465 

> <ROCS_RefTverskyCombo>
0.948 

> <ROCS_FitTversky>
1.164 

> <ROCS_FitColorTversky>
0.627 

> <ROCS_FitTverskyCombo>
1.792 

> <ROCS_ColorScore>
-3.210

> <ROCS_Overlap>
790.240

> <ROCS_Rank>
68                  

$$$$
untitled-dbase-27372_4
  -OEChem-10092318153D

 31 33  0     0  0  0  0  0  0999 V2000
   -9.7226   -2.2524  -16.3423 C   0  0  0  0  0  0  0  0  0  0  0  0
   -9.1375   -2.7800  -17.4938 C   0  0  0  0  0  0  0  0  0  0  0  0
   -7.5669   -0.9432  -17.5437 C   0  0  0  0  0  0  0  0  0  0  0  0
   -8.1575   -0.4168  -16.3915 C   0  0  0  0  0  0  0  0  0  0  0  0
   -9.2237   -1.0758  -15.7800 C   0  0  0  0  0  0  0  0  0  0  0  0
   -8.0585   -2.1286  -18.0906 C   0  0  0  0  0  0  0  0  0  0  0  0
   -7.6881    0.8616  -15.8297 C   0  0  0  0  0  0  0  0  0  0  0  0
   -8.4757    1.4006  -14.6651 C   0  0  0  0  0  0  0  0  0  0  0  0
  -10.0860    0.8946  -12.8257 C   0  0  0  0  0  0  0  0  0  0  0  0
   -8.0073   -0.5478  -13.0454 C   0  0  0  0  0  0  0  0  0  0  0  0
  -10.3022   -0.0028  -11.6080 C   0  0  0  0  0  0  0  0  0  0  0  0
   -7.8494   -0.0661  -11.6056 C   0  0  0  0  0  0  0  0  0  0  0  0
   -9.0770    0.2676  -13.8203 C   0  0  0  0  0  0  0  0  0  0  0  0
   -9.0816   -0.2213  -10.8314 N   0  0  0  0  0  0  0  0  0  0  0  0
   -6.7480    1.4711  -16.3259 O   0  0  0  0  0  0  0  0  0  0  0  0
   -9.8466   -0.6316  -14.6460 O   0  0  0  0  0  0  0  0  0  0  0  0
   -7.4982   -2.6379  -19.1954 F   0  0  0  0  0  0  0  0  0  0  0  0
  -10.5605   -2.7703  -15.8828 H   0  0  0  0  0  0  0  0  0  0  0  0
   -9.5217   -3.6998  -17.9246 H   0  0  0  0  0  0  0  0  0  0  0  0
   -6.7357   -0.4427  -18.0324 H   0  0  0  0  0  0  0  0  0  0  0  0
   -7.8178    2.0299  -14.0532 H   0  0  0  0  0  0  0  0  0  0  0  0
   -9.2654    2.0362  -15.0873 H   0  0  0  0  0  0  0  0  0  0  0  0
  -11.0514    1.0427  -13.3192 H   0  0  0  0  0  0  0  0  0  0  0  0
   -9.7264    1.8744  -12.4961 H   0  0  0  0  0  0  0  0  0  0  0  0
   -7.0412   -0.4708  -13.5627 H   0  0  0  0  0  0  0  0  0  0  0  0
   -8.2673   -1.6126  -13.0203 H   0  0  0  0  0  0  0  0  0  0  0  0
  -11.0594    0.4545  -10.9493 H   0  0  0  0  0  0  0  0  0  0  0  0
  -10.7270   -0.9755  -11.9123 H   0  0  0  0  0  0  0  0  0  0  0  0
   -7.0254   -0.5965  -11.1046 H   0  0  0  0  0  0  0  0  0  0  0  0
   -7.5683    0.9968  -11.6058 H   0  0  0  0  0  0  0  0  0  0  0  0
   -9.0650    0.4490  -10.0493 H   0  0  0  0  0  0  0  0  0  0  0  0
  1  2  1  0  0  0  0
  1  5  2  0  0  0  0
  2  6  2  0  0  0  0
  3  4  2  0  0  0  0
  3  6  1  0  0  0  0
  4  5  1  0  0  0  0
  4  7  1  0  0  0  0
  5 16  1  0  0  0  0
  6 17  1  0  0  0  0
  7  8  1  0  0  0  0
  7 15  2  0  0  0  0
  8 13  1  0  0  0  0
  9 11  1  0  0  0  0
  9 13  1  0  0  0  0
 10 12  1  0  0  0  0
 10 13  1  0  0  0  0
 11 14  1  0  0  0  0
 12 14  1  0  0  0  0
 13 16  1  0  0  0  0
  1 18  1  0  0  0  0
  2 19  1  0  0  0  0
  3 20  1  0  0  0  0
  8 21  1  0  0  0  0
  8 22  1  0  0  0  0
  9 23  1  0  0  0  0
  9 24  1  0  0  0  0
 10 25  1  0  0  0  0
 10 26  1  0  0  0  0
 11 27  1  0  0  0  0
 11 28  1  0  0  0  0
 12 29  1  0  0  0  0
 12 30  1  0  0  0  0
 14 31  1  0  0  0  0
M  END
> <id>
EN300-1223549

> <smiles>
Cl.FC=1C=CC=2OC3(CCNCC3)CC(=O)C2C1

> <MDLNUMBER>
MFCD04037212

> <IUPAC Name>
6-fluoro-3,4-dihydrospiro[1-benzopyran-2,4'-piperidine]-4-one hydrochloride

> <CAS>
936648-40-7

> <Purity>
95

> <URL>
https://www.enaminestore.com/catalog/EN300-1223549

> <Saltdate>
Cl

> <MP>
223-225

> <ROCS_ShapeQuery>
amalgated

> <ROCS_TanimotoCombo>
0.880 

> <ROCS_ShapeTanimoto>
0.587 

> <ROCS_ColorTanimoto>
0.293 

> <ROCS_RefTversky>
0.555 

> <ROCS_RefColorTversky>
0.453 

> <ROCS_RefTverskyCombo>
1.008 

> <ROCS_FitTversky>
1.109 

> <ROCS_FitColorTversky>
0.453 

> <ROCS_FitTverskyCombo>
1.562 

> <ROCS_ColorScore>
-3.174

> <ROCS_Overlap>
912.069

> <ROCS_Rank>
69                  

$$$$
untitled-dbase-36699_4
  -OEChem-10092318153D

 31 33  0     0  0  0  0  0  0999 V2000
   -9.7226   -2.2524  -16.3423 C   0  0  0  0  0  0  0  0  0  0  0  0
   -9.1375   -2.7800  -17.4938 C   0  0  0  0  0  0  0  0  0  0  0  0
   -7.5669   -0.9432  -17.5437 C   0  0  0  0  0  0  0  0  0  0  0  0
   -8.1575   -0.4168  -16.3915 C   0  0  0  0  0  0  0  0  0  0  0  0
   -9.2237   -1.0758  -15.7800 C   0  0  0  0  0  0  0  0  0  0  0  0
   -8.0585   -2.1286  -18.0906 C   0  0  0  0  0  0  0  0  0  0  0  0
   -7.6881    0.8616  -15.8297 C   0  0  0  0  0  0  0  0  0  0  0  0
   -8.4757    1.4006  -14.6651 C   0  0  0  0  0  0  0  0  0  0  0  0
  -10.0860    0.8946  -12.8257 C   0  0  0  0  0  0  0  0  0  0  0  0
   -8.0073   -0.5478  -13.0454 C   0  0  0  0  0  0  0  0  0  0  0  0
  -10.3022   -0.0028  -11.6080 C   0  0  0  0  0  0  0  0  0  0  0  0
   -7.8494   -0.0661  -11.6056 C   0  0  0  0  0  0  0  0  0  0  0  0
   -9.0770    0.2676  -13.8203 C   0  0  0  0  0  0  0  0  0  0  0  0
   -9.0816   -0.2213  -10.8314 N   0  0  0  0  0  0  0  0  0  0  0  0
   -6.7480    1.4711  -16.3259 O   0  0  0  0  0  0  0  0  0  0  0  0
   -9.8466   -0.6316  -14.6460 O   0  0  0  0  0  0  0  0  0  0  0  0
   -7.4982   -2.6379  -19.1954 F   0  0  0  0  0  0  0  0  0  0  0  0
  -10.5605   -2.7703  -15.8828 H   0  0  0  0  0  0  0  0  0  0  0  0
   -9.5217   -3.6998  -17.9246 H   0  0  0  0  0  0  0  0  0  0  0  0
   -6.7357   -0.4427  -18.0324 H   0  0  0  0  0  0  0  0  0  0  0  0
   -7.8178    2.0299  -14.0532 H   0  0  0  0  0  0  0  0  0  0  0  0
   -9.2654    2.0362  -15.0873 H   0  0  0  0  0  0  0  0  0  0  0  0
  -11.0514    1.0427  -13.3192 H   0  0  0  0  0  0  0  0  0  0  0  0
   -9.7264    1.8744  -12.4961 H   0  0  0  0  0  0  0  0  0  0  0  0
   -7.0412   -0.4708  -13.5627 H   0  0  0  0  0  0  0  0  0  0  0  0
   -8.2673   -1.6126  -13.0203 H   0  0  0  0  0  0  0  0  0  0  0  0
  -11.0594    0.4545  -10.9493 H   0  0  0  0  0  0  0  0  0  0  0  0
  -10.7270   -0.9755  -11.9123 H   0  0  0  0  0  0  0  0  0  0  0  0
   -7.0254   -0.5965  -11.1046 H   0  0  0  0  0  0  0  0  0  0  0  0
   -7.5683    0.9968  -11.6058 H   0  0  0  0  0  0  0  0  0  0  0  0
   -9.0650    0.4490  -10.0493 H   0  0  0  0  0  0  0  0  0  0  0  0
  1  2  1  0  0  0  0
  1  5  2  0  0  0  0
  2  6  2  0  0  0  0
  3  4  2  0  0  0  0
  3  6  1  0  0  0  0
  4  5  1  0  0  0  0
  4  7  1  0  0  0  0
  5 16  1  0  0  0  0
  6 17  1  0  0  0  0
  7  8  1  0  0  0  0
  7 15  2  0  0  0  0
  8 13  1  0  0  0  0
  9 11  1  0  0  0  0
  9 13  1  0  0  0  0
 10 12  1  0  0  0  0
 10 13  1  0  0  0  0
 11 14  1  0  0  0  0
 12 14  1  0  0  0  0
 13 16  1  0  0  0  0
  1 18  1  0  0  0  0
  2 19  1  0  0  0  0
  3 20  1  0  0  0  0
  8 21  1  0  0  0  0
  8 22  1  0  0  0  0
  9 23  1  0  0  0  0
  9 24  1  0  0  0  0
 10 25  1  0  0  0  0
 10 26  1  0  0  0  0
 11 27  1  0  0  0  0
 11 28  1  0  0  0  0
 12 29  1  0  0  0  0
 12 30  1  0  0  0  0
 14 31  1  0  0  0  0
M  END
> <id>
EN300-7423212

> <smiles>
FC=1C=CC=2OC3(CCNCC3)CC(=O)C2C1

> <MDLNUMBER>
MFCD09751453

> <IUPAC Name>
6-fluoro-3,4-dihydrospiro[1-benzopyran-2,4'-piperidine]-4-one

> <CAS>
721958-61-8

> <URL>
https://www.enaminestore.com/catalog/EN300-7423212

> <ROCS_ShapeQuery>
amalgated

> <ROCS_TanimotoCombo>
0.880 

> <ROCS_ShapeTanimoto>
0.587 

> <ROCS_ColorTanimoto>
0.293 

> <ROCS_RefTversky>
0.555 

> <ROCS_RefColorTversky>
0.453 

> <ROCS_RefTverskyCombo>
1.008 

> <ROCS_FitTversky>
1.109 

> <ROCS_FitColorTversky>
0.453 

> <ROCS_FitTverskyCombo>
1.562 

> <ROCS_ColorScore>
-3.174

> <ROCS_Overlap>
912.069

> <ROCS_Rank>
70                  

$$$$
untitled-dbase-34315_95
  -OEChem-10092318153D

 49 51  0     0  0  0  0  0  0999 V2000
   -9.7624   -0.0374  -11.5662 C   0  0  0  0  0  0  0  0  0  0  0  0
   -9.2526   -1.3157  -11.7803 C   0  0  0  0  0  0  0  0  0  0  0  0
   -9.5073    0.9816  -12.4864 C   0  0  0  0  0  0  0  0  0  0  0  0
   -8.4923   -1.5780  -12.9171 C   0  0  0  0  0  0  0  0  0  0  0  0
   -8.7553    0.7320  -13.6440 C   0  0  0  0  0  0  0  0  0  0  0  0
   -8.2640   -0.5637  -13.8504 C   0  0  0  0  0  0  0  0  0  0  0  0
   -7.9766    2.5268  -16.9084 C   0  0  0  0  0  0  0  0  0  0  0  0
   -8.4411    1.8687  -14.5818 C   0  0  0  0  0  0  0  0  0  0  0  0
   -6.9976   -0.9585  -17.2454 C   0  0  0  0  0  0  0  0  0  0  0  0
   -8.9231   -2.2430  -16.3146 C   0  0  0  0  0  0  0  0  0  0  0  0
   -7.4604   -1.3472  -18.6489 C   0  0  0  0  0  0  0  0  0  0  0  0
   -9.3400   -2.5733  -17.7469 C   0  0  0  0  0  0  0  0  0  0  0  0
   -9.0822    0.3000  -16.4521 C   0  0  0  0  0  0  0  0  0  0  0  0
   -8.1436   -0.9112  -16.2060 C   0  0  0  0  0  0  0  0  0  0  0  0
   -5.7856    3.6831  -18.3410 C   0  0  0  0  0  0  0  0  0  0  0  0
   -6.3772    2.0725  -20.1755 C   0  0  0  0  0  0  0  0  0  0  0  0
   -8.0326    3.8231  -19.4661 C   0  0  0  0  0  0  0  0  0  0  0  0
   -6.9127    2.8922  -19.0035 C   0  0  0  0  0  0  0  0  0  0  0  0
   -8.1836   -2.6173  -18.6395 N   0  0  0  0  0  0  0  0  0  0  0  0
   -8.4778    1.5667  -16.0173 N   0  0  0  0  0  0  0  0  0  0  0  0
   -8.0002    3.7385  -16.6977 O   0  0  0  0  0  0  0  0  0  0  0  0
   -7.4703   -0.8584  -14.9239 O   0  0  0  0  0  0  0  0  0  0  0  0
   -7.4497    1.9742  -18.0448 O   0  0  0  0  0  0  0  0  0  0  0  0
  -10.3719    0.1641  -10.6894 H   0  0  0  0  0  0  0  0  0  0  0  0
   -9.4504   -2.1068  -11.0629 H   0  0  0  0  0  0  0  0  0  0  0  0
   -9.9148    1.9708  -12.2961 H   0  0  0  0  0  0  0  0  0  0  0  0
   -8.0723   -2.5665  -13.0621 H   0  0  0  0  0  0  0  0  0  0  0  0
   -9.1465    2.7110  -14.3840 H   0  0  0  0  0  0  0  0  0  0  0  0
   -7.4442    2.3032  -14.3342 H   0  0  0  0  0  0  0  0  0  0  0  0
   -6.2090   -1.6602  -16.9395 H   0  0  0  0  0  0  0  0  0  0  0  0
   -6.5168    0.0316  -17.2980 H   0  0  0  0  0  0  0  0  0  0  0  0
   -9.8241   -2.2091  -15.6815 H   0  0  0  0  0  0  0  0  0  0  0  0
   -8.3043   -3.0725  -15.9391 H   0  0  0  0  0  0  0  0  0  0  0  0
   -8.1251   -0.5691  -19.0381 H   0  0  0  0  0  0  0  0  0  0  0  0
   -6.6174   -1.4078  -19.3427 H   0  0  0  0  0  0  0  0  0  0  0  0
   -9.8835   -3.5261  -17.7877 H   0  0  0  0  0  0  0  0  0  0  0  0
  -10.0350   -1.8060  -18.1090 H   0  0  0  0  0  0  0  0  0  0  0  0
   -9.3286    0.3711  -17.5123 H   0  0  0  0  0  0  0  0  0  0  0  0
  -10.0155    0.1817  -15.8980 H   0  0  0  0  0  0  0  0  0  0  0  0
   -6.1659    4.2728  -17.4992 H   0  0  0  0  0  0  0  0  0  0  0  0
   -4.9922    3.0241  -17.9736 H   0  0  0  0  0  0  0  0  0  0  0  0
   -5.3436    4.3979  -19.0445 H   0  0  0  0  0  0  0  0  0  0  0  0
   -7.1825    1.5034  -20.6538 H   0  0  0  0  0  0  0  0  0  0  0  0
   -5.6406    1.3367  -19.8329 H   0  0  0  0  0  0  0  0  0  0  0  0
   -5.9059    2.7088  -20.9316 H   0  0  0  0  0  0  0  0  0  0  0  0
   -8.8412    3.2560  -19.9413 H   0  0  0  0  0  0  0  0  0  0  0  0
   -8.4542    4.3926  -18.6315 H   0  0  0  0  0  0  0  0  0  0  0  0
   -7.6659    4.5293  -20.2197 H   0  0  0  0  0  0  0  0  0  0  0  0
   -8.5050   -2.8217  -19.5874 H   0  0  0  0  0  0  0  0  0  0  0  0
  1  2  2  0  0  0  0
  1  3  1  0  0  0  0
  2  4  1  0  0  0  0
  3  5  2  0  0  0  0
  4  6  2  0  0  0  0
  5  6  1  0  0  0  0
  5  8  1  0  0  0  0
  6 22  1  0  0  0  0
  7 20  1  0  0  0  0
  7 21  2  0  0  0  0
  7 23  1  0  0  0  0
  8 20  1  0  0  0  0
  9 11  1  0  0  0  0
  9 14  1  0  0  0  0
 10 12  1  0  0  0  0
 10 14  1  0  0  0  0
 11 19  1  0  0  0  0
 12 19  1  0  0  0  0
 13 14  1  0  0  0  0
 13 20  1  0  0  0  0
 14 22  1  0  0  0  0
 15 18  1  0  0  0  0
 16 18  1  0  0  0  0
 17 18  1  0  0  0  0
 18 23  1  0  0  0  0
  1 24  1  0  0  0  0
  2 25  1  0  0  0  0
  3 26  1  0  0  0  0
  4 27  1  0  0  0  0
  8 28  1  0  0  0  0
  8 29  1  0  0  0  0
  9 30  1  0  0  0  0
  9 31  1  0  0  0  0
 10 32  1  0  0  0  0
 10 33  1  0  0  0  0
 11 34  1  0  0  0  0
 11 35  1  0  0  0  0
 12 36  1  0  0  0  0
 12 37  1  0  0  0  0
 13 38  1  0  0  0  0
 13 39  1  0  0  0  0
 15 40  1  0  0  0  0
 15 41  1  0  0  0  0
 15 42  1  0  0  0  0
 16 43  1  0  0  0  0
 16 44  1  0  0  0  0
 16 45  1  0  0  0  0
 17 46  1  0  0  0  0
 17 47  1  0  0  0  0
 17 48  1  0  0  0  0
 19 49  1  0  0  0  0
M  END
> <id>
EN300-412377

> <smiles>
CC(C)(C)OC(=O)N1CC=2C=CC=CC2OC3(CCNCC3)C1

> <MDLNUMBER>
MFCD31381136

> <IUPAC Name>
tert-butyl 4,5-dihydro-3H-spiro[1,4-benzoxazepine-2,4'-piperidine]-4-carboxylate

> <CAS>
2126177-04-4

> <Purity>
95

> <URL>
https://www.enaminestore.com/catalog/EN300-412377

> <ROCS_ShapeQuery>
amalgated

> <ROCS_TanimotoCombo>
0.880 

> <ROCS_ShapeTanimoto>
0.607 

> <ROCS_ColorTanimoto>
0.273 

> <ROCS_RefTversky>
0.621 

> <ROCS_RefColorTversky>
0.456 

> <ROCS_RefTverskyCombo>
1.077 

> <ROCS_FitTversky>
0.964 

> <ROCS_FitColorTversky>
0.404 

> <ROCS_FitTverskyCombo>
1.368 

> <ROCS_ColorScore>
-3.213

> <ROCS_Overlap>
1029.192

> <ROCS_Rank>
71                  

$$$$
untitled-dbase-302_10
  -OEChem-10092318153D

 31 32  0     0  0  0  0  0  0999 V2000
   -8.5743    0.2442  -15.0546 C   0  0  0  0  0  0  0  0  0  0  0  0
  -10.2082    0.3170  -11.6568 C   0  0  0  0  0  0  0  0  0  0  0  0
   -7.8861   -0.4496  -11.4807 C   0  0  0  0  0  0  0  0  0  0  0  0
   -9.7299    0.8964  -12.9826 C   0  0  0  0  0  0  0  0  0  0  0  0
   -8.1366   -1.0045  -12.8818 C   0  0  0  0  0  0  0  0  0  0  0  0
   -8.9122   -2.1739  -15.7682 C   0  0  0  0  0  0  0  0  0  0  0  0
   -7.5807   -0.6287  -17.1480 C   0  0  0  0  0  0  0  0  0  0  0  0
   -9.6723   -2.5506  -17.0377 C   0  0  0  0  0  0  0  0  0  0  0  0
   -8.4184   -1.0447  -18.3465 C   0  0  0  0  0  0  0  0  0  0  0  0
   -9.1211   -0.1060  -10.7749 N   0  0  0  0  0  0  0  0  0  0  0  0
   -8.8677   -0.0353  -13.7105 N   0  0  0  0  0  0  0  0  0  0  0  0
   -8.3207   -0.8387  -15.9037 N   0  0  0  0  0  0  0  0  0  0  0  0
   -8.5258    1.4106  -15.4676 O   0  0  0  0  0  0  0  0  0  0  0  0
   -8.8490   -2.3982  -18.1940 O   0  0  0  0  0  0  0  0  0  0  0  0
  -10.8200    1.0690  -11.1284 H   0  0  0  0  0  0  0  0  0  0  0  0
  -10.8861   -0.5372  -11.8398 H   0  0  0  0  0  0  0  0  0  0  0  0
   -7.3025   -1.1703  -10.8817 H   0  0  0  0  0  0  0  0  0  0  0  0
   -7.2585    0.4542  -11.5540 H   0  0  0  0  0  0  0  0  0  0  0  0
  -10.5927    1.1639  -13.6093 H   0  0  0  0  0  0  0  0  0  0  0  0
   -9.1516    1.8190  -12.8222 H   0  0  0  0  0  0  0  0  0  0  0  0
   -7.1810   -1.1854  -13.3892 H   0  0  0  0  0  0  0  0  0  0  0  0
   -8.6372   -1.9720  -12.8408 H   0  0  0  0  0  0  0  0  0  0  0  0
   -9.5747   -2.2085  -14.8984 H   0  0  0  0  0  0  0  0  0  0  0  0
   -8.0839   -2.8698  -15.5969 H   0  0  0  0  0  0  0  0  0  0  0  0
   -6.6934   -1.2733  -17.0801 H   0  0  0  0  0  0  0  0  0  0  0  0
   -7.2062    0.3930  -17.2478 H   0  0  0  0  0  0  0  0  0  0  0  0
   -9.9828   -3.6000  -16.9850 H   0  0  0  0  0  0  0  0  0  0  0  0
  -10.5801   -1.9440  -17.1515 H   0  0  0  0  0  0  0  0  0  0  0  0
   -9.2887   -0.3932  -18.4784 H   0  0  0  0  0  0  0  0  0  0  0  0
   -7.8174   -0.9891  -19.2584 H   0  0  0  0  0  0  0  0  0  0  0  0
   -8.9183    0.6600  -10.1148 H   0  0  0  0  0  0  0  0  0  0  0  0
  1 11  1  0  0  0  0
  1 12  1  0  0  0  0
  1 13  2  0  0  0  0
  2  4  1  0  0  0  0
  2 10  1  0  0  0  0
  3  5  1  0  0  0  0
  3 10  1  0  0  0  0
  4 11  1  0  0  0  0
  5 11  1  0  0  0  0
  6  8  1  0  0  0  0
  6 12  1  0  0  0  0
  7  9  1  0  0  0  0
  7 12  1  0  0  0  0
  8 14  1  0  0  0  0
  9 14  1  0  0  0  0
  2 15  1  0  0  0  0
  2 16  1  0  0  0  0
  3 17  1  0  0  0  0
  3 18  1  0  0  0  0
  4 19  1  0  0  0  0
  4 20  1  0  0  0  0
  5 21  1  0  0  0  0
  5 22  1  0  0  0  0
  6 23  1  0  0  0  0
  6 24  1  0  0  0  0
  7 25  1  0  0  0  0
  7 26  1  0  0  0  0
  8 27  1  0  0  0  0
  8 28  1  0  0  0  0
  9 29  1  0  0  0  0
  9 30  1  0  0  0  0
 10 31  1  0  0  0  0
M  END
> <id>
EN300-26040

> <smiles>
Cl.O=C(N1CCNCC1)N2CCOCC2

> <MDLNUMBER>
MFCD08461834

> <IUPAC Name>
4-(piperazine-1-carbonyl)morpholine hydrochloride

> <CAS>
99161-57-6

> <Purity>
95

> <URL>
https://www.enaminestore.com/catalog/EN300-26040

> <Saltdate>
Cl

> <ROCS_ShapeQuery>
amalgated

> <ROCS_TanimotoCombo>
0.880 

> <ROCS_ShapeTanimoto>
0.540 

> <ROCS_ColorTanimoto>
0.340 

> <ROCS_RefTversky>
0.493 

> <ROCS_RefColorTversky>
0.475 

> <ROCS_RefTverskyCombo>
0.967 

> <ROCS_FitTversky>
1.214 

> <ROCS_FitColorTversky>
0.545 

> <ROCS_FitTverskyCombo>
1.760 

> <ROCS_ColorScore>
-3.299

> <ROCS_Overlap>
805.989

> <ROCS_Rank>
72                  

$$$$
untitled-dbase-3738_10
  -OEChem-10092318153D

 31 32  0     0  0  0  0  0  0999 V2000
   -8.5743    0.2442  -15.0546 C   0  0  0  0  0  0  0  0  0  0  0  0
  -10.2082    0.3170  -11.6568 C   0  0  0  0  0  0  0  0  0  0  0  0
   -7.8861   -0.4496  -11.4807 C   0  0  0  0  0  0  0  0  0  0  0  0
   -9.7299    0.8964  -12.9826 C   0  0  0  0  0  0  0  0  0  0  0  0
   -8.1366   -1.0045  -12.8818 C   0  0  0  0  0  0  0  0  0  0  0  0
   -8.9122   -2.1739  -15.7682 C   0  0  0  0  0  0  0  0  0  0  0  0
   -7.5807   -0.6287  -17.1480 C   0  0  0  0  0  0  0  0  0  0  0  0
   -9.6723   -2.5506  -17.0377 C   0  0  0  0  0  0  0  0  0  0  0  0
   -8.4184   -1.0447  -18.3465 C   0  0  0  0  0  0  0  0  0  0  0  0
   -9.1211   -0.1060  -10.7749 N   0  0  0  0  0  0  0  0  0  0  0  0
   -8.8677   -0.0353  -13.7105 N   0  0  0  0  0  0  0  0  0  0  0  0
   -8.3207   -0.8387  -15.9037 N   0  0  0  0  0  0  0  0  0  0  0  0
   -8.5258    1.4106  -15.4676 O   0  0  0  0  0  0  0  0  0  0  0  0
   -8.8490   -2.3982  -18.1940 O   0  0  0  0  0  0  0  0  0  0  0  0
  -10.8200    1.0690  -11.1284 H   0  0  0  0  0  0  0  0  0  0  0  0
  -10.8861   -0.5372  -11.8398 H   0  0  0  0  0  0  0  0  0  0  0  0
   -7.3025   -1.1703  -10.8817 H   0  0  0  0  0  0  0  0  0  0  0  0
   -7.2585    0.4542  -11.5540 H   0  0  0  0  0  0  0  0  0  0  0  0
  -10.5927    1.1639  -13.6093 H   0  0  0  0  0  0  0  0  0  0  0  0
   -9.1516    1.8190  -12.8222 H   0  0  0  0  0  0  0  0  0  0  0  0
   -7.1810   -1.1854  -13.3892 H   0  0  0  0  0  0  0  0  0  0  0  0
   -8.6372   -1.9720  -12.8408 H   0  0  0  0  0  0  0  0  0  0  0  0
   -9.5747   -2.2085  -14.8984 H   0  0  0  0  0  0  0  0  0  0  0  0
   -8.0839   -2.8698  -15.5969 H   0  0  0  0  0  0  0  0  0  0  0  0
   -6.6934   -1.2733  -17.0801 H   0  0  0  0  0  0  0  0  0  0  0  0
   -7.2062    0.3930  -17.2478 H   0  0  0  0  0  0  0  0  0  0  0  0
   -9.9828   -3.6000  -16.9850 H   0  0  0  0  0  0  0  0  0  0  0  0
  -10.5801   -1.9440  -17.1515 H   0  0  0  0  0  0  0  0  0  0  0  0
   -9.2887   -0.3932  -18.4784 H   0  0  0  0  0  0  0  0  0  0  0  0
   -7.8174   -0.9891  -19.2584 H   0  0  0  0  0  0  0  0  0  0  0  0
   -8.9183    0.6600  -10.1148 H   0  0  0  0  0  0  0  0  0  0  0  0
  1 11  1  0  0  0  0
  1 12  1  0  0  0  0
  1 13  2  0  0  0  0
  2  4  1  0  0  0  0
  2 10  1  0  0  0  0
  3  5  1  0  0  0  0
  3 10  1  0  0  0  0
  4 11  1  0  0  0  0
  5 11  1  0  0  0  0
  6  8  1  0  0  0  0
  6 12  1  0  0  0  0
  7  9  1  0  0  0  0
  7 12  1  0  0  0  0
  8 14  1  0  0  0  0
  9 14  1  0  0  0  0
  2 15  1  0  0  0  0
  2 16  1  0  0  0  0
  3 17  1  0  0  0  0
  3 18  1  0  0  0  0
  4 19  1  0  0  0  0
  4 20  1  0  0  0  0
  5 21  1  0  0  0  0
  5 22  1  0  0  0  0
  6 23  1  0  0  0  0
  6 24  1  0  0  0  0
  7 25  1  0  0  0  0
  7 26  1  0  0  0  0
  8 27  1  0  0  0  0
  8 28  1  0  0  0  0
  9 29  1  0  0  0  0
  9 30  1  0  0  0  0
 10 31  1  0  0  0  0
M  END
> <id>
EN300-57462

> <smiles>
O=C(N1CCNCC1)N2CCOCC2

> <MDLNUMBER>
MFCD03844725

> <IUPAC Name>
4-(piperazine-1-carbonyl)morpholine

> <CAS>
98834-08-3

> <URL>
https://www.enaminestore.com/catalog/EN300-57462

> <ROCS_ShapeQuery>
amalgated

> <ROCS_TanimotoCombo>
0.880 

> <ROCS_ShapeTanimoto>
0.540 

> <ROCS_ColorTanimoto>
0.340 

> <ROCS_RefTversky>
0.493 

> <ROCS_RefColorTversky>
0.475 

> <ROCS_RefTverskyCombo>
0.967 

> <ROCS_FitTversky>
1.214 

> <ROCS_FitColorTversky>
0.545 

> <ROCS_FitTverskyCombo>
1.760 

> <ROCS_ColorScore>
-3.299

> <ROCS_Overlap>
805.989

> <ROCS_Rank>
73                  

$$$$
untitled-dbase-25636_0
  -OEChem-10092318153D

 32 34  0     0  0  0  0  0  0999 V2000
   -8.3640   -1.2685  -18.3036 C   0  0  0  0  0  0  0  0  0  0  0  0
   -8.1705   -0.2464  -17.3661 C   0  0  0  0  0  0  0  0  0  0  0  0
   -9.1278   -2.7918  -16.5683 C   0  0  0  0  0  0  0  0  0  0  0  0
   -8.9248   -1.7606  -15.6732 C   0  0  0  0  0  0  0  0  0  0  0  0
   -8.8390   -2.5312  -17.9070 C   0  0  0  0  0  0  0  0  0  0  0  0
   -8.4568   -0.5037  -16.0379 C   0  0  0  0  0  0  0  0  0  0  0  0
   -9.1288   -1.7149  -14.2320 C   0  0  0  0  0  0  0  0  0  0  0  0
   -7.5590   -0.3643  -12.7610 C   0  0  0  0  0  0  0  0  0  0  0  0
   -9.9487    0.4198  -13.1265 C   0  0  0  0  0  0  0  0  0  0  0  0
   -7.9826   -0.7841  -11.3514 C   0  0  0  0  0  0  0  0  0  0  0  0
  -10.2482   -0.0409  -11.6979 C   0  0  0  0  0  0  0  0  0  0  0  0
   -8.7444   -0.3106  -13.7311 C   0  0  0  0  0  0  0  0  0  0  0  0
   -9.0363   -3.5995  -18.9302 C   0  0  0  0  0  0  0  0  0  0  0  0
   -8.3340    0.3649  -14.9662 N   0  0  0  0  0  0  0  0  0  0  0  0
   -9.0693    0.0492  -10.8357 N   0  0  0  0  0  0  0  0  0  0  0  0
   -9.5368   -2.6544  -13.5753 O   0  0  0  0  0  0  0  0  0  0  0  0
   -8.7164   -3.2073  -20.1986 F   0  0  0  0  0  0  0  0  0  0  0  0
   -8.2869   -4.7181  -18.7030 F   0  0  0  0  0  0  0  0  0  0  0  0
  -10.3293   -4.0310  -18.9950 F   0  0  0  0  0  0  0  0  0  0  0  0
   -8.1421   -1.0755  -19.3507 H   0  0  0  0  0  0  0  0  0  0  0  0
   -7.8038    0.7239  -17.6845 H   0  0  0  0  0  0  0  0  0  0  0  0
   -9.4952   -3.7589  -16.2444 H   0  0  0  0  0  0  0  0  0  0  0  0
   -7.0915    0.6280  -12.6970 H   0  0  0  0  0  0  0  0  0  0  0  0
   -6.7893   -1.0580  -13.1219 H   0  0  0  0  0  0  0  0  0  0  0  0
  -10.8449    0.2722  -13.7422 H   0  0  0  0  0  0  0  0  0  0  0  0
   -9.7499    1.4999  -13.1038 H   0  0  0  0  0  0  0  0  0  0  0  0
   -8.2754   -1.8405  -11.3343 H   0  0  0  0  0  0  0  0  0  0  0  0
   -7.1208   -0.6880  -10.6814 H   0  0  0  0  0  0  0  0  0  0  0  0
  -11.0363    0.5955  -11.2801 H   0  0  0  0  0  0  0  0  0  0  0  0
  -10.6399   -1.0649  -11.6964 H   0  0  0  0  0  0  0  0  0  0  0  0
   -8.0130    1.3192  -15.0271 H   0  0  0  0  0  0  0  0  0  0  0  0
   -9.3155   -0.2640   -9.8971 H   0  0  0  0  0  0  0  0  0  0  0  0
  1  2  1  0  0  0  0
  1  5  2  0  0  0  0
  2  6  2  0  0  0  0
  3  4  2  0  0  0  0
  3  5  1  0  0  0  0
  4  6  1  0  0  0  0
  4  7  1  0  0  0  0
  5 13  1  0  0  0  0
  6 14  1  0  0  0  0
  7 12  1  0  0  0  0
  7 16  2  0  0  0  0
  8 10  1  0  0  0  0
  8 12  1  0  0  0  0
  9 11  1  0  0  0  0
  9 12  1  0  0  0  0
 10 15  1  0  0  0  0
 11 15  1  0  0  0  0
 12 14  1  0  0  0  0
 13 17  1  0  0  0  0
 13 18  1  0  0  0  0
 13 19  1  0  0  0  0
  1 20  1  0  0  0  0
  2 21  1  0  0  0  0
  3 22  1  0  0  0  0
  8 23  1  0  0  0  0
  8 24  1  0  0  0  0
  9 25  1  0  0  0  0
  9 26  1  0  0  0  0
 10 27  1  0  0  0  0
 10 28  1  0  0  0  0
 11 29  1  0  0  0  0
 11 30  1  0  0  0  0
 14 31  1  0  0  0  0
 15 32  1  0  0  0  0
M  END
> <id>
EN300-28221599

> <smiles>
Cl.FC(F)(F)C=1C=CC=2NC3(CCNCC3)C(=O)C2C1

> <IUPAC Name>
5-(trifluoromethyl)-1,3-dihydrospiro[indole-2,4'-piperidin]-3-one hydrochloride

> <Purity>
95

> <URL>
https://www.enaminestore.com/catalog/EN300-28221599

> <Saltdate>
Cl

> <ROCS_ShapeQuery>
amalgated

> <ROCS_TanimotoCombo>
0.879 

> <ROCS_ShapeTanimoto>
0.577 

> <ROCS_ColorTanimoto>
0.302 

> <ROCS_RefTversky>
0.570 

> <ROCS_RefColorTversky>
0.464 

> <ROCS_RefTverskyCombo>
1.034 

> <ROCS_FitTversky>
1.022 

> <ROCS_FitColorTversky>
0.463 

> <ROCS_FitTverskyCombo>
1.485 

> <ROCS_ColorScore>
-3.251

> <ROCS_Overlap>
939.619

> <ROCS_Rank>
74                  

$$$$
untitled-dbase-34865_78
  -OEChem-10092318153D

 37 37  0     1  0  0  0  0  0999 V2000
   -8.7442   -0.1808  -14.7973 C   0  0  0  0  0  0  0  0  0  0  0  0
   -9.3551   -2.8029  -16.9661 C   0  0  0  0  0  0  0  0  0  0  0  0
   -8.9416   -0.6464  -18.2386 C   0  0  0  0  0  0  0  0  0  0  0  0
   -8.2945   -2.3637  -15.9533 C   0  0  0  0  0  0  0  0  0  0  0  0
   -9.1445   -2.1694  -18.3514 C   0  0  1  0  0  0  0  0  0  0  0  0
   -7.8771   -0.2735  -17.1891 C   0  0  1  0  0  0  0  0  0  0  0  0
   -7.6205    1.2324  -17.1869 C   0  0  0  0  0  0  0  0  0  0  0  0
   -9.9360    0.7918  -12.3777 C   0  0  0  0  0  0  0  0  0  0  0  0
   -9.7936   -1.5829  -11.5716 C   0  0  0  0  0  0  0  0  0  0  0  0
   -7.6933   -0.3226  -12.1268 C   0  0  0  0  0  0  0  0  0  0  0  0
   -9.1668   -0.5247  -12.4769 C   0  0  0  0  0  0  0  0  0  0  0  0
   -8.2480   -0.8954  -15.8990 N   0  0  0  0  0  0  0  0  0  0  0  0
   -7.9858   -2.7814  -19.0080 N   0  0  0  0  0  0  0  0  0  0  0  0
   -8.7400    1.0418  -14.6805 O   0  0  0  0  0  0  0  0  0  0  0  0
   -9.2539   -1.0032  -13.8244 O   0  0  0  0  0  0  0  0  0  0  0  0
   -9.3388   -3.9024  -17.0437 H   0  0  0  0  0  0  0  0  0  0  0  0
  -10.3518   -2.5370  -16.5804 H   0  0  0  0  0  0  0  0  0  0  0  0
   -8.6209   -0.2502  -19.2085 H   0  0  0  0  0  0  0  0  0  0  0  0
   -9.8906   -0.1589  -17.9970 H   0  0  0  0  0  0  0  0  0  0  0  0
   -8.5473   -2.7184  -14.9622 H   0  0  0  0  0  0  0  0  0  0  0  0
   -7.3323   -2.7674  -16.2343 H   0  0  0  0  0  0  0  0  0  0  0  0
  -10.0223   -2.3741  -18.9768 H   0  0  0  0  0  0  0  0  0  0  0  0
   -6.9468   -0.7587  -17.5568 H   0  0  0  0  0  0  0  0  0  0  0  0
   -8.5069    1.7535  -16.8328 H   0  0  0  0  0  0  0  0  0  0  0  0
   -7.3869    1.5646  -18.1957 H   0  0  0  0  0  0  0  0  0  0  0  0
   -6.7835    1.4593  -16.5305 H   0  0  0  0  0  0  0  0  0  0  0  0
   -9.4892    1.5540  -13.0261 H   0  0  0  0  0  0  0  0  0  0  0  0
  -10.9865    0.6675  -12.6600 H   0  0  0  0  0  0  0  0  0  0  0  0
   -9.8966    1.1918  -11.3580 H   0  0  0  0  0  0  0  0  0  0  0  0
   -9.2449   -2.5292  -11.6396 H   0  0  0  0  0  0  0  0  0  0  0  0
  -10.8228   -1.8000  -11.8795 H   0  0  0  0  0  0  0  0  0  0  0  0
   -9.8052   -1.2633  -10.5245 H   0  0  0  0  0  0  0  0  0  0  0  0
   -7.1413   -1.2668  -12.1979 H   0  0  0  0  0  0  0  0  0  0  0  0
   -7.2174    0.4067  -12.7904 H   0  0  0  0  0  0  0  0  0  0  0  0
   -7.5824    0.0233  -11.0927 H   0  0  0  0  0  0  0  0  0  0  0  0
   -8.1528   -3.7561  -19.0824 H   0  0  0  0  0  0  0  0  0  0  0  0
   -7.8884   -2.3709  -19.9056 H   0  0  0  0  0  0  0  0  0  0  0  0
  1 12  1  0  0  0  0
  1 14  2  0  0  0  0
  1 15  1  0  0  0  0
  2  4  1  0  0  0  0
  2  5  1  0  0  0  0
  3  5  1  0  0  0  0
  3  6  1  0  0  0  0
  4 12  1  0  0  0  0
  5 13  1  1  0  0  0
  6  7  1  6  0  0  0
  6 12  1  0  0  0  0
  8 11  1  0  0  0  0
  9 11  1  0  0  0  0
 10 11  1  0  0  0  0
 11 15  1  0  0  0  0
  2 16  1  0  0  0  0
  2 17  1  0  0  0  0
  3 18  1  0  0  0  0
  3 19  1  0  0  0  0
  4 20  1  0  0  0  0
  4 21  1  0  0  0  0
  5 22  1  0  0  0  0
  6 23  1  0  0  0  0
  7 24  1  0  0  0  0
  7 25  1  0  0  0  0
  7 26  1  0  0  0  0
  8 27  1  0  0  0  0
  8 28  1  0  0  0  0
  8 29  1  0  0  0  0
  9 30  1  0  0  0  0
  9 31  1  0  0  0  0
  9 32  1  0  0  0  0
 10 33  1  0  0  0  0
 10 34  1  0  0  0  0
 10 35  1  0  0  0  0
 13 36  1  0  0  0  0
 13 37  1  0  0  0  0
M  END
> <id>
EN300-7354349

> <smiles>
Cl.C[C@@H]1C[C@@H](N)CCN1C(=O)OC(C)(C)C |&1:2,4,r|

> <MDLNUMBER>
MFCD31916372

> <IUPAC Name>
rac-tert-butyl (2R,4S)-4-amino-2-methylpiperidine-1-carboxylate hydrochloride

> <CAS>
2305078-78-6

> <Purity>
95

> <URL>
https://www.enaminestore.com/catalog/EN300-7354349

> <Saltdate>
Cl

> <ROCS_ShapeQuery>
amalgated

> <ROCS_TanimotoCombo>
0.878 

> <ROCS_ShapeTanimoto>
0.547 

> <ROCS_ColorTanimoto>
0.331 

> <ROCS_RefTversky>
0.502 

> <ROCS_RefColorTversky>
0.433 

> <ROCS_RefTverskyCombo>
0.935 

> <ROCS_FitTversky>
1.196 

> <ROCS_FitColorTversky>
0.585 

> <ROCS_FitTverskyCombo>
1.781 

> <ROCS_ColorScore>
-2.985

> <ROCS_Overlap>
821.836

> <ROCS_Rank>
75                  

$$$$
untitled-dbase-26983_78
  -OEChem-10092318153D

 37 37  0     1  0  0  0  0  0999 V2000
   -8.7442   -0.1808  -14.7973 C   0  0  0  0  0  0  0  0  0  0  0  0
   -9.3551   -2.8029  -16.9661 C   0  0  0  0  0  0  0  0  0  0  0  0
   -8.9416   -0.6464  -18.2386 C   0  0  0  0  0  0  0  0  0  0  0  0
   -8.2945   -2.3637  -15.9533 C   0  0  0  0  0  0  0  0  0  0  0  0
   -9.1445   -2.1694  -18.3514 C   0  0  1  0  0  0  0  0  0  0  0  0
   -7.8771   -0.2735  -17.1891 C   0  0  1  0  0  0  0  0  0  0  0  0
   -7.6205    1.2324  -17.1869 C   0  0  0  0  0  0  0  0  0  0  0  0
   -9.9360    0.7918  -12.3777 C   0  0  0  0  0  0  0  0  0  0  0  0
   -9.7936   -1.5829  -11.5716 C   0  0  0  0  0  0  0  0  0  0  0  0
   -7.6933   -0.3226  -12.1268 C   0  0  0  0  0  0  0  0  0  0  0  0
   -9.1668   -0.5247  -12.4769 C   0  0  0  0  0  0  0  0  0  0  0  0
   -8.2480   -0.8954  -15.8990 N   0  0  0  0  0  0  0  0  0  0  0  0
   -7.9858   -2.7814  -19.0080 N   0  0  0  0  0  0  0  0  0  0  0  0
   -8.7400    1.0418  -14.6805 O   0  0  0  0  0  0  0  0  0  0  0  0
   -9.2539   -1.0032  -13.8244 O   0  0  0  0  0  0  0  0  0  0  0  0
   -9.3388   -3.9024  -17.0437 H   0  0  0  0  0  0  0  0  0  0  0  0
  -10.3518   -2.5370  -16.5804 H   0  0  0  0  0  0  0  0  0  0  0  0
   -8.6209   -0.2502  -19.2085 H   0  0  0  0  0  0  0  0  0  0  0  0
   -9.8906   -0.1589  -17.9970 H   0  0  0  0  0  0  0  0  0  0  0  0
   -8.5473   -2.7184  -14.9622 H   0  0  0  0  0  0  0  0  0  0  0  0
   -7.3323   -2.7674  -16.2343 H   0  0  0  0  0  0  0  0  0  0  0  0
  -10.0223   -2.3741  -18.9768 H   0  0  0  0  0  0  0  0  0  0  0  0
   -6.9468   -0.7587  -17.5568 H   0  0  0  0  0  0  0  0  0  0  0  0
   -8.5069    1.7535  -16.8328 H   0  0  0  0  0  0  0  0  0  0  0  0
   -7.3869    1.5646  -18.1957 H   0  0  0  0  0  0  0  0  0  0  0  0
   -6.7835    1.4593  -16.5305 H   0  0  0  0  0  0  0  0  0  0  0  0
   -9.4892    1.5540  -13.0261 H   0  0  0  0  0  0  0  0  0  0  0  0
  -10.9865    0.6675  -12.6600 H   0  0  0  0  0  0  0  0  0  0  0  0
   -9.8966    1.1918  -11.3580 H   0  0  0  0  0  0  0  0  0  0  0  0
   -9.2449   -2.5292  -11.6396 H   0  0  0  0  0  0  0  0  0  0  0  0
  -10.8228   -1.8000  -11.8795 H   0  0  0  0  0  0  0  0  0  0  0  0
   -9.8052   -1.2633  -10.5245 H   0  0  0  0  0  0  0  0  0  0  0  0
   -7.1413   -1.2668  -12.1979 H   0  0  0  0  0  0  0  0  0  0  0  0
   -7.2174    0.4067  -12.7904 H   0  0  0  0  0  0  0  0  0  0  0  0
   -7.5824    0.0233  -11.0927 H   0  0  0  0  0  0  0  0  0  0  0  0
   -8.1528   -3.7561  -19.0824 H   0  0  0  0  0  0  0  0  0  0  0  0
   -7.8884   -2.3709  -19.9056 H   0  0  0  0  0  0  0  0  0  0  0  0
  1 12  1  0  0  0  0
  1 14  2  0  0  0  0
  1 15  1  0  0  0  0
  2  4  1  0  0  0  0
  2  5  1  0  0  0  0
  3  5  1  0  0  0  0
  3  6  1  0  0  0  0
  4 12  1  0  0  0  0
  5 13  1  1  0  0  0
  6  7  1  6  0  0  0
  6 12  1  0  0  0  0
  8 11  1  0  0  0  0
  9 11  1  0  0  0  0
 10 11  1  0  0  0  0
 11 15  1  0  0  0  0
  2 16  1  0  0  0  0
  2 17  1  0  0  0  0
  3 18  1  0  0  0  0
  3 19  1  0  0  0  0
  4 20  1  0  0  0  0
  4 21  1  0  0  0  0
  5 22  1  0  0  0  0
  6 23  1  0  0  0  0
  7 24  1  0  0  0  0
  7 25  1  0  0  0  0
  7 26  1  0  0  0  0
  8 27  1  0  0  0  0
  8 28  1  0  0  0  0
  8 29  1  0  0  0  0
  9 30  1  0  0  0  0
  9 31  1  0  0  0  0
  9 32  1  0  0  0  0
 10 33  1  0  0  0  0
 10 34  1  0  0  0  0
 10 35  1  0  0  0  0
 13 36  1  0  0  0  0
 13 37  1  0  0  0  0
M  END
> <id>
EN300-7088687

> <smiles>
C[C@@H]1C[C@@H](N)CCN1C(=O)OC(C)(C)C |&1:1,3,r|

> <MDLNUMBER>
MFCD24850075

> <IUPAC Name>
rac-tert-butyl (2R,4S)-4-amino-2-methylpiperidine-1-carboxylate

> <CAS>
1932370-65-4

> <URL>
https://www.enaminestore.com/catalog/EN300-7088687

> <ROCS_ShapeQuery>
amalgated

> <ROCS_TanimotoCombo>
0.878 

> <ROCS_ShapeTanimoto>
0.547 

> <ROCS_ColorTanimoto>
0.331 

> <ROCS_RefTversky>
0.502 

> <ROCS_RefColorTversky>
0.433 

> <ROCS_RefTverskyCombo>
0.935 

> <ROCS_FitTversky>
1.196 

> <ROCS_FitColorTversky>
0.585 

> <ROCS_FitTverskyCombo>
1.781 

> <ROCS_ColorScore>
-2.985

> <ROCS_Overlap>
821.836

> <ROCS_Rank>
76                  

$$$$
untitled-dbase-34833_45
  -OEChem-10092318153D

 44 45  0     0  0  0  0  0  0999 V2000
   -8.8404   -0.3036  -13.7121 C   0  0  0  0  0  0  0  0  0  0  0  0
   -7.5677    2.1186  -16.1754 C   0  0  0  0  0  0  0  0  0  0  0  0
   -9.7216   -1.5504  -17.9491 C   0  0  0  0  0  0  0  0  0  0  0  0
   -7.7337   -2.5142  -16.6451 C   0  0  0  0  0  0  0  0  0  0  0  0
   -8.3358    1.1791  -17.0930 C   0  0  0  0  0  0  0  0  0  0  0  0
   -9.8755   -0.7801  -16.6385 C   0  0  0  0  0  0  0  0  0  0  0  0
   -7.3257   -1.0585  -16.4248 C   0  0  0  0  0  0  0  0  0  0  0  0
   -8.1993    1.8507  -14.8242 C   0  0  0  0  0  0  0  0  0  0  0  0
   -8.6999   -2.6935  -17.8262 C   0  0  0  0  0  0  0  0  0  0  0  0
   -8.5412   -0.1052  -16.2402 C   0  0  0  0  0  0  0  0  0  0  0  0
   -8.3890   -0.8299  -10.9358 C   0  0  0  0  0  0  0  0  0  0  0  0
  -10.2195    0.8368  -10.5112 C   0  0  0  0  0  0  0  0  0  0  0  0
  -10.7195   -1.2749  -11.7757 C   0  0  0  0  0  0  0  0  0  0  0  0
   -9.6698   -0.2032  -11.4850 C   0  0  0  0  0  0  0  0  0  0  0  0
   -8.5716    0.4390  -14.8580 N   0  0  0  0  0  0  0  0  0  0  0  0
   -7.9785   -2.8276  -19.0941 N   0  0  0  0  0  0  0  0  0  0  0  0
   -8.6462   -1.5105  -13.5944 O   0  0  0  0  0  0  0  0  0  0  0  0
   -9.3580    0.4733  -12.7081 O   0  0  0  0  0  0  0  0  0  0  0  0
   -6.5056    1.8533  -16.1601 H   0  0  0  0  0  0  0  0  0  0  0  0
   -7.6604    3.1637  -16.4795 H   0  0  0  0  0  0  0  0  0  0  0  0
  -10.7013   -1.9581  -18.2418 H   0  0  0  0  0  0  0  0  0  0  0  0
   -9.4245   -0.8611  -18.7546 H   0  0  0  0  0  0  0  0  0  0  0  0
   -6.8353   -3.1344  -16.7968 H   0  0  0  0  0  0  0  0  0  0  0  0
   -8.2024   -2.8962  -15.7230 H   0  0  0  0  0  0  0  0  0  0  0  0
   -9.2998    1.6395  -17.3415 H   0  0  0  0  0  0  0  0  0  0  0  0
   -7.7962    1.0135  -18.0277 H   0  0  0  0  0  0  0  0  0  0  0  0
  -10.6649   -0.0359  -16.7438 H   0  0  0  0  0  0  0  0  0  0  0  0
  -10.1929   -1.4857  -15.8723 H   0  0  0  0  0  0  0  0  0  0  0  0
   -6.6902   -1.0204  -15.5329 H   0  0  0  0  0  0  0  0  0  0  0  0
   -6.7055   -0.7280  -17.2653 H   0  0  0  0  0  0  0  0  0  0  0  0
   -7.5192    2.0638  -13.9949 H   0  0  0  0  0  0  0  0  0  0  0  0
   -9.1187    2.4304  -14.6894 H   0  0  0  0  0  0  0  0  0  0  0  0
   -9.2681   -3.6383  -17.6726 H   0  0  0  0  0  0  0  0  0  0  0  0
   -7.9912   -1.5770  -11.6319 H   0  0  0  0  0  0  0  0  0  0  0  0
   -7.6158   -0.0758  -10.7560 H   0  0  0  0  0  0  0  0  0  0  0  0
   -8.5838   -1.3570   -9.9948 H   0  0  0  0  0  0  0  0  0  0  0  0
  -11.1385    1.2890  -10.9011 H   0  0  0  0  0  0  0  0  0  0  0  0
   -9.5063    1.6574  -10.3729 H   0  0  0  0  0  0  0  0  0  0  0  0
  -10.4374    0.3981   -9.5321 H   0  0  0  0  0  0  0  0  0  0  0  0
  -11.6383   -0.8256  -12.1696 H   0  0  0  0  0  0  0  0  0  0  0  0
  -10.3555   -2.0096  -12.5011 H   0  0  0  0  0  0  0  0  0  0  0  0
  -11.0022   -1.8025  -10.8576 H   0  0  0  0  0  0  0  0  0  0  0  0
   -7.3691   -3.6070  -19.0220 H   0  0  0  0  0  0  0  0  0  0  0  0
   -8.6452   -2.9677  -19.8152 H   0  0  0  0  0  0  0  0  0  0  0  0
  1 15  1  0  0  0  0
  1 17  2  0  0  0  0
  1 18  1  0  0  0  0
  2  5  1  0  0  0  0
  2  8  1  0  0  0  0
  3  6  1  0  0  0  0
  3  9  1  0  0  0  0
  4  7  1  0  0  0  0
  4  9  1  0  0  0  0
  5 10  1  0  0  0  0
  6 10  1  0  0  0  0
  7 10  1  0  0  0  0
  8 15  1  0  0  0  0
  9 16  1  0  0  0  0
 10 15  1  0  0  0  0
 11 14  1  0  0  0  0
 12 14  1  0  0  0  0
 13 14  1  0  0  0  0
 14 18  1  0  0  0  0
  2 19  1  0  0  0  0
  2 20  1  0  0  0  0
  3 21  1  0  0  0  0
  3 22  1  0  0  0  0
  4 23  1  0  0  0  0
  4 24  1  0  0  0  0
  5 25  1  0  0  0  0
  5 26  1  0  0  0  0
  6 27  1  0  0  0  0
  6 28  1  0  0  0  0
  7 29  1  0  0  0  0
  7 30  1  0  0  0  0
  8 31  1  0  0  0  0
  8 32  1  0  0  0  0
  9 33  1  0  0  0  0
 11 34  1  0  0  0  0
 11 35  1  0  0  0  0
 11 36  1  0  0  0  0
 12 37  1  0  0  0  0
 12 38  1  0  0  0  0
 12 39  1  0  0  0  0
 13 40  1  0  0  0  0
 13 41  1  0  0  0  0
 13 42  1  0  0  0  0
 16 43  1  0  0  0  0
 16 44  1  0  0  0  0
M  END
> <id>
EN300-7355004

> <smiles>
CC(C)(C)OC(=O)N1CCCC21CCC(N)CC2

> <MDLNUMBER>
MFCD28139845

> <IUPAC Name>
tert-butyl 8-amino-1-azaspiro[4.5]decane-1-carboxylate

> <CAS>
1823492-83-6

> <Purity>
95

> <URL>
https://www.enaminestore.com/catalog/EN300-7355004

> <ROCS_ShapeQuery>
amalgated

> <ROCS_TanimotoCombo>
0.878 

> <ROCS_ShapeTanimoto>
0.591 

> <ROCS_ColorTanimoto>
0.287 

> <ROCS_RefTversky>
0.558 

> <ROCS_RefColorTversky>
0.417 

> <ROCS_RefTverskyCombo>
0.975 

> <ROCS_FitTversky>
1.111 

> <ROCS_FitColorTversky>
0.479 

> <ROCS_FitTverskyCombo>
1.590 

> <ROCS_ColorScore>
-2.896

> <ROCS_Overlap>
918.097

> <ROCS_Rank>
77                  

$$$$
untitled-dbase-39266_7
  -OEChem-10092318153D

 32 34  0     0  0  0  0  0  0999 V2000
   -8.0986   -2.0443  -18.2509 C   0  0  0  0  0  0  0  0  0  0  0  0
   -9.1678   -2.7232  -17.6720 C   0  0  0  0  0  0  0  0  0  0  0  0
   -7.5605   -0.9233  -17.6185 C   0  0  0  0  0  0  0  0  0  0  0  0
   -9.6939   -2.2856  -16.4576 C   0  0  0  0  0  0  0  0  0  0  0  0
   -8.0894   -0.4691  -16.4024 C   0  0  0  0  0  0  0  0  0  0  0  0
   -9.1488   -1.1692  -15.8166 C   0  0  0  0  0  0  0  0  0  0  0  0
   -7.4978    0.7381  -15.7398 C   0  0  0  0  0  0  0  0  0  0  0  0
   -8.4284    1.2653  -14.6557 C   0  0  0  0  0  0  0  0  0  0  0  0
   -7.9795   -0.6449  -12.9645 C   0  0  0  0  0  0  0  0  0  0  0  0
  -10.0968    0.7514  -12.8632 C   0  0  0  0  0  0  0  0  0  0  0  0
   -7.8396   -0.0806  -11.5536 C   0  0  0  0  0  0  0  0  0  0  0  0
  -10.2925   -0.0920  -11.6043 C   0  0  0  0  0  0  0  0  0  0  0  0
   -9.0278    0.1326  -13.8006 C   0  0  0  0  0  0  0  0  0  0  0  0
   -9.0814   -0.1550  -10.7837 N   0  0  0  0  0  0  0  0  0  0  0  0
   -9.7335   -0.8172  -14.6299 O   0  0  0  0  0  0  0  0  0  0  0  0
   -7.6821   -2.3884  -19.1928 H   0  0  0  0  0  0  0  0  0  0  0  0
   -9.5934   -3.5906  -18.1674 H   0  0  0  0  0  0  0  0  0  0  0  0
   -6.7208   -0.4063  -18.0773 H   0  0  0  0  0  0  0  0  0  0  0  0
  -10.5352   -2.8158  -16.0179 H   0  0  0  0  0  0  0  0  0  0  0  0
   -6.5278    0.4891  -15.2889 H   0  0  0  0  0  0  0  0  0  0  0  0
   -7.3180    1.5111  -16.4985 H   0  0  0  0  0  0  0  0  0  0  0  0
   -7.8469    1.9357  -14.0022 H   0  0  0  0  0  0  0  0  0  0  0  0
   -9.2186    1.8795  -15.1117 H   0  0  0  0  0  0  0  0  0  0  0  0
   -7.0051   -0.6112  -13.4668 H   0  0  0  0  0  0  0  0  0  0  0  0
   -8.2735   -1.6980  -12.8880 H   0  0  0  0  0  0  0  0  0  0  0  0
  -11.0631    0.8259  -13.3684 H   0  0  0  0  0  0  0  0  0  0  0  0
   -9.7938    1.7645  -12.5792 H   0  0  0  0  0  0  0  0  0  0  0  0
   -7.0287   -0.5950  -11.0087 H   0  0  0  0  0  0  0  0  0  0  0  0
   -7.5325    0.9762  -11.6204 H   0  0  0  0  0  0  0  0  0  0  0  0
  -11.0995    0.3484  -11.0022 H   0  0  0  0  0  0  0  0  0  0  0  0
  -10.6222   -1.1084  -11.8670 H   0  0  0  0  0  0  0  0  0  0  0  0
   -9.0888   -1.0312  -10.2429 H   0  0  0  0  0  0  0  0  0  0  0  0
  1  2  2  0  0  0  0
  1  3  1  0  0  0  0
  2  4  1  0  0  0  0
  3  5  2  0  0  0  0
  4  6  2  0  0  0  0
  5  6  1  0  0  0  0
  5  7  1  0  0  0  0
  6 15  1  0  0  0  0
  7  8  1  0  0  0  0
  8 13  1  0  0  0  0
  9 11  1  0  0  0  0
  9 13  1  0  0  0  0
 10 12  1  0  0  0  0
 10 13  1  0  0  0  0
 11 14  1  0  0  0  0
 12 14  1  0  0  0  0
 13 15  1  0  0  0  0
  1 16  1  0  0  0  0
  2 17  1  0  0  0  0
  3 18  1  0  0  0  0
  4 19  1  0  0  0  0
  7 20  1  0  0  0  0
  7 21  1  0  0  0  0
  8 22  1  0  0  0  0
  8 23  1  0  0  0  0
  9 24  1  0  0  0  0
  9 25  1  0  0  0  0
 10 26  1  0  0  0  0
 10 27  1  0  0  0  0
 11 28  1  0  0  0  0
 11 29  1  0  0  0  0
 12 30  1  0  0  0  0
 12 31  1  0  0  0  0
 14 32  1  0  0  0  0
M  END
> <id>
EN300-202778

> <smiles>
C1CC2(CCN1)CCC=3C=CC=CC3O2

> <MDLNUMBER>
MFCD09751458

> <IUPAC Name>
3,4-dihydrospiro[1-benzopyran-2,4'-piperidine]

> <CAS>
147372-85-8

> <URL>
https://www.enaminestore.com/catalog/EN300-202778

> <ROCS_ShapeQuery>
amalgated

> <ROCS_TanimotoCombo>
0.878 

> <ROCS_ShapeTanimoto>
0.542 

> <ROCS_ColorTanimoto>
0.335 

> <ROCS_RefTversky>
0.508 

> <ROCS_RefColorTversky>
0.470 

> <ROCS_RefTverskyCombo>
0.978 

> <ROCS_FitTversky>
1.145 

> <ROCS_FitColorTversky>
0.539 

> <ROCS_FitTverskyCombo>
1.684 

> <ROCS_ColorScore>
-3.266

> <ROCS_Overlap>
832.248

> <ROCS_Rank>
78                  

$$$$
untitled-dbase-5909_7
  -OEChem-10092318153D

 32 34  0     0  0  0  0  0  0999 V2000
   -8.0986   -2.0443  -18.2509 C   0  0  0  0  0  0  0  0  0  0  0  0
   -9.1678   -2.7232  -17.6720 C   0  0  0  0  0  0  0  0  0  0  0  0
   -7.5605   -0.9233  -17.6185 C   0  0  0  0  0  0  0  0  0  0  0  0
   -9.6939   -2.2856  -16.4576 C   0  0  0  0  0  0  0  0  0  0  0  0
   -8.0894   -0.4691  -16.4024 C   0  0  0  0  0  0  0  0  0  0  0  0
   -9.1488   -1.1692  -15.8166 C   0  0  0  0  0  0  0  0  0  0  0  0
   -7.4978    0.7381  -15.7398 C   0  0  0  0  0  0  0  0  0  0  0  0
   -8.4284    1.2653  -14.6557 C   0  0  0  0  0  0  0  0  0  0  0  0
   -7.9795   -0.6449  -12.9645 C   0  0  0  0  0  0  0  0  0  0  0  0
  -10.0968    0.7514  -12.8632 C   0  0  0  0  0  0  0  0  0  0  0  0
   -7.8396   -0.0806  -11.5536 C   0  0  0  0  0  0  0  0  0  0  0  0
  -10.2925   -0.0920  -11.6043 C   0  0  0  0  0  0  0  0  0  0  0  0
   -9.0278    0.1326  -13.8006 C   0  0  0  0  0  0  0  0  0  0  0  0
   -9.0814   -0.1550  -10.7837 N   0  0  0  0  0  0  0  0  0  0  0  0
   -9.7335   -0.8172  -14.6299 O   0  0  0  0  0  0  0  0  0  0  0  0
   -7.6821   -2.3884  -19.1928 H   0  0  0  0  0  0  0  0  0  0  0  0
   -9.5934   -3.5906  -18.1674 H   0  0  0  0  0  0  0  0  0  0  0  0
   -6.7208   -0.4063  -18.0773 H   0  0  0  0  0  0  0  0  0  0  0  0
  -10.5352   -2.8158  -16.0179 H   0  0  0  0  0  0  0  0  0  0  0  0
   -6.5278    0.4891  -15.2889 H   0  0  0  0  0  0  0  0  0  0  0  0
   -7.3180    1.5111  -16.4985 H   0  0  0  0  0  0  0  0  0  0  0  0
   -7.8469    1.9357  -14.0022 H   0  0  0  0  0  0  0  0  0  0  0  0
   -9.2186    1.8795  -15.1117 H   0  0  0  0  0  0  0  0  0  0  0  0
   -7.0051   -0.6112  -13.4668 H   0  0  0  0  0  0  0  0  0  0  0  0
   -8.2735   -1.6980  -12.8880 H   0  0  0  0  0  0  0  0  0  0  0  0
  -11.0631    0.8259  -13.3684 H   0  0  0  0  0  0  0  0  0  0  0  0
   -9.7938    1.7645  -12.5792 H   0  0  0  0  0  0  0  0  0  0  0  0
   -7.0287   -0.5950  -11.0087 H   0  0  0  0  0  0  0  0  0  0  0  0
   -7.5325    0.9762  -11.6204 H   0  0  0  0  0  0  0  0  0  0  0  0
  -11.0995    0.3484  -11.0022 H   0  0  0  0  0  0  0  0  0  0  0  0
  -10.6222   -1.1084  -11.8670 H   0  0  0  0  0  0  0  0  0  0  0  0
   -9.0888   -1.0312  -10.2429 H   0  0  0  0  0  0  0  0  0  0  0  0
  1  2  2  0  0  0  0
  1  3  1  0  0  0  0
  2  4  1  0  0  0  0
  3  5  2  0  0  0  0
  4  6  2  0  0  0  0
  5  6  1  0  0  0  0
  5  7  1  0  0  0  0
  6 15  1  0  0  0  0
  7  8  1  0  0  0  0
  8 13  1  0  0  0  0
  9 11  1  0  0  0  0
  9 13  1  0  0  0  0
 10 12  1  0  0  0  0
 10 13  1  0  0  0  0
 11 14  1  0  0  0  0
 12 14  1  0  0  0  0
 13 15  1  0  0  0  0
  1 16  1  0  0  0  0
  2 17  1  0  0  0  0
  3 18  1  0  0  0  0
  4 19  1  0  0  0  0
  7 20  1  0  0  0  0
  7 21  1  0  0  0  0
  8 22  1  0  0  0  0
  8 23  1  0  0  0  0
  9 24  1  0  0  0  0
  9 25  1  0  0  0  0
 10 26  1  0  0  0  0
 10 27  1  0  0  0  0
 11 28  1  0  0  0  0
 11 29  1  0  0  0  0
 12 30  1  0  0  0  0
 12 31  1  0  0  0  0
 14 32  1  0  0  0  0
M  END
> <id>
EN300-237432

> <smiles>
Cl.C1CC2(CCN1)CCC=3C=CC=CC3O2

> <MDLNUMBER>
MFCD16661064

> <IUPAC Name>
3,4-dihydrospiro[1-benzopyran-2,4'-piperidine] hydrochloride

> <CAS>
400729-14-8

> <Purity>
95

> <URL>
https://www.enaminestore.com/catalog/EN300-237432

> <Saltdate>
Cl

> <MP>
220-222

> <ROCS_ShapeQuery>
amalgated

> <ROCS_TanimotoCombo>
0.878 

> <ROCS_ShapeTanimoto>
0.542 

> <ROCS_ColorTanimoto>
0.335 

> <ROCS_RefTversky>
0.508 

> <ROCS_RefColorTversky>
0.470 

> <ROCS_RefTverskyCombo>
0.978 

> <ROCS_FitTversky>
1.145 

> <ROCS_FitColorTversky>
0.539 

> <ROCS_FitTverskyCombo>
1.684 

> <ROCS_ColorScore>
-3.266

> <ROCS_Overlap>
832.248

> <ROCS_Rank>
79                  

$$$$
untitled-dbase-49670_30
  -OEChem-10092318153D

 45 47  0     0  0  0  0  0  0999 V2000
   -7.2475    2.3279  -16.2770 C   0  0  0  0  0  0  0  0  0  0  0  0
   -7.4964    1.5633  -17.4231 C   0  0  0  0  0  0  0  0  0  0  0  0
   -7.6363    1.8628  -15.0207 C   0  0  0  0  0  0  0  0  0  0  0  0
   -8.1369    0.3249  -17.3287 C   0  0  0  0  0  0  0  0  0  0  0  0
   -8.2736    0.6301  -14.9281 C   0  0  0  0  0  0  0  0  0  0  0  0
   -8.5205   -0.1300  -16.0744 C   0  0  0  0  0  0  0  0  0  0  0  0
   -9.5730   -2.3304  -16.6058 C   0  0  0  0  0  0  0  0  0  0  0  0
   -7.6241   -0.3565  -12.6945 C   0  0  0  0  0  0  0  0  0  0  0  0
   -9.8533    0.7792  -12.9615 C   0  0  0  0  0  0  0  0  0  0  0  0
   -8.1335   -0.9374  -11.3737 C   0  0  0  0  0  0  0  0  0  0  0  0
  -10.2759    0.1541  -11.6303 C   0  0  0  0  0  0  0  0  0  0  0  0
   -9.3691   -1.3653  -14.2711 C   0  0  0  0  0  0  0  0  0  0  0  0
   -8.7740   -0.0574  -13.6770 C   0  0  0  0  0  0  0  0  0  0  0  0
   -9.0438   -4.3052  -18.6109 C   0  0  0  0  0  0  0  0  0  0  0  0
   -8.1649   -2.4011  -19.9933 C   0  0  0  0  0  0  0  0  0  0  0  0
   -7.0546   -2.9833  -17.8169 C   0  0  0  0  0  0  0  0  0  0  0  0
   -8.3793   -2.9297  -18.5767 C   0  0  0  0  0  0  0  0  0  0  0  0
   -9.1262   -0.0615  -10.7526 N   0  0  0  0  0  0  0  0  0  0  0  0
   -9.1708   -1.3284  -15.7324 N   0  0  0  0  0  0  0  0  0  0  0  0
  -10.1414   -3.3729  -16.2938 O   0  0  0  0  0  0  0  0  0  0  0  0
   -9.2545   -2.0174  -17.9035 O   0  0  0  0  0  0  0  0  0  0  0  0
   -6.7485    3.2886  -16.3676 H   0  0  0  0  0  0  0  0  0  0  0  0
   -7.1883    1.9375  -18.3958 H   0  0  0  0  0  0  0  0  0  0  0  0
   -7.4398    2.4603  -14.1364 H   0  0  0  0  0  0  0  0  0  0  0  0
   -8.3141   -0.2405  -18.2353 H   0  0  0  0  0  0  0  0  0  0  0  0
   -7.0673    0.5651  -12.4762 H   0  0  0  0  0  0  0  0  0  0  0  0
   -6.8996   -1.0480  -13.1437 H   0  0  0  0  0  0  0  0  0  0  0  0
  -10.7350    0.9057  -13.6030 H   0  0  0  0  0  0  0  0  0  0  0  0
   -9.4749    1.7916  -12.7646 H   0  0  0  0  0  0  0  0  0  0  0  0
   -8.5544   -1.9383  -11.5248 H   0  0  0  0  0  0  0  0  0  0  0  0
   -7.2876   -1.0516  -10.6868 H   0  0  0  0  0  0  0  0  0  0  0  0
  -10.9787    0.8288  -11.1288 H   0  0  0  0  0  0  0  0  0  0  0  0
  -10.8081   -0.7900  -11.7948 H   0  0  0  0  0  0  0  0  0  0  0  0
   -8.8794   -2.2695  -13.8909 H   0  0  0  0  0  0  0  0  0  0  0  0
  -10.4442   -1.4696  -14.0837 H   0  0  0  0  0  0  0  0  0  0  0  0
   -9.1995   -4.6881  -17.5959 H   0  0  0  0  0  0  0  0  0  0  0  0
  -10.0113   -4.2732  -19.1226 H   0  0  0  0  0  0  0  0  0  0  0  0
   -8.4058   -5.0351  -19.1222 H   0  0  0  0  0  0  0  0  0  0  0  0
   -7.6884   -1.4143  -19.9735 H   0  0  0  0  0  0  0  0  0  0  0  0
   -9.1225   -2.2711  -20.5104 H   0  0  0  0  0  0  0  0  0  0  0  0
   -7.5396   -3.0763  -20.5862 H   0  0  0  0  0  0  0  0  0  0  0  0
   -6.5778   -1.9968  -17.7923 H   0  0  0  0  0  0  0  0  0  0  0  0
   -7.1943   -3.3255  -16.7864 H   0  0  0  0  0  0  0  0  0  0  0  0
   -6.3471   -3.6564  -18.3145 H   0  0  0  0  0  0  0  0  0  0  0  0
   -9.4440   -0.4798   -9.8788 H   0  0  0  0  0  0  0  0  0  0  0  0
  1  2  2  0  0  0  0
  1  3  1  0  0  0  0
  2  4  1  0  0  0  0
  3  5  2  0  0  0  0
  4  6  2  0  0  0  0
  5  6  1  0  0  0  0
  5 13  1  0  0  0  0
  6 19  1  0  0  0  0
  7 19  1  0  0  0  0
  7 20  2  0  0  0  0
  7 21  1  0  0  0  0
  8 10  1  0  0  0  0
  8 13  1  0  0  0  0
  9 11  1  0  0  0  0
  9 13  1  0  0  0  0
 10 18  1  0  0  0  0
 11 18  1  0  0  0  0
 12 13  1  0  0  0  0
 12 19  1  0  0  0  0
 14 17  1  0  0  0  0
 15 17  1  0  0  0  0
 16 17  1  0  0  0  0
 17 21  1  0  0  0  0
  1 22  1  0  0  0  0
  2 23  1  0  0  0  0
  3 24  1  0  0  0  0
  4 25  1  0  0  0  0
  8 26  1  0  0  0  0
  8 27  1  0  0  0  0
  9 28  1  0  0  0  0
  9 29  1  0  0  0  0
 10 30  1  0  0  0  0
 10 31  1  0  0  0  0
 11 32  1  0  0  0  0
 11 33  1  0  0  0  0
 12 34  1  0  0  0  0
 12 35  1  0  0  0  0
 14 36  1  0  0  0  0
 14 37  1  0  0  0  0
 14 38  1  0  0  0  0
 15 39  1  0  0  0  0
 15 40  1  0  0  0  0
 15 41  1  0  0  0  0
 16 42  1  0  0  0  0
 16 43  1  0  0  0  0
 16 44  1  0  0  0  0
 18 45  1  0  0  0  0
M  END
> <id>
EN300-3351736

> <smiles>
CC(C)(C)OC(=O)N1CC2(CCNCC2)C=3C=CC=CC13

> <MDLNUMBER>
MFCD09266212

> <IUPAC Name>
tert-butyl 1,2-dihydrospiro[indole-3,4'-piperidine]-1-carboxylate

> <CAS>
676607-31-1

> <URL>
https://www.enaminestore.com/catalog/EN300-3351736

> <ROCS_ShapeQuery>
amalgated

> <ROCS_TanimotoCombo>
0.877 

> <ROCS_ShapeTanimoto>
0.680 

> <ROCS_ColorTanimoto>
0.198 

> <ROCS_RefTversky>
0.646 

> <ROCS_RefColorTversky>
0.331 

> <ROCS_RefTverskyCombo>
0.977 

> <ROCS_FitTversky>
1.083 

> <ROCS_FitColorTversky>
0.330 

> <ROCS_FitTverskyCombo>
1.413 

> <ROCS_ColorScore>
-2.316

> <ROCS_Overlap>
1067.503

> <ROCS_Rank>
80                  

$$$$
untitled-dbase-26190_30
  -OEChem-10092318153D

 45 47  0     0  0  0  0  0  0999 V2000
   -7.2475    2.3279  -16.2770 C   0  0  0  0  0  0  0  0  0  0  0  0
   -7.4964    1.5633  -17.4231 C   0  0  0  0  0  0  0  0  0  0  0  0
   -7.6363    1.8628  -15.0207 C   0  0  0  0  0  0  0  0  0  0  0  0
   -8.1369    0.3249  -17.3287 C   0  0  0  0  0  0  0  0  0  0  0  0
   -8.2736    0.6301  -14.9281 C   0  0  0  0  0  0  0  0  0  0  0  0
   -8.5205   -0.1300  -16.0744 C   0  0  0  0  0  0  0  0  0  0  0  0
   -9.5730   -2.3304  -16.6058 C   0  0  0  0  0  0  0  0  0  0  0  0
   -7.6241   -0.3565  -12.6945 C   0  0  0  0  0  0  0  0  0  0  0  0
   -9.8533    0.7792  -12.9615 C   0  0  0  0  0  0  0  0  0  0  0  0
   -8.1335   -0.9374  -11.3737 C   0  0  0  0  0  0  0  0  0  0  0  0
  -10.2759    0.1541  -11.6303 C   0  0  0  0  0  0  0  0  0  0  0  0
   -9.3691   -1.3653  -14.2711 C   0  0  0  0  0  0  0  0  0  0  0  0
   -8.7740   -0.0574  -13.6770 C   0  0  0  0  0  0  0  0  0  0  0  0
   -9.0438   -4.3052  -18.6109 C   0  0  0  0  0  0  0  0  0  0  0  0
   -8.1649   -2.4011  -19.9933 C   0  0  0  0  0  0  0  0  0  0  0  0
   -7.0546   -2.9833  -17.8169 C   0  0  0  0  0  0  0  0  0  0  0  0
   -8.3793   -2.9297  -18.5767 C   0  0  0  0  0  0  0  0  0  0  0  0
   -9.1262   -0.0615  -10.7526 N   0  0  0  0  0  0  0  0  0  0  0  0
   -9.1708   -1.3284  -15.7324 N   0  0  0  0  0  0  0  0  0  0  0  0
  -10.1414   -3.3729  -16.2938 O   0  0  0  0  0  0  0  0  0  0  0  0
   -9.2545   -2.0174  -17.9035 O   0  0  0  0  0  0  0  0  0  0  0  0
   -6.7485    3.2886  -16.3676 H   0  0  0  0  0  0  0  0  0  0  0  0
   -7.1883    1.9375  -18.3958 H   0  0  0  0  0  0  0  0  0  0  0  0
   -7.4398    2.4603  -14.1364 H   0  0  0  0  0  0  0  0  0  0  0  0
   -8.3141   -0.2405  -18.2353 H   0  0  0  0  0  0  0  0  0  0  0  0
   -7.0673    0.5651  -12.4762 H   0  0  0  0  0  0  0  0  0  0  0  0
   -6.8996   -1.0480  -13.1437 H   0  0  0  0  0  0  0  0  0  0  0  0
  -10.7350    0.9057  -13.6030 H   0  0  0  0  0  0  0  0  0  0  0  0
   -9.4749    1.7916  -12.7646 H   0  0  0  0  0  0  0  0  0  0  0  0
   -8.5544   -1.9383  -11.5248 H   0  0  0  0  0  0  0  0  0  0  0  0
   -7.2876   -1.0516  -10.6868 H   0  0  0  0  0  0  0  0  0  0  0  0
  -10.9787    0.8288  -11.1288 H   0  0  0  0  0  0  0  0  0  0  0  0
  -10.8081   -0.7900  -11.7948 H   0  0  0  0  0  0  0  0  0  0  0  0
   -8.8794   -2.2695  -13.8909 H   0  0  0  0  0  0  0  0  0  0  0  0
  -10.4442   -1.4696  -14.0837 H   0  0  0  0  0  0  0  0  0  0  0  0
   -9.1995   -4.6881  -17.5959 H   0  0  0  0  0  0  0  0  0  0  0  0
  -10.0113   -4.2732  -19.1226 H   0  0  0  0  0  0  0  0  0  0  0  0
   -8.4058   -5.0351  -19.1222 H   0  0  0  0  0  0  0  0  0  0  0  0
   -7.6884   -1.4143  -19.9735 H   0  0  0  0  0  0  0  0  0  0  0  0
   -9.1225   -2.2711  -20.5104 H   0  0  0  0  0  0  0  0  0  0  0  0
   -7.5396   -3.0763  -20.5862 H   0  0  0  0  0  0  0  0  0  0  0  0
   -6.5778   -1.9968  -17.7923 H   0  0  0  0  0  0  0  0  0  0  0  0
   -7.1943   -3.3255  -16.7864 H   0  0  0  0  0  0  0  0  0  0  0  0
   -6.3471   -3.6564  -18.3145 H   0  0  0  0  0  0  0  0  0  0  0  0
   -9.4440   -0.4798   -9.8788 H   0  0  0  0  0  0  0  0  0  0  0  0
  1  2  2  0  0  0  0
  1  3  1  0  0  0  0
  2  4  1  0  0  0  0
  3  5  2  0  0  0  0
  4  6  2  0  0  0  0
  5  6  1  0  0  0  0
  5 13  1  0  0  0  0
  6 19  1  0  0  0  0
  7 19  1  0  0  0  0
  7 20  2  0  0  0  0
  7 21  1  0  0  0  0
  8 10  1  0  0  0  0
  8 13  1  0  0  0  0
  9 11  1  0  0  0  0
  9 13  1  0  0  0  0
 10 18  1  0  0  0  0
 11 18  1  0  0  0  0
 12 13  1  0  0  0  0
 12 19  1  0  0  0  0
 14 17  1  0  0  0  0
 15 17  1  0  0  0  0
 16 17  1  0  0  0  0
 17 21  1  0  0  0  0
  1 22  1  0  0  0  0
  2 23  1  0  0  0  0
  3 24  1  0  0  0  0
  4 25  1  0  0  0  0
  8 26  1  0  0  0  0
  8 27  1  0  0  0  0
  9 28  1  0  0  0  0
  9 29  1  0  0  0  0
 10 30  1  0  0  0  0
 10 31  1  0  0  0  0
 11 32  1  0  0  0  0
 11 33  1  0  0  0  0
 12 34  1  0  0  0  0
 12 35  1  0  0  0  0
 14 36  1  0  0  0  0
 14 37  1  0  0  0  0
 14 38  1  0  0  0  0
 15 39  1  0  0  0  0
 15 40  1  0  0  0  0
 15 41  1  0  0  0  0
 16 42  1  0  0  0  0
 16 43  1  0  0  0  0
 16 44  1  0  0  0  0
 18 45  1  0  0  0  0
M  END
> <id>
EN300-6738758

> <smiles>
Cl.CC(C)(C)OC(=O)N1CC2(CCNCC2)C=3C=CC=CC13

> <MDLNUMBER>
MFCD15071705

> <IUPAC Name>
tert-butyl 1,2-dihydrospiro[indole-3,4'-piperidine]-1-carboxylate hydrochloride

> <CAS>
1243474-66-9

> <Purity>
95

> <URL>
https://www.enaminestore.com/catalog/EN300-6738758

> <Saltdate>
Cl

> <ROCS_ShapeQuery>
amalgated

> <ROCS_TanimotoCombo>
0.877 

> <ROCS_ShapeTanimoto>
0.680 

> <ROCS_ColorTanimoto>
0.198 

> <ROCS_RefTversky>
0.646 

> <ROCS_RefColorTversky>
0.331 

> <ROCS_RefTverskyCombo>
0.977 

> <ROCS_FitTversky>
1.083 

> <ROCS_FitColorTversky>
0.330 

> <ROCS_FitTverskyCombo>
1.413 

> <ROCS_ColorScore>
-2.316

> <ROCS_Overlap>
1067.503

> <ROCS_Rank>
81                  

$$$$
untitled-dbase-35462_0
  -OEChem-10092318153D

 28 30  0     0  0  0  0  0  0999 V2000
   -8.3792   -2.5472  -16.4462 C   0  0  0  0  0  0  0  0  0  0  0  0
   -8.5186   -0.6834  -17.5340 C   0  0  0  0  0  0  0  0  0  0  0  0
   -9.7247   -0.6907  -15.2163 C   0  0  0  0  0  0  0  0  0  0  0  0
   -7.5528   -0.4638  -15.1060 C   0  0  0  0  0  0  0  0  0  0  0  0
   -8.8882    0.7399  -13.2036 C   0  0  0  0  0  0  0  0  0  0  0  0
   -8.6771   -1.3959  -12.9474 C   0  0  0  0  0  0  0  0  0  0  0  0
   -8.9255   -2.1491  -17.8434 C   0  0  0  0  0  0  0  0  0  0  0  0
   -8.5344   -1.0843  -16.0779 C   0  0  0  0  0  0  0  0  0  0  0  0
   -8.7012   -0.4408  -14.1184 C   0  0  0  0  0  0  0  0  0  0  0  0
   -9.3625   -0.2710  -12.1212 C   0  0  0  0  0  0  0  0  0  0  0  0
   -8.0422   -2.6827  -18.8711 N   0  0  0  0  0  0  0  0  0  0  0  0
  -10.7045   -0.3885  -11.9938 F   0  0  0  0  0  0  0  0  0  0  0  0
   -8.8661   -0.0730  -10.8798 F   0  0  0  0  0  0  0  0  0  0  0  0
   -8.9995   -3.2586  -15.8926 H   0  0  0  0  0  0  0  0  0  0  0  0
   -7.3417   -2.9030  -16.4230 H   0  0  0  0  0  0  0  0  0  0  0  0
   -7.5296   -0.3752  -17.8954 H   0  0  0  0  0  0  0  0  0  0  0  0
   -9.2483    0.0728  -17.8380 H   0  0  0  0  0  0  0  0  0  0  0  0
  -10.2466    0.2110  -15.5570 H   0  0  0  0  0  0  0  0  0  0  0  0
  -10.4678   -1.4698  -15.0233 H   0  0  0  0  0  0  0  0  0  0  0  0
   -6.6891   -1.0760  -14.8316 H   0  0  0  0  0  0  0  0  0  0  0  0
   -7.1978    0.5299  -15.4026 H   0  0  0  0  0  0  0  0  0  0  0  0
   -7.9631    1.2607  -12.9325 H   0  0  0  0  0  0  0  0  0  0  0  0
   -9.6348    1.4793  -13.5052 H   0  0  0  0  0  0  0  0  0  0  0  0
   -9.2590   -2.3159  -13.0506 H   0  0  0  0  0  0  0  0  0  0  0  0
   -7.6766   -1.6504  -12.5801 H   0  0  0  0  0  0  0  0  0  0  0  0
   -9.9916   -2.3195  -17.9922 H   0  0  0  0  0  0  0  0  0  0  0  0
   -8.1712   -3.6666  -18.9151 H   0  0  0  0  0  0  0  0  0  0  0  0
   -8.2805   -2.2605  -19.7381 H   0  0  0  0  0  0  0  0  0  0  0  0
  1  7  1  0  0  0  0
  1  8  1  0  0  0  0
  2  7  1  0  0  0  0
  2  8  1  0  0  0  0
  3  8  1  0  0  0  0
  3  9  1  0  0  0  0
  4  8  1  0  0  0  0
  4  9  1  0  0  0  0
  5  9  1  0  0  0  0
  5 10  1  0  0  0  0
  6  9  1  0  0  0  0
  6 10  1  0  0  0  0
  7 11  1  0  0  0  0
 10 12  1  0  0  0  0
 10 13  1  0  0  0  0
  1 14  1  0  0  0  0
  1 15  1  0  0  0  0
  2 16  1  0  0  0  0
  2 17  1  0  0  0  0
  3 18  1  0  0  0  0
  3 19  1  0  0  0  0
  4 20  1  0  0  0  0
  4 21  1  0  0  0  0
  5 22  1  0  0  0  0
  5 23  1  0  0  0  0
  6 24  1  0  0  0  0
  6 25  1  0  0  0  0
  7 26  1  0  0  0  0
 11 27  1  0  0  0  0
 11 28  1  0  0  0  0
M  END
> <id>
EN300-26690376

> <smiles>
NC1CC2(C1)CC3(CC(F)(F)C3)C2

> <MDLNUMBER>
MFCD32679038

> <IUPAC Name>
8,8-difluorodispiro[3.1.3^{6}.1^{4}]decan-2-amine

> <CAS>
2418720-30-4

> <URL>
https://www.enaminestore.com/catalog/EN300-26690376

> <ROCS_ShapeQuery>
amalgated

> <ROCS_TanimotoCombo>
0.877 

> <ROCS_ShapeTanimoto>
0.482 

> <ROCS_ColorTanimoto>
0.395 

> <ROCS_RefTversky>
0.452 

> <ROCS_RefColorTversky>
0.495 

> <ROCS_RefTverskyCombo>
0.947 

> <ROCS_FitTversky>
1.158 

> <ROCS_FitColorTversky>
0.663 

> <ROCS_FitTverskyCombo>
1.821 

> <ROCS_ColorScore>
-3.416

> <ROCS_Overlap>
739.209

> <ROCS_Rank>
82                  

$$$$
untitled-dbase-35460_0
  -OEChem-10092318153D

 28 30  0     0  0  0  0  0  0999 V2000
   -8.3792   -2.5472  -16.4462 C   0  0  0  0  0  0  0  0  0  0  0  0
   -8.5186   -0.6834  -17.5340 C   0  0  0  0  0  0  0  0  0  0  0  0
   -9.7247   -0.6907  -15.2163 C   0  0  0  0  0  0  0  0  0  0  0  0
   -7.5528   -0.4638  -15.1060 C   0  0  0  0  0  0  0  0  0  0  0  0
   -8.8882    0.7399  -13.2036 C   0  0  0  0  0  0  0  0  0  0  0  0
   -8.6771   -1.3959  -12.9474 C   0  0  0  0  0  0  0  0  0  0  0  0
   -8.9255   -2.1491  -17.8434 C   0  0  0  0  0  0  0  0  0  0  0  0
   -8.5344   -1.0843  -16.0779 C   0  0  0  0  0  0  0  0  0  0  0  0
   -8.7012   -0.4408  -14.1184 C   0  0  0  0  0  0  0  0  0  0  0  0
   -9.3625   -0.2710  -12.1212 C   0  0  0  0  0  0  0  0  0  0  0  0
   -8.0422   -2.6827  -18.8711 N   0  0  0  0  0  0  0  0  0  0  0  0
  -10.7045   -0.3885  -11.9938 F   0  0  0  0  0  0  0  0  0  0  0  0
   -8.8661   -0.0730  -10.8798 F   0  0  0  0  0  0  0  0  0  0  0  0
   -8.9995   -3.2586  -15.8926 H   0  0  0  0  0  0  0  0  0  0  0  0
   -7.3417   -2.9030  -16.4230 H   0  0  0  0  0  0  0  0  0  0  0  0
   -7.5296   -0.3752  -17.8954 H   0  0  0  0  0  0  0  0  0  0  0  0
   -9.2483    0.0728  -17.8380 H   0  0  0  0  0  0  0  0  0  0  0  0
  -10.2466    0.2110  -15.5570 H   0  0  0  0  0  0  0  0  0  0  0  0
  -10.4678   -1.4698  -15.0233 H   0  0  0  0  0  0  0  0  0  0  0  0
   -6.6891   -1.0760  -14.8316 H   0  0  0  0  0  0  0  0  0  0  0  0
   -7.1978    0.5299  -15.4026 H   0  0  0  0  0  0  0  0  0  0  0  0
   -7.9631    1.2607  -12.9325 H   0  0  0  0  0  0  0  0  0  0  0  0
   -9.6348    1.4793  -13.5052 H   0  0  0  0  0  0  0  0  0  0  0  0
   -9.2590   -2.3159  -13.0506 H   0  0  0  0  0  0  0  0  0  0  0  0
   -7.6766   -1.6504  -12.5801 H   0  0  0  0  0  0  0  0  0  0  0  0
   -9.9916   -2.3195  -17.9922 H   0  0  0  0  0  0  0  0  0  0  0  0
   -8.1712   -3.6666  -18.9151 H   0  0  0  0  0  0  0  0  0  0  0  0
   -8.2805   -2.2605  -19.7381 H   0  0  0  0  0  0  0  0  0  0  0  0
  1  7  1  0  0  0  0
  1  8  1  0  0  0  0
  2  7  1  0  0  0  0
  2  8  1  0  0  0  0
  3  8  1  0  0  0  0
  3  9  1  0  0  0  0
  4  8  1  0  0  0  0
  4  9  1  0  0  0  0
  5  9  1  0  0  0  0
  5 10  1  0  0  0  0
  6  9  1  0  0  0  0
  6 10  1  0  0  0  0
  7 11  1  0  0  0  0
 10 12  1  0  0  0  0
 10 13  1  0  0  0  0
  1 14  1  0  0  0  0
  1 15  1  0  0  0  0
  2 16  1  0  0  0  0
  2 17  1  0  0  0  0
  3 18  1  0  0  0  0
  3 19  1  0  0  0  0
  4 20  1  0  0  0  0
  4 21  1  0  0  0  0
  5 22  1  0  0  0  0
  5 23  1  0  0  0  0
  6 24  1  0  0  0  0
  6 25  1  0  0  0  0
  7 26  1  0  0  0  0
 11 27  1  0  0  0  0
 11 28  1  0  0  0  0
M  END
> <id>
EN300-26690375

> <smiles>
Cl.NC1CC2(C1)CC3(CC(F)(F)C3)C2

> <MDLNUMBER>
MFCD32678938

> <IUPAC Name>
8,8-difluorodispiro[3.1.3^{6}.1^{4}]decan-2-amine hydrochloride

> <CAS>
2418720-49-5

> <Purity>
95

> <URL>
https://www.enaminestore.com/catalog/EN300-26690375

> <Saltdate>
Cl

> <ROCS_ShapeQuery>
amalgated

> <ROCS_TanimotoCombo>
0.877 

> <ROCS_ShapeTanimoto>
0.482 

> <ROCS_ColorTanimoto>
0.395 

> <ROCS_RefTversky>
0.452 

> <ROCS_RefColorTversky>
0.495 

> <ROCS_RefTverskyCombo>
0.947 

> <ROCS_FitTversky>
1.158 

> <ROCS_FitColorTversky>
0.663 

> <ROCS_FitTverskyCombo>
1.821 

> <ROCS_ColorScore>
-3.416

> <ROCS_Overlap>
739.209

> <ROCS_Rank>
83                  

$$$$
untitled-dbase-51337_1
  -OEChem-10092318153D

 44 45  0     1  0  0  0  0  0999 V2000
   -8.7089   -0.2359  -14.1894 C   0  0  0  0  0  0  0  0  0  0  0  0
   -9.4080   -4.7068  -18.3782 C   0  0  0  0  0  0  0  0  0  0  0  0
  -10.0306   -3.8255  -17.2979 C   0  0  0  0  0  0  0  0  0  0  0  0
   -7.6019   -0.8443  -17.7150 C   0  0  0  0  0  0  0  0  0  0  0  0
   -8.8955   -3.8742  -19.5518 C   0  0  0  0  0  0  0  0  0  0  0  0
   -9.6857   -1.7659  -15.8718 C   0  0  0  0  0  0  0  0  0  0  0  0
   -9.0563   -2.7125  -16.8953 C   0  0  2  0  0  0  0  0  0  0  0  0
   -8.5946   -1.9327  -18.1373 C   0  0  2  0  0  0  0  0  0  0  0  0
   -8.1740    0.0959  -16.6404 C   0  0  1  0  0  0  0  0  0  0  0  0
   -9.1668    1.1057  -17.2230 C   0  0  0  0  0  0  0  0  0  0  0  0
   -9.9239    0.8498  -11.8360 C   0  0  0  0  0  0  0  0  0  0  0  0
  -10.4405   -1.5320  -11.2282 C   0  0  0  0  0  0  0  0  0  0  0  0
   -8.0520   -0.7883  -11.4522 C   0  0  0  0  0  0  0  0  0  0  0  0
   -9.4784   -0.6058  -11.9689 C   0  0  0  0  0  0  0  0  0  0  0  0
   -7.9649   -2.8342  -19.1100 N   0  0  0  0  0  0  0  0  0  0  0  0
   -8.7928   -0.6544  -15.5262 N   0  0  0  0  0  0  0  0  0  0  0  0
   -7.9936    0.6830  -13.7941 O   0  0  0  0  0  0  0  0  0  0  0  0
   -9.5114   -0.9679  -13.3542 O   0  0  0  0  0  0  0  0  0  0  0  0
   -8.5793   -5.2818  -17.9459 H   0  0  0  0  0  0  0  0  0  0  0  0
  -10.1479   -5.4325  -18.7342 H   0  0  0  0  0  0  0  0  0  0  0  0
  -10.9641   -3.3905  -17.6770 H   0  0  0  0  0  0  0  0  0  0  0  0
  -10.2917   -4.4372  -16.4267 H   0  0  0  0  0  0  0  0  0  0  0  0
   -6.6927   -1.3126  -17.3124 H   0  0  0  0  0  0  0  0  0  0  0  0
   -7.2862   -0.2615  -18.5899 H   0  0  0  0  0  0  0  0  0  0  0  0
   -8.3842   -4.5274  -20.2674 H   0  0  0  0  0  0  0  0  0  0  0  0
   -9.7352   -3.4171  -20.0895 H   0  0  0  0  0  0  0  0  0  0  0  0
  -10.6104   -1.3255  -16.2634 H   0  0  0  0  0  0  0  0  0  0  0  0
   -9.9583   -2.3237  -14.9691 H   0  0  0  0  0  0  0  0  0  0  0  0
   -8.1829   -3.1857  -16.4219 H   0  0  0  0  0  0  0  0  0  0  0  0
   -9.4551   -1.4503  -18.6192 H   0  0  0  0  0  0  0  0  0  0  0  0
   -7.3304    0.6752  -16.2477 H   0  0  0  0  0  0  0  0  0  0  0  0
  -10.0277    0.5793  -17.6284 H   0  0  0  0  0  0  0  0  0  0  0  0
   -8.6866    1.6740  -18.0161 H   0  0  0  0  0  0  0  0  0  0  0  0
   -9.4965    1.7862  -16.4414 H   0  0  0  0  0  0  0  0  0  0  0  0
   -9.2359    1.5179  -12.3663 H   0  0  0  0  0  0  0  0  0  0  0  0
  -10.9322    1.0010  -12.2350 H   0  0  0  0  0  0  0  0  0  0  0  0
   -9.9157    1.1670  -10.7869 H   0  0  0  0  0  0  0  0  0  0  0  0
  -10.1246   -2.5774  -11.3208 H   0  0  0  0  0  0  0  0  0  0  0  0
  -11.4468   -1.4743  -11.6585 H   0  0  0  0  0  0  0  0  0  0  0  0
  -10.5034   -1.2819  -10.1642 H   0  0  0  0  0  0  0  0  0  0  0  0
   -7.7322   -1.8322  -11.5474 H   0  0  0  0  0  0  0  0  0  0  0  0
   -7.3418   -0.1582  -11.9975 H   0  0  0  0  0  0  0  0  0  0  0  0
   -7.9891   -0.5416  -10.3862 H   0  0  0  0  0  0  0  0  0  0  0  0
   -7.1502   -3.2753  -18.6824 H   0  0  0  0  0  0  0  0  0  0  0  0
  1 16  1  0  0  0  0
  1 17  2  0  0  0  0
  1 18  1  0  0  0  0
  2  3  1  0  0  0  0
  2  5  1  0  0  0  0
  3  7  1  0  0  0  0
  4  8  1  0  0  0  0
  4  9  1  0  0  0  0
  5 15  1  0  0  0  0
  6  7  1  0  0  0  0
  6 16  1  0  0  0  0
  7  8  1  0  0  0  0
  8 15  1  0  0  0  0
  9 10  1  0  0  0  0
  9 16  1  0  0  0  0
 11 14  1  0  0  0  0
 12 14  1  0  0  0  0
 13 14  1  0  0  0  0
 14 18  1  0  0  0  0
  2 19  1  0  0  0  0
  2 20  1  0  0  0  0
  3 21  1  0  0  0  0
  3 22  1  0  0  0  0
  4 23  1  0  0  0  0
  4 24  1  0  0  0  0
  5 25  1  0  0  0  0
  5 26  1  0  0  0  0
  6 27  1  0  0  0  0
  6 28  1  0  0  0  0
  7 29  1  0  0  0  0
  8 30  1  0  0  0  0
  9 31  1  0  0  0  0
 10 32  1  0  0  0  0
 10 33  1  0  0  0  0
 10 34  1  0  0  0  0
 11 35  1  0  0  0  0
 11 36  1  0  0  0  0
 11 37  1  0  0  0  0
 12 38  1  0  0  0  0
 12 39  1  0  0  0  0
 12 40  1  0  0  0  0
 13 41  1  0  0  0  0
 13 42  1  0  0  0  0
 13 43  1  0  0  0  0
 15 44  1  0  0  0  0
M  END
> <id>
EN300-6873573

> <smiles>
CC1CC2NCCCC2CN1C(=O)OC(C)(C)C

> <MDLNUMBER>
MFCD28621084

> <IUPAC Name>
tert-butyl 7-methyl-decahydro-1,6-naphthyridine-6-carboxylate

> <CAS>
1782691-48-8

> <URL>
https://www.enaminestore.com/catalog/EN300-6873573

> <ROCS_ShapeQuery>
amalgated

> <ROCS_TanimotoCombo>
0.877 

> <ROCS_ShapeTanimoto>
0.607 

> <ROCS_ColorTanimoto>
0.270 

> <ROCS_RefTversky>
0.567 

> <ROCS_RefColorTversky>
0.398 

> <ROCS_RefTverskyCombo>
0.965 

> <ROCS_FitTversky>
1.132 

> <ROCS_FitColorTversky>
0.456 

> <ROCS_FitTverskyCombo>
1.589 

> <ROCS_ColorScore>
-2.763

> <ROCS_Overlap>
932.514

> <ROCS_Rank>
84                  

$$$$
untitled-dbase-45471_13
  -OEChem-10092318153D

 43 45  0     0  0  0  0  0  0999 V2000
   -7.9111   -0.9308  -18.4358 C   0  0  0  0  0  0  0  0  0  0  0  0
   -8.4878   -2.1985  -18.3614 C   0  0  0  0  0  0  0  0  0  0  0  0
   -9.0993   -1.8128  -16.0442 C   0  0  0  0  0  0  0  0  0  0  0  0
   -7.9305   -0.1082  -17.3136 C   0  0  0  0  0  0  0  0  0  0  0  0
   -8.5235   -0.5503  -16.1222 C   0  0  0  0  0  0  0  0  0  0  0  0
   -9.0779   -2.6359  -17.1729 C   0  0  0  0  0  0  0  0  0  0  0  0
   -8.8601    0.4572  -13.8126 C   0  0  0  0  0  0  0  0  0  0  0  0
   -7.0677    2.2628  -19.3852 C   0  0  0  0  0  0  0  0  0  0  0  0
   -5.7307    1.6803  -18.9326 C   0  0  0  0  0  0  0  0  0  0  0  0
   -7.9618    2.3098  -18.1481 C   0  0  0  0  0  0  0  0  0  0  0  0
   -5.8648    1.3950  -17.4384 C   0  0  0  0  0  0  0  0  0  0  0  0
   -7.7266    1.6112  -15.7016 C   0  0  0  0  0  0  0  0  0  0  0  0
   -7.3704    1.2895  -17.1683 C   0  0  0  0  0  0  0  0  0  0  0  0
  -10.7566   -0.2787  -11.7982 C   0  0  0  0  0  0  0  0  0  0  0  0
   -9.2797   -2.2720  -11.4046 C   0  0  0  0  0  0  0  0  0  0  0  0
   -8.3869    0.0427  -11.0134 C   0  0  0  0  0  0  0  0  0  0  0  0
   -9.3270   -0.8149  -11.8592 C   0  0  0  0  0  0  0  0  0  0  0  0
   -8.4212    0.4479  -15.1340 N   0  0  0  0  0  0  0  0  0  0  0  0
   -9.1997    1.4860  -13.2271 O   0  0  0  0  0  0  0  0  0  0  0  0
   -8.8822   -0.7728  -13.2203 O   0  0  0  0  0  0  0  0  0  0  0  0
   -9.8625   -4.3559  -17.0942 Br  0  0  0  0  0  0  0  0  0  0  0  0
   -7.4530   -0.6102  -19.3653 H   0  0  0  0  0  0  0  0  0  0  0  0
   -8.4665   -2.8376  -19.2399 H   0  0  0  0  0  0  0  0  0  0  0  0
   -9.5730   -2.1659  -15.1329 H   0  0  0  0  0  0  0  0  0  0  0  0
   -6.9400    3.2648  -19.8069 H   0  0  0  0  0  0  0  0  0  0  0  0
   -7.5099    1.6389  -20.1682 H   0  0  0  0  0  0  0  0  0  0  0  0
   -5.5163    0.7549  -19.4817 H   0  0  0  0  0  0  0  0  0  0  0  0
   -4.8999    2.3670  -19.1346 H   0  0  0  0  0  0  0  0  0  0  0  0
   -7.9076    3.3186  -17.7215 H   0  0  0  0  0  0  0  0  0  0  0  0
   -9.0087    2.1143  -18.3979 H   0  0  0  0  0  0  0  0  0  0  0  0
   -5.3012    0.4984  -17.1477 H   0  0  0  0  0  0  0  0  0  0  0  0
   -5.4341    2.2435  -16.8863 H   0  0  0  0  0  0  0  0  0  0  0  0
   -6.8481    1.8472  -15.0843 H   0  0  0  0  0  0  0  0  0  0  0  0
   -8.4185    2.4634  -15.6225 H   0  0  0  0  0  0  0  0  0  0  0  0
  -10.7948    0.7670  -12.1238 H   0  0  0  0  0  0  0  0  0  0  0  0
  -11.4342   -0.8640  -12.4282 H   0  0  0  0  0  0  0  0  0  0  0  0
  -11.1373   -0.2966  -10.7706 H   0  0  0  0  0  0  0  0  0  0  0  0
   -8.2559   -2.6608  -11.4468 H   0  0  0  0  0  0  0  0  0  0  0  0
   -9.8787   -2.9072  -12.0671 H   0  0  0  0  0  0  0  0  0  0  0  0
   -9.6529   -2.3884  -10.3819 H   0  0  0  0  0  0  0  0  0  0  0  0
   -7.3614   -0.3416  -11.0571 H   0  0  0  0  0  0  0  0  0  0  0  0
   -8.3799    1.0848  -11.3492 H   0  0  0  0  0  0  0  0  0  0  0  0
   -8.6813    0.0189   -9.9580 H   0  0  0  0  0  0  0  0  0  0  0  0
  1  2  1  0  0  0  0
  1  4  2  0  0  0  0
  2  6  2  0  0  0  0
  3  5  2  0  0  0  0
  3  6  1  0  0  0  0
  4  5  1  0  0  0  0
  4 13  1  0  0  0  0
  5 18  1  0  0  0  0
  6 21  1  0  0  0  0
  7 18  1  0  0  0  0
  7 19  2  0  0  0  0
  7 20  1  0  0  0  0
  8  9  1  0  0  0  0
  8 10  1  0  0  0  0
  9 11  1  0  0  0  0
 10 13  1  0  0  0  0
 11 13  1  0  0  0  0
 12 13  1  0  0  0  0
 12 18  1  0  0  0  0
 14 17  1  0  0  0  0
 15 17  1  0  0  0  0
 16 17  1  0  0  0  0
 17 20  1  0  0  0  0
  1 22  1  0  0  0  0
  2 23  1  0  0  0  0
  3 24  1  0  0  0  0
  8 25  1  0  0  0  0
  8 26  1  0  0  0  0
  9 27  1  0  0  0  0
  9 28  1  0  0  0  0
 10 29  1  0  0  0  0
 10 30  1  0  0  0  0
 11 31  1  0  0  0  0
 11 32  1  0  0  0  0
 12 33  1  0  0  0  0
 12 34  1  0  0  0  0
 14 35  1  0  0  0  0
 14 36  1  0  0  0  0
 14 37  1  0  0  0  0
 15 38  1  0  0  0  0
 15 39  1  0  0  0  0
 15 40  1  0  0  0  0
 16 41  1  0  0  0  0
 16 42  1  0  0  0  0
 16 43  1  0  0  0  0
M  END
> <id>
EN300-28298773

> <smiles>
CC(C)(C)OC(=O)N1CC2(CCCC2)C=3C=CC(Br)=CC13

> <IUPAC Name>
tert-butyl 6'-bromo-1',2'-dihydrospiro[cyclopentane-1,3'-indole]-1'-carboxylate

> <CAS>
2680886-73-9

> <URL>
https://www.enaminestore.com/catalog/EN300-28298773

> <ROCS_ShapeQuery>
amalgated

> <ROCS_TanimotoCombo>
0.877 

> <ROCS_ShapeTanimoto>
0.710 

> <ROCS_ColorTanimoto>
0.167 

> <ROCS_RefTversky>
0.661 

> <ROCS_RefColorTversky>
0.268 

> <ROCS_RefTverskyCombo>
0.928 

> <ROCS_FitTversky>
1.118 

> <ROCS_FitColorTversky>
0.307 

> <ROCS_FitTverskyCombo>
1.425 

> <ROCS_ColorScore>
-1.861

> <ROCS_Overlap>
1091.614

> <ROCS_Rank>
85                  

$$$$
untitled-dbase-45555_49
  -OEChem-10092318153D

 44 46  0     0  0  0  0  0  0999 V2000
   -8.1714   -0.8703  -18.4842 C   0  0  0  0  0  0  0  0  0  0  0  0
   -8.7122   -2.1579  -18.5009 C   0  0  0  0  0  0  0  0  0  0  0  0
   -8.9307   -2.1324  -16.0866 C   0  0  0  0  0  0  0  0  0  0  0  0
   -8.0130   -0.2130  -17.2694 C   0  0  0  0  0  0  0  0  0  0  0  0
   -8.3974   -0.8492  -16.0812 C   0  0  0  0  0  0  0  0  0  0  0  0
   -9.0876   -2.7854  -17.3095 C   0  0  0  0  0  0  0  0  0  0  0  0
   -8.3967   -0.3060  -13.6432 C   0  0  0  0  0  0  0  0  0  0  0  0
   -8.1011    2.3080  -17.7650 C   0  0  0  0  0  0  0  0  0  0  0  0
   -5.8909    1.1803  -17.2482 C   0  0  0  0  0  0  0  0  0  0  0  0
   -7.7033    1.2963  -15.4761 C   0  0  0  0  0  0  0  0  0  0  0  0
   -7.5726    2.5100  -19.1817 C   0  0  0  0  0  0  0  0  0  0  0  0
   -5.5260    1.4217  -18.7087 C   0  0  0  0  0  0  0  0  0  0  0  0
   -7.4149    1.1582  -17.0008 C   0  0  0  0  0  0  0  0  0  0  0  0
   -8.9255   -0.3305  -10.8288 C   0  0  0  0  0  0  0  0  0  0  0  0
   -9.9343    1.9421  -11.1846 C   0  0  0  0  0  0  0  0  0  0  0  0
  -10.9331   -0.0616  -12.3227 C   0  0  0  0  0  0  0  0  0  0  0  0
   -9.6428    0.5845  -11.8202 C   0  0  0  0  0  0  0  0  0  0  0  0
   -8.1703   -0.0066  -14.9804 N   0  0  0  0  0  0  0  0  0  0  0  0
   -8.2786   -1.4113  -13.1220 O   0  0  0  0  0  0  0  0  0  0  0  0
   -6.1514    2.6067  -19.1936 O   0  0  0  0  0  0  0  0  0  0  0  0
   -8.7790    0.8091  -12.9404 O   0  0  0  0  0  0  0  0  0  0  0  0
   -9.8131   -4.5312  -17.3584 Br  0  0  0  0  0  0  0  0  0  0  0  0
   -7.8802   -0.3959  -19.4192 H   0  0  0  0  0  0  0  0  0  0  0  0
   -8.8349   -2.6615  -19.4581 H   0  0  0  0  0  0  0  0  0  0  0  0
   -9.2241   -2.6301  -15.1690 H   0  0  0  0  0  0  0  0  0  0  0  0
   -8.0288    3.2579  -17.1992 H   0  0  0  0  0  0  0  0  0  0  0  0
   -9.1864    2.0953  -17.8377 H   0  0  0  0  0  0  0  0  0  0  0  0
   -5.4641    0.2062  -16.9497 H   0  0  0  0  0  0  0  0  0  0  0  0
   -5.3974    1.9319  -16.6077 H   0  0  0  0  0  0  0  0  0  0  0  0
   -6.8128    1.5764  -14.8989 H   0  0  0  0  0  0  0  0  0  0  0  0
   -8.4815    2.0383  -15.2563 H   0  0  0  0  0  0  0  0  0  0  0  0
   -7.8518    1.6513  -19.8048 H   0  0  0  0  0  0  0  0  0  0  0  0
   -8.0037    3.4029  -19.6543 H   0  0  0  0  0  0  0  0  0  0  0  0
   -4.4422    1.4951  -18.8521 H   0  0  0  0  0  0  0  0  0  0  0  0
   -5.8800    0.5856  -19.3203 H   0  0  0  0  0  0  0  0  0  0  0  0
   -8.7145   -1.3061  -11.2813 H   0  0  0  0  0  0  0  0  0  0  0  0
   -7.9812    0.1060  -10.4874 H   0  0  0  0  0  0  0  0  0  0  0  0
   -9.5535   -0.5258   -9.9520 H   0  0  0  0  0  0  0  0  0  0  0  0
  -10.4490    2.6019  -11.8924 H   0  0  0  0  0  0  0  0  0  0  0  0
   -9.0041    2.4515  -10.9082 H   0  0  0  0  0  0  0  0  0  0  0  0
  -10.5551    1.8436  -10.2882 H   0  0  0  0  0  0  0  0  0  0  0  0
  -11.4478    0.5945  -13.0339 H   0  0  0  0  0  0  0  0  0  0  0  0
  -10.7390   -1.0201  -12.8150 H   0  0  0  0  0  0  0  0  0  0  0  0
  -11.6323   -0.2302  -11.4957 H   0  0  0  0  0  0  0  0  0  0  0  0
  1  2  1  0  0  0  0
  1  4  2  0  0  0  0
  2  6  2  0  0  0  0
  3  5  2  0  0  0  0
  3  6  1  0  0  0  0
  4  5  1  0  0  0  0
  4 13  1  0  0  0  0
  5 18  1  0  0  0  0
  6 22  1  0  0  0  0
  7 18  1  0  0  0  0
  7 19  2  0  0  0  0
  7 21  1  0  0  0  0
  8 11  1  0  0  0  0
  8 13  1  0  0  0  0
  9 12  1  0  0  0  0
  9 13  1  0  0  0  0
 10 13  1  0  0  0  0
 10 18  1  0  0  0  0
 11 20  1  0  0  0  0
 12 20  1  0  0  0  0
 14 17  1  0  0  0  0
 15 17  1  0  0  0  0
 16 17  1  0  0  0  0
 17 21  1  0  0  0  0
  1 23  1  0  0  0  0
  2 24  1  0  0  0  0
  3 25  1  0  0  0  0
  8 26  1  0  0  0  0
  8 27  1  0  0  0  0
  9 28  1  0  0  0  0
  9 29  1  0  0  0  0
 10 30  1  0  0  0  0
 10 31  1  0  0  0  0
 11 32  1  0  0  0  0
 11 33  1  0  0  0  0
 12 34  1  0  0  0  0
 12 35  1  0  0  0  0
 14 36  1  0  0  0  0
 14 37  1  0  0  0  0
 14 38  1  0  0  0  0
 15 39  1  0  0  0  0
 15 40  1  0  0  0  0
 15 41  1  0  0  0  0
 16 42  1  0  0  0  0
 16 43  1  0  0  0  0
 16 44  1  0  0  0  0
M  END
> <id>
EN300-28300669

> <smiles>
CC(C)(C)OC(=O)N1CC2(CCOCC2)C=3C=CC(Br)=CC13

> <IUPAC Name>
tert-butyl 6-bromo-1,2-dihydrospiro[indole-3,4'-oxane]-1-carboxylate

> <CAS>
2408698-62-2

> <URL>
https://www.enaminestore.com/catalog/EN300-28300669

> <ROCS_ShapeQuery>
amalgated

> <ROCS_TanimotoCombo>
0.877 

> <ROCS_ShapeTanimoto>
0.717 

> <ROCS_ColorTanimoto>
0.160 

> <ROCS_RefTversky>
0.675 

> <ROCS_RefColorTversky>
0.276 

> <ROCS_RefTverskyCombo>
0.951 

> <ROCS_FitTversky>
1.096 

> <ROCS_FitColorTversky>
0.275 

> <ROCS_FitTverskyCombo>
1.371 

> <ROCS_ColorScore>
-1.932

> <ROCS_Overlap>
1116.206

> <ROCS_Rank>
86                  

$$$$
untitled-dbase-16380_23
  -OEChem-10092318153D

 40 42  0     0  0  0  0  0  0999 V2000
   -9.0674   -0.0713  -10.6988 C   0  0  0  0  0  0  0  0  0  0  0  0
  -10.3255   -0.2109  -11.5483 C   0  0  0  0  0  0  0  0  0  0  0  0
   -7.8315   -0.5909  -11.4241 C   0  0  0  0  0  0  0  0  0  0  0  0
  -10.1542    0.4642  -12.9084 C   0  0  0  0  0  0  0  0  0  0  0  0
   -7.6711    0.0397  -12.8086 C   0  0  0  0  0  0  0  0  0  0  0  0
   -9.7949   -1.7720  -17.3430 C   0  0  0  0  0  0  0  0  0  0  0  0
   -7.4818   -0.8279  -17.3191 C   0  0  0  0  0  0  0  0  0  0  0  0
   -9.2462   -2.9974  -18.0760 C   0  0  0  0  0  0  0  0  0  0  0  0
   -7.0079   -2.0945  -18.0346 C   0  0  0  0  0  0  0  0  0  0  0  0
   -9.2095   -1.5331  -14.1418 C   0  0  0  0  0  0  0  0  0  0  0  0
   -8.7122    0.8102  -14.9623 C   0  0  0  0  0  0  0  0  0  0  0  0
   -8.9346   -0.0697  -13.7021 C   0  0  0  0  0  0  0  0  0  0  0  0
   -8.7438   -1.0601  -16.4606 C   0  0  0  0  0  0  0  0  0  0  0  0
   -8.0626   -2.6682  -18.8720 N   0  0  0  0  0  0  0  0  0  0  0  0
   -8.3771   -1.8832  -15.2898 N   0  0  0  0  0  0  0  0  0  0  0  0
   -9.3163    0.2195  -16.1118 O   0  0  0  0  0  0  0  0  0  0  0  0
   -8.9207    0.9800  -10.4259 H   0  0  0  0  0  0  0  0  0  0  0  0
   -9.1987   -0.6273   -9.7620 H   0  0  0  0  0  0  0  0  0  0  0  0
  -10.5496   -1.2725  -11.6948 H   0  0  0  0  0  0  0  0  0  0  0  0
  -11.1802    0.2213  -11.0182 H   0  0  0  0  0  0  0  0  0  0  0  0
   -6.9387   -0.3990  -10.8170 H   0  0  0  0  0  0  0  0  0  0  0  0
   -7.9038   -1.6805  -11.5289 H   0  0  0  0  0  0  0  0  0  0  0  0
  -11.0667    0.3002  -13.4941 H   0  0  0  0  0  0  0  0  0  0  0  0
  -10.0672    1.5465  -12.7642 H   0  0  0  0  0  0  0  0  0  0  0  0
   -7.3676    1.0868  -12.6727 H   0  0  0  0  0  0  0  0  0  0  0  0
   -6.8280   -0.4562  -13.3133 H   0  0  0  0  0  0  0  0  0  0  0  0
  -10.2155   -1.0866  -18.0987 H   0  0  0  0  0  0  0  0  0  0  0  0
  -10.6541   -2.0834  -16.7182 H   0  0  0  0  0  0  0  0  0  0  0  0
   -6.6588   -0.4427  -16.6933 H   0  0  0  0  0  0  0  0  0  0  0  0
   -7.6806   -0.0611  -18.0858 H   0  0  0  0  0  0  0  0  0  0  0  0
   -8.9724   -3.7668  -17.3430 H   0  0  0  0  0  0  0  0  0  0  0  0
  -10.0168   -3.4447  -18.7181 H   0  0  0  0  0  0  0  0  0  0  0  0
   -6.1191   -1.8890  -18.6445 H   0  0  0  0  0  0  0  0  0  0  0  0
   -6.7050   -2.8405  -17.2904 H   0  0  0  0  0  0  0  0  0  0  0  0
   -8.9903   -2.2220  -13.3262 H   0  0  0  0  0  0  0  0  0  0  0  0
  -10.2618   -1.6676  -14.3918 H   0  0  0  0  0  0  0  0  0  0  0  0
   -9.1114    1.8185  -14.8166 H   0  0  0  0  0  0  0  0  0  0  0  0
   -7.6500    0.9307  -15.1853 H   0  0  0  0  0  0  0  0  0  0  0  0
   -7.7114   -3.5190  -19.3064 H   0  0  0  0  0  0  0  0  0  0  0  0
   -7.4064   -1.7248  -15.0598 H   0  0  0  0  0  0  0  0  0  0  0  0
  1  2  1  0  0  0  0
  1  3  1  0  0  0  0
  2  4  1  0  0  0  0
  3  5  1  0  0  0  0
  4 12  1  0  0  0  0
  5 12  1  0  0  0  0
  6  8  1  0  0  0  0
  6 13  1  0  0  0  0
  7  9  1  0  0  0  0
  7 13  1  0  0  0  0
  8 14  1  0  0  0  0
  9 14  1  0  0  0  0
 10 12  1  0  0  0  0
 10 15  1  0  0  0  0
 11 12  1  0  0  0  0
 11 16  1  0  0  0  0
 13 15  1  0  0  0  0
 13 16  1  0  0  0  0
  1 17  1  0  0  0  0
  1 18  1  0  0  0  0
  2 19  1  0  0  0  0
  2 20  1  0  0  0  0
  3 21  1  0  0  0  0
  3 22  1  0  0  0  0
  4 23  1  0  0  0  0
  4 24  1  0  0  0  0
  5 25  1  0  0  0  0
  5 26  1  0  0  0  0
  6 27  1  0  0  0  0
  6 28  1  0  0  0  0
  7 29  1  0  0  0  0
  7 30  1  0  0  0  0
  8 31  1  0  0  0  0
  8 32  1  0  0  0  0
  9 33  1  0  0  0  0
  9 34  1  0  0  0  0
 10 35  1  0  0  0  0
 10 36  1  0  0  0  0
 11 37  1  0  0  0  0
 11 38  1  0  0  0  0
 14 39  1  0  0  0  0
 15 40  1  0  0  0  0
M  END
> <id>
EN300-1279847

> <smiles>
C1CCC2(CC1)CNC3(CCNCC3)OC2

> <IUPAC Name>
7-oxa-3,16-diazadispiro[5.2.5^{9}.2^{6}]hexadecane

> <CAS>
2171829-57-3

> <URL>
https://www.enaminestore.com/catalog/EN300-1279847

> <ROCS_ShapeQuery>
amalgated

> <ROCS_TanimotoCombo>
0.877 

> <ROCS_ShapeTanimoto>
0.560 

> <ROCS_ColorTanimoto>
0.317 

> <ROCS_RefTversky>
0.522 

> <ROCS_RefColorTversky>
0.512 

> <ROCS_RefTverskyCombo>
1.034 

> <ROCS_FitTversky>
1.147 

> <ROCS_FitColorTversky>
0.454 

> <ROCS_FitTverskyCombo>
1.600 

> <ROCS_ColorScore>
-3.609

> <ROCS_Overlap>
857.098

> <ROCS_Rank>
87                  

$$$$
untitled-dbase-4450_51
  -OEChem-10092318153D

 37 37  0     1  0  0  0  0  0999 V2000
   -8.7930   -0.2148  -14.7498 C   0  0  0  0  0  0  0  0  0  0  0  0
   -9.3958   -2.7805  -16.9857 C   0  0  0  0  0  0  0  0  0  0  0  0
   -8.8487   -0.6187  -18.2057 C   0  0  0  0  0  0  0  0  0  0  0  0
   -8.3654   -2.3930  -15.9226 C   0  0  0  0  0  0  0  0  0  0  0  0
   -9.1171   -2.1291  -18.3519 C   0  0  1  0  0  0  0  0  0  0  0  0
   -7.8226   -0.2992  -17.1018 C   0  0  1  0  0  0  0  0  0  0  0  0
   -7.5182    1.1974  -17.0623 C   0  0  0  0  0  0  0  0  0  0  0  0
  -10.7380    0.0737  -12.6629 C   0  0  0  0  0  0  0  0  0  0  0  0
   -9.1524   -1.2705  -11.2528 C   0  0  0  0  0  0  0  0  0  0  0  0
   -8.4395    0.9633  -12.1528 C   0  0  0  0  0  0  0  0  0  0  0  0
   -9.2743   -0.2891  -12.4165 C   0  0  0  0  0  0  0  0  0  0  0  0
   -8.2729   -0.9284  -15.8411 N   0  0  0  0  0  0  0  0  0  0  0  0
   -7.9878   -2.7812  -19.0216 N   0  0  0  0  0  0  0  0  0  0  0  0
   -9.2333    0.9310  -14.7921 O   0  0  0  0  0  0  0  0  0  0  0  0
   -8.7630   -0.9403  -13.5856 O   0  0  0  0  0  0  0  0  0  0  0  0
   -9.4091   -3.8795  -17.0844 H   0  0  0  0  0  0  0  0  0  0  0  0
  -10.4005   -2.4945  -16.6332 H   0  0  0  0  0  0  0  0  0  0  0  0
   -8.4644   -0.2259  -19.1557 H   0  0  0  0  0  0  0  0  0  0  0  0
   -9.7876   -0.0892  -18.0071 H   0  0  0  0  0  0  0  0  0  0  0  0
   -8.6714   -2.7544  -14.9490 H   0  0  0  0  0  0  0  0  0  0  0  0
   -7.4057   -2.8243  -16.1696 H   0  0  0  0  0  0  0  0  0  0  0  0
  -10.0028   -2.2715  -18.9993 H   0  0  0  0  0  0  0  0  0  0  0  0
   -6.8924   -0.8086  -17.4352 H   0  0  0  0  0  0  0  0  0  0  0  0
   -8.4027    1.7417  -16.7400 H   0  0  0  0  0  0  0  0  0  0  0  0
   -7.2281    1.5373  -18.0537 H   0  0  0  0  0  0  0  0  0  0  0  0
   -6.7054    1.3865  -16.3650 H   0  0  0  0  0  0  0  0  0  0  0  0
  -10.8298    0.7780  -13.4974 H   0  0  0  0  0  0  0  0  0  0  0  0
  -11.3408   -0.8122  -12.8876 H   0  0  0  0  0  0  0  0  0  0  0  0
  -11.1697    0.5732  -11.7880 H   0  0  0  0  0  0  0  0  0  0  0  0
   -8.1039   -1.5335  -11.0724 H   0  0  0  0  0  0  0  0  0  0  0  0
   -9.6718   -2.2090  -11.4777 H   0  0  0  0  0  0  0  0  0  0  0  0
   -9.5696   -0.8560  -10.3293 H   0  0  0  0  0  0  0  0  0  0  0  0
   -7.3896    0.7034  -11.9761 H   0  0  0  0  0  0  0  0  0  0  0  0
   -8.4855    1.6630  -12.9936 H   0  0  0  0  0  0  0  0  0  0  0  0
   -8.7863    1.4799  -11.2505 H   0  0  0  0  0  0  0  0  0  0  0  0
   -8.2062   -3.7427  -19.1285 H   0  0  0  0  0  0  0  0  0  0  0  0
   -7.8620   -2.3480  -19.9048 H   0  0  0  0  0  0  0  0  0  0  0  0
  1 12  1  0  0  0  0
  1 14  2  0  0  0  0
  1 15  1  0  0  0  0
  2  4  1  0  0  0  0
  2  5  1  0  0  0  0
  3  5  1  0  0  0  0
  3  6  1  0  0  0  0
  4 12  1  0  0  0  0
  5 13  1  0  0  0  0
  6  7  1  0  0  0  0
  6 12  1  0  0  0  0
  8 11  1  0  0  0  0
  9 11  1  0  0  0  0
 10 11  1  0  0  0  0
 11 15  1  0  0  0  0
  2 16  1  0  0  0  0
  2 17  1  0  0  0  0
  3 18  1  0  0  0  0
  3 19  1  0  0  0  0
  4 20  1  0  0  0  0
  4 21  1  0  0  0  0
  5 22  1  0  0  0  0
  6 23  1  0  0  0  0
  7 24  1  0  0  0  0
  7 25  1  0  0  0  0
  7 26  1  0  0  0  0
  8 27  1  0  0  0  0
  8 28  1  0  0  0  0
  8 29  1  0  0  0  0
  9 30  1  0  0  0  0
  9 31  1  0  0  0  0
  9 32  1  0  0  0  0
 10 33  1  0  0  0  0
 10 34  1  0  0  0  0
 10 35  1  0  0  0  0
 13 36  1  0  0  0  0
 13 37  1  0  0  0  0
M  END
> <id>
EN300-184233

> <smiles>
CC1CC(N)CCN1C(=O)OC(C)(C)C

> <MDLNUMBER>
MFCD09832897

> <IUPAC Name>
tert-butyl 4-amino-2-methylpiperidine-1-carboxylate

> <CAS>
952182-04-6

> <URL>
https://www.enaminestore.com/catalog/EN300-184233

> <ROCS_ShapeQuery>
amalgated

> <ROCS_TanimotoCombo>
0.877 

> <ROCS_ShapeTanimoto>
0.546 

> <ROCS_ColorTanimoto>
0.330 

> <ROCS_RefTversky>
0.502 

> <ROCS_RefColorTversky>
0.432 

> <ROCS_RefTverskyCombo>
0.933 

> <ROCS_FitTversky>
1.195 

> <ROCS_FitColorTversky>
0.584 

> <ROCS_FitTverskyCombo>
1.779 

> <ROCS_ColorScore>
-2.979

> <ROCS_Overlap>
821.417

> <ROCS_Rank>
88                  

$$$$
untitled-dbase-45345_8
  -OEChem-10092318153D

 38 41  0     0  0  0  0  0  0999 V2000
   -7.9778   -1.8747  -18.5001 C   0  0  0  0  0  0  0  0  0  0  0  0
   -8.1944    0.8800  -11.6058 C   0  0  0  0  0  0  0  0  0  0  0  0
   -9.1266   -2.6290  -18.3358 C   0  0  0  0  0  0  0  0  0  0  0  0
   -9.3595    0.2112  -11.2732 C   0  0  0  0  0  0  0  0  0  0  0  0
   -7.5339   -1.0521  -17.4625 C   0  0  0  0  0  0  0  0  0  0  0  0
   -7.6723    0.7639  -12.8958 C   0  0  0  0  0  0  0  0  0  0  0  0
   -9.8266   -2.5516  -17.1364 C   0  0  0  0  0  0  0  0  0  0  0  0
   -9.9944   -0.5699  -12.2332 C   0  0  0  0  0  0  0  0  0  0  0  0
   -8.2199   -0.9613  -16.2284 C   0  0  0  0  0  0  0  0  0  0  0  0
   -8.2974   -0.0221  -13.8928 C   0  0  0  0  0  0  0  0  0  0  0  0
   -9.3858   -1.7241  -16.0840 C   0  0  0  0  0  0  0  0  0  0  0  0
   -9.4743   -0.6931  -13.5374 C   0  0  0  0  0  0  0  0  0  0  0  0
   -6.5178    0.6264  -15.4537 C   0  0  0  0  0  0  0  0  0  0  0  0
   -5.4390    1.8778  -17.4053 C   0  0  0  0  0  0  0  0  0  0  0  0
   -7.8142    2.2097  -16.8636 C   0  0  0  0  0  0  0  0  0  0  0  0
   -5.8380    1.7792  -18.8718 C   0  0  0  0  0  0  0  0  0  0  0  0
   -8.1190    2.0967  -18.3511 C   0  0  0  0  0  0  0  0  0  0  0  0
   -7.7043   -0.0902  -15.2044 N   0  0  0  0  0  0  0  0  0  0  0  0
   -6.5734    1.5030  -16.5527 N   0  0  0  0  0  0  0  0  0  0  0  0
   -5.5162    0.4780  -14.7454 O   0  0  0  0  0  0  0  0  0  0  0  0
   -7.0080    2.5638  -19.1222 O   0  0  0  0  0  0  0  0  0  0  0  0
  -10.4045   -1.7128  -14.6403 S   0  0  0  0  0  0  0  0  0  0  0  0
   -7.4229   -1.9200  -19.4324 H   0  0  0  0  0  0  0  0  0  0  0  0
   -7.6863    1.4933  -10.8676 H   0  0  0  0  0  0  0  0  0  0  0  0
   -9.4821   -3.2698  -19.1366 H   0  0  0  0  0  0  0  0  0  0  0  0
   -9.7742    0.2943  -10.2736 H   0  0  0  0  0  0  0  0  0  0  0  0
   -6.6285   -0.4810  -17.6541 H   0  0  0  0  0  0  0  0  0  0  0  0
   -6.7530    1.3100  -13.0944 H   0  0  0  0  0  0  0  0  0  0  0  0
  -10.7326   -3.1471  -17.0338 H   0  0  0  0  0  0  0  0  0  0  0  0
  -10.9102   -1.0856  -11.9486 H   0  0  0  0  0  0  0  0  0  0  0  0
   -4.5534    1.2698  -17.2127 H   0  0  0  0  0  0  0  0  0  0  0  0
   -5.1942    2.9159  -17.1509 H   0  0  0  0  0  0  0  0  0  0  0  0
   -7.6551    3.2581  -16.5865 H   0  0  0  0  0  0  0  0  0  0  0  0
   -8.6488    1.8233  -16.2716 H   0  0  0  0  0  0  0  0  0  0  0  0
   -5.0351    2.1725  -19.5034 H   0  0  0  0  0  0  0  0  0  0  0  0
   -6.0194    0.7404  -19.1718 H   0  0  0  0  0  0  0  0  0  0  0  0
   -8.3575    1.0652  -18.6364 H   0  0  0  0  0  0  0  0  0  0  0  0
   -8.9827    2.7200  -18.6032 H   0  0  0  0  0  0  0  0  0  0  0  0
  1  3  2  0  0  0  0
  1  5  1  0  0  0  0
  2  4  2  0  0  0  0
  2  6  1  0  0  0  0
  3  7  1  0  0  0  0
  4  8  1  0  0  0  0
  5  9  2  0  0  0  0
  6 10  2  0  0  0  0
  7 11  2  0  0  0  0
  8 12  2  0  0  0  0
  9 11  1  0  0  0  0
  9 18  1  0  0  0  0
 10 12  1  0  0  0  0
 10 18  1  0  0  0  0
 11 22  1  0  0  0  0
 12 22  1  0  0  0  0
 13 18  1  0  0  0  0
 13 19  1  0  0  0  0
 13 20  2  0  0  0  0
 14 16  1  0  0  0  0
 14 19  1  0  0  0  0
 15 17  1  0  0  0  0
 15 19  1  0  0  0  0
 16 21  1  0  0  0  0
 17 21  1  0  0  0  0
  1 23  1  0  0  0  0
  2 24  1  0  0  0  0
  3 25  1  0  0  0  0
  4 26  1  0  0  0  0
  5 27  1  0  0  0  0
  6 28  1  0  0  0  0
  7 29  1  0  0  0  0
  8 30  1  0  0  0  0
 14 31  1  0  0  0  0
 14 32  1  0  0  0  0
 15 33  1  0  0  0  0
 15 34  1  0  0  0  0
 16 35  1  0  0  0  0
 16 36  1  0  0  0  0
 17 37  1  0  0  0  0
 17 38  1  0  0  0  0
M  END
> <id>
EN300-18259933

> <smiles>
O=C(N1CCOCC1)N2C=3C=CC=CC3SC=4C=CC=CC24

> <MDLNUMBER>
MFCD02007817

> <IUPAC Name>
10-(morpholine-4-carbonyl)-10H-phenothiazine

> <CAS>
176092-23-2

> <Purity>
95

> <URL>
https://www.enaminestore.com/catalog/EN300-18259933

> <ROCS_ShapeQuery>
amalgated

> <ROCS_TanimotoCombo>
0.876 

> <ROCS_ShapeTanimoto>
0.621 

> <ROCS_ColorTanimoto>
0.255 

> <ROCS_RefTversky>
0.623 

> <ROCS_RefColorTversky>
0.380 

> <ROCS_RefTverskyCombo>
1.003 

> <ROCS_FitTversky>
1.000 

> <ROCS_FitColorTversky>
0.436 

> <ROCS_FitTverskyCombo>
1.436 

> <ROCS_ColorScore>
-2.643

> <ROCS_Overlap>
1031.633

> <ROCS_Rank>
89                  

$$$$
untitled-dbase-41647_90
  -OEChem-10092318153D

 44 45  0     1  0  0  0  0  0999 V2000
   -8.3190    1.0759  -13.4465 C   0  0  0  0  0  0  0  0  0  0  0  0
   -6.9635    1.6688  -16.9181 C   0  0  0  0  0  0  0  0  0  0  0  0
   -9.0136   -2.8500  -16.7625 C   0  0  0  0  0  0  0  0  0  0  0  0
   -6.9188    0.1521  -17.0880 C   0  0  0  0  0  0  0  0  0  0  0  0
   -8.0164   -1.9138  -16.0893 C   0  0  0  0  0  0  0  0  0  0  0  0
   -9.1308   -0.8088  -17.9818 C   0  0  0  0  0  0  0  0  0  0  0  0
   -7.2539    2.0286  -15.4620 C   0  0  0  0  0  0  0  0  0  0  0  0
   -9.0891    0.3805  -15.7531 C   0  0  0  0  0  0  0  0  0  0  0  0
   -9.1109   -2.3252  -18.1914 C   0  0  1  0  0  0  0  0  0  0  0  0
   -8.2702   -0.5167  -16.7166 C   0  0  2  0  0  0  0  0  0  0  0  0
   -9.8276    1.4372  -11.0426 C   0  0  0  0  0  0  0  0  0  0  0  0
  -10.5143   -0.9615  -11.3330 C   0  0  0  0  0  0  0  0  0  0  0  0
   -8.0935   -0.3862  -10.9906 C   0  0  0  0  0  0  0  0  0  0  0  0
   -9.4204    0.0717  -11.5943 C   0  0  0  0  0  0  0  0  0  0  0  0
   -8.2199    1.1244  -14.8395 N   0  0  0  0  0  0  0  0  0  0  0  0
   -7.9705   -2.7333  -19.0091 N   0  0  0  0  0  0  0  0  0  0  0  0
   -7.6347    1.7565  -12.6842 O   0  0  0  0  0  0  0  0  0  0  0  0
   -9.2617    0.1824  -13.0132 O   0  0  0  0  0  0  0  0  0  0  0  0
   -6.0077    2.1006  -17.2174 H   0  0  0  0  0  0  0  0  0  0  0  0
   -7.7338    2.0969  -17.5619 H   0  0  0  0  0  0  0  0  0  0  0  0
   -8.6230   -3.8772  -16.7449 H   0  0  0  0  0  0  0  0  0  0  0  0
   -9.9839   -2.8558  -16.2523 H   0  0  0  0  0  0  0  0  0  0  0  0
   -6.6414   -0.0959  -18.1179 H   0  0  0  0  0  0  0  0  0  0  0  0
   -6.1287   -0.2522  -16.4442 H   0  0  0  0  0  0  0  0  0  0  0  0
   -8.2009   -1.9006  -15.0114 H   0  0  0  0  0  0  0  0  0  0  0  0
   -6.9948   -2.2693  -16.2407 H   0  0  0  0  0  0  0  0  0  0  0  0
   -8.6931   -0.3019  -18.8642 H   0  0  0  0  0  0  0  0  0  0  0  0
  -10.1656   -0.4292  -17.8997 H   0  0  0  0  0  0  0  0  0  0  0  0
   -6.3287    1.9725  -14.8653 H   0  0  0  0  0  0  0  0  0  0  0  0
   -7.6023    3.0712  -15.4010 H   0  0  0  0  0  0  0  0  0  0  0  0
   -9.7390    1.0542  -16.3193 H   0  0  0  0  0  0  0  0  0  0  0  0
   -9.7444   -0.2387  -15.1273 H   0  0  0  0  0  0  0  0  0  0  0  0
  -10.0258   -2.6569  -18.6625 H   0  0  0  0  0  0  0  0  0  0  0  0
   -9.0451    2.1816  -11.2282 H   0  0  0  0  0  0  0  0  0  0  0  0
  -10.7598    1.7928  -11.4936 H   0  0  0  0  0  0  0  0  0  0  0  0
   -9.9629    1.3953   -9.9558 H   0  0  0  0  0  0  0  0  0  0  0  0
  -10.2263   -1.9428  -11.7272 H   0  0  0  0  0  0  0  0  0  0  0  0
  -11.4433   -0.6841  -11.8440 H   0  0  0  0  0  0  0  0  0  0  0  0
  -10.7246   -1.0655  -10.2636 H   0  0  0  0  0  0  0  0  0  0  0  0
   -7.8012   -1.3657  -11.3861 H   0  0  0  0  0  0  0  0  0  0  0  0
   -7.2883    0.3253  -11.2000 H   0  0  0  0  0  0  0  0  0  0  0  0
   -8.1799   -0.5047   -9.9044 H   0  0  0  0  0  0  0  0  0  0  0  0
   -7.9735   -3.7250  -19.0858 H   0  0  0  0  0  0  0  0  0  0  0  0
   -8.0599   -2.3168  -19.9080 H   0  0  0  0  0  0  0  0  0  0  0  0
  1 15  1  0  0  0  0
  1 17  2  0  0  0  0
  1 18  1  0  0  0  0
  2  4  1  0  0  0  0
  2  7  1  0  0  0  0
  3  5  1  0  0  0  0
  3  9  1  0  0  0  0
  4 10  1  0  0  0  0
  5 10  1  0  0  0  0
  6  9  1  0  0  0  0
  6 10  1  0  0  0  0
  7 15  1  0  0  0  0
  8 10  1  0  0  0  0
  8 15  1  0  0  0  0
  9 16  1  0  0  0  0
 11 14  1  0  0  0  0
 12 14  1  0  0  0  0
 13 14  1  0  0  0  0
 14 18  1  0  0  0  0
  2 19  1  0  0  0  0
  2 20  1  0  0  0  0
  3 21  1  0  0  0  0
  3 22  1  0  0  0  0
  4 23  1  0  0  0  0
  4 24  1  0  0  0  0
  5 25  1  0  0  0  0
  5 26  1  0  0  0  0
  6 27  1  0  0  0  0
  6 28  1  0  0  0  0
  7 29  1  0  0  0  0
  7 30  1  0  0  0  0
  8 31  1  0  0  0  0
  8 32  1  0  0  0  0
  9 33  1  0  0  0  0
 11 34  1  0  0  0  0
 11 35  1  0  0  0  0
 11 36  1  0  0  0  0
 12 37  1  0  0  0  0
 12 38  1  0  0  0  0
 12 39  1  0  0  0  0
 13 40  1  0  0  0  0
 13 41  1  0  0  0  0
 13 42  1  0  0  0  0
 16 43  1  0  0  0  0
 16 44  1  0  0  0  0
M  END
> <id>
EN300-1668521

> <smiles>
CC(C)(C)OC(=O)N1CCCC2(CCC(N)C2)C1

> <MDLNUMBER>
MFCD28501440

> <IUPAC Name>
tert-butyl 2-amino-7-azaspiro[4.5]decane-7-carboxylate

> <CAS>
1638759-80-4

> <Purity>
95

> <URL>
https://www.enaminestore.com/catalog/EN300-1668521

> <ROCS_ShapeQuery>
amalgated

> <ROCS_TanimotoCombo>
0.876 

> <ROCS_ShapeTanimoto>
0.578 

> <ROCS_ColorTanimoto>
0.298 

> <ROCS_RefTversky>
0.550 

> <ROCS_RefColorTversky>
0.429 

> <ROCS_RefTverskyCombo>
0.979 

> <ROCS_FitTversky>
1.097 

> <ROCS_FitColorTversky>
0.493 

> <ROCS_FitTverskyCombo>
1.591 

> <ROCS_ColorScore>
-2.985

> <ROCS_Overlap>
904.298

> <ROCS_Rank>
90                  

$$$$
untitled-dbase-29296_40
  -OEChem-10092318153D

 41 42  0     1  0  0  0  0  0999 V2000
   -9.0060    0.2194  -13.0562 C   0  0  0  0  0  0  0  0  0  0  0  0
   -7.6501   -0.4082  -17.7896 C   0  0  0  0  0  0  0  0  0  0  0  0
   -9.3133   -3.1080  -16.7348 C   0  0  0  0  0  0  0  0  0  0  0  0
   -7.9243   -1.2213  -19.0538 C   0  0  0  0  0  0  0  0  0  0  0  0
   -9.3188   -3.0356  -18.2605 C   0  0  0  0  0  0  0  0  0  0  0  0
   -8.3948    0.3673  -15.5019 C   0  0  0  0  0  0  0  0  0  0  0  0
   -9.1947   -1.7185  -14.6109 C   0  0  0  0  0  0  0  0  0  0  0  0
   -8.6762   -0.5862  -16.6690 C   0  0  2  0  0  0  0  0  0  0  0  0
   -8.6050   -1.9687  -16.0009 C   0  0  2  0  0  0  0  0  0  0  0  0
  -10.8486    0.2570  -11.1944 C   0  0  0  0  0  0  0  0  0  0  0  0
   -9.8631   -1.8467  -10.2393 C   0  0  0  0  0  0  0  0  0  0  0  0
   -8.6835    0.3467   -9.9142 C   0  0  0  0  0  0  0  0  0  0  0  0
   -9.5558   -0.4834  -10.8549 C   0  0  0  0  0  0  0  0  0  0  0  0
   -8.0289   -2.6679  -18.8429 N   0  0  0  0  0  0  0  0  0  0  0  0
   -8.8717   -0.3333  -14.3186 N   0  0  0  0  0  0  0  0  0  0  0  0
   -9.2563    1.4037  -12.8442 O   0  0  0  0  0  0  0  0  0  0  0  0
   -8.8295   -0.7115  -12.0677 O   0  0  0  0  0  0  0  0  0  0  0  0
   -6.6475   -0.6577  -17.4173 H   0  0  0  0  0  0  0  0  0  0  0  0
   -7.6132    0.6520  -18.0722 H   0  0  0  0  0  0  0  0  0  0  0  0
  -10.3591   -3.1773  -16.4089 H   0  0  0  0  0  0  0  0  0  0  0  0
   -8.8470   -4.0518  -16.4217 H   0  0  0  0  0  0  0  0  0  0  0  0
   -8.8124   -0.8360  -19.5703 H   0  0  0  0  0  0  0  0  0  0  0  0
   -7.0858   -1.0491  -19.7400 H   0  0  0  0  0  0  0  0  0  0  0  0
   -9.5855   -4.0335  -18.6316 H   0  0  0  0  0  0  0  0  0  0  0  0
  -10.1232   -2.3762  -18.6104 H   0  0  0  0  0  0  0  0  0  0  0  0
   -7.3250    0.5598  -15.3625 H   0  0  0  0  0  0  0  0  0  0  0  0
   -8.9104    1.3265  -15.6125 H   0  0  0  0  0  0  0  0  0  0  0  0
  -10.2867   -1.8075  -14.5908 H   0  0  0  0  0  0  0  0  0  0  0  0
   -8.7765   -2.3796  -13.8453 H   0  0  0  0  0  0  0  0  0  0  0  0
   -9.6903   -0.3965  -17.0449 H   0  0  0  0  0  0  0  0  0  0  0  0
   -7.5476   -2.2443  -15.8758 H   0  0  0  0  0  0  0  0  0  0  0  0
  -10.6323    1.2361  -11.6366 H   0  0  0  0  0  0  0  0  0  0  0  0
  -11.4672   -0.3123  -11.8958 H   0  0  0  0  0  0  0  0  0  0  0  0
  -11.4380    0.4494  -10.2906 H   0  0  0  0  0  0  0  0  0  0  0  0
   -8.9383   -2.3815   -9.9941 H   0  0  0  0  0  0  0  0  0  0  0  0
  -10.4079   -2.4811  -10.9478 H   0  0  0  0  0  0  0  0  0  0  0  0
  -10.4613   -1.7526   -9.3272 H   0  0  0  0  0  0  0  0  0  0  0  0
   -7.7561   -0.1842   -9.6706 H   0  0  0  0  0  0  0  0  0  0  0  0
   -8.4223    1.3142  -10.3551 H   0  0  0  0  0  0  0  0  0  0  0  0
   -9.1969    0.5249   -8.9625 H   0  0  0  0  0  0  0  0  0  0  0  0
   -7.9591   -3.1159  -19.7577 H   0  0  0  0  0  0  0  0  0  0  0  0
  1 15  1  0  0  0  0
  1 16  2  0  0  0  0
  1 17  1  0  0  0  0
  2  4  1  0  0  0  0
  2  8  1  0  0  0  0
  3  5  1  0  0  0  0
  3  9  1  0  0  0  0
  4 14  1  0  0  0  0
  5 14  1  0  0  0  0
  6  8  1  0  0  0  0
  6 15  1  0  0  0  0
  7  9  1  0  0  0  0
  7 15  1  0  0  0  0
  8  9  1  0  0  0  0
 10 13  1  0  0  0  0
 11 13  1  0  0  0  0
 12 13  1  0  0  0  0
 13 17  1  0  0  0  0
  2 18  1  0  0  0  0
  2 19  1  0  0  0  0
  3 20  1  0  0  0  0
  3 21  1  0  0  0  0
  4 22  1  0  0  0  0
  4 23  1  0  0  0  0
  5 24  1  0  0  0  0
  5 25  1  0  0  0  0
  6 26  1  0  0  0  0
  6 27  1  0  0  0  0
  7 28  1  0  0  0  0
  7 29  1  0  0  0  0
  8 30  1  0  0  0  0
  9 31  1  0  0  0  0
 10 32  1  0  0  0  0
 10 33  1  0  0  0  0
 10 34  1  0  0  0  0
 11 35  1  0  0  0  0
 11 36  1  0  0  0  0
 11 37  1  0  0  0  0
 12 38  1  0  0  0  0
 12 39  1  0  0  0  0
 12 40  1  0  0  0  0
 14 41  1  0  0  0  0
M  END
> <id>
EN300-153806

> <smiles>
CC(C)(C)OC(=O)N1CC2CCNCCC2C1

> <MDLNUMBER>
MFCD19687135

> <IUPAC Name>
tert-butyl decahydropyrrolo[3,4-d]azepine-2-carboxylate

> <CAS>
1252572-33-0

> <URL>
https://www.enaminestore.com/catalog/EN300-153806

> <ROCS_ShapeQuery>
amalgated

> <ROCS_TanimotoCombo>
0.876 

> <ROCS_ShapeTanimoto>
0.611 

> <ROCS_ColorTanimoto>
0.265 

> <ROCS_RefTversky>
0.560 

> <ROCS_RefColorTversky>
0.392 

> <ROCS_RefTverskyCombo>
0.952 

> <ROCS_FitTversky>
1.174 

> <ROCS_FitColorTversky>
0.450 

> <ROCS_FitTverskyCombo>
1.624 

> <ROCS_ColorScore>
-2.724

> <ROCS_Overlap>
920.119

> <ROCS_Rank>
91                  

$$$$
untitled-dbase-34460_40
  -OEChem-10092318153D

 41 42  0     1  0  0  0  0  0999 V2000
   -9.0060    0.2194  -13.0562 C   0  0  0  0  0  0  0  0  0  0  0  0
   -7.6501   -0.4082  -17.7896 C   0  0  0  0  0  0  0  0  0  0  0  0
   -9.3133   -3.1080  -16.7348 C   0  0  0  0  0  0  0  0  0  0  0  0
   -7.9243   -1.2213  -19.0538 C   0  0  0  0  0  0  0  0  0  0  0  0
   -9.3188   -3.0356  -18.2605 C   0  0  0  0  0  0  0  0  0  0  0  0
   -8.3948    0.3673  -15.5019 C   0  0  0  0  0  0  0  0  0  0  0  0
   -9.1947   -1.7185  -14.6109 C   0  0  0  0  0  0  0  0  0  0  0  0
   -8.6762   -0.5862  -16.6690 C   0  0  2  0  0  0  0  0  0  0  0  0
   -8.6050   -1.9687  -16.0009 C   0  0  2  0  0  0  0  0  0  0  0  0
  -10.8486    0.2570  -11.1944 C   0  0  0  0  0  0  0  0  0  0  0  0
   -9.8631   -1.8467  -10.2393 C   0  0  0  0  0  0  0  0  0  0  0  0
   -8.6835    0.3467   -9.9142 C   0  0  0  0  0  0  0  0  0  0  0  0
   -9.5558   -0.4834  -10.8549 C   0  0  0  0  0  0  0  0  0  0  0  0
   -8.0289   -2.6679  -18.8429 N   0  0  0  0  0  0  0  0  0  0  0  0
   -8.8717   -0.3333  -14.3186 N   0  0  0  0  0  0  0  0  0  0  0  0
   -9.2563    1.4037  -12.8442 O   0  0  0  0  0  0  0  0  0  0  0  0
   -8.8295   -0.7115  -12.0677 O   0  0  0  0  0  0  0  0  0  0  0  0
   -6.6475   -0.6577  -17.4173 H   0  0  0  0  0  0  0  0  0  0  0  0
   -7.6132    0.6520  -18.0722 H   0  0  0  0  0  0  0  0  0  0  0  0
  -10.3591   -3.1773  -16.4089 H   0  0  0  0  0  0  0  0  0  0  0  0
   -8.8470   -4.0518  -16.4217 H   0  0  0  0  0  0  0  0  0  0  0  0
   -8.8124   -0.8360  -19.5703 H   0  0  0  0  0  0  0  0  0  0  0  0
   -7.0858   -1.0491  -19.7400 H   0  0  0  0  0  0  0  0  0  0  0  0
   -9.5855   -4.0335  -18.6316 H   0  0  0  0  0  0  0  0  0  0  0  0
  -10.1232   -2.3762  -18.6104 H   0  0  0  0  0  0  0  0  0  0  0  0
   -7.3250    0.5598  -15.3625 H   0  0  0  0  0  0  0  0  0  0  0  0
   -8.9104    1.3265  -15.6125 H   0  0  0  0  0  0  0  0  0  0  0  0
  -10.2867   -1.8075  -14.5908 H   0  0  0  0  0  0  0  0  0  0  0  0
   -8.7765   -2.3796  -13.8453 H   0  0  0  0  0  0  0  0  0  0  0  0
   -9.6903   -0.3965  -17.0449 H   0  0  0  0  0  0  0  0  0  0  0  0
   -7.5476   -2.2443  -15.8758 H   0  0  0  0  0  0  0  0  0  0  0  0
  -10.6323    1.2361  -11.6366 H   0  0  0  0  0  0  0  0  0  0  0  0
  -11.4672   -0.3123  -11.8958 H   0  0  0  0  0  0  0  0  0  0  0  0
  -11.4380    0.4494  -10.2906 H   0  0  0  0  0  0  0  0  0  0  0  0
   -8.9383   -2.3815   -9.9941 H   0  0  0  0  0  0  0  0  0  0  0  0
  -10.4079   -2.4811  -10.9478 H   0  0  0  0  0  0  0  0  0  0  0  0
  -10.4613   -1.7526   -9.3272 H   0  0  0  0  0  0  0  0  0  0  0  0
   -7.7561   -0.1842   -9.6706 H   0  0  0  0  0  0  0  0  0  0  0  0
   -8.4223    1.3142  -10.3551 H   0  0  0  0  0  0  0  0  0  0  0  0
   -9.1969    0.5249   -8.9625 H   0  0  0  0  0  0  0  0  0  0  0  0
   -7.9591   -3.1159  -19.7577 H   0  0  0  0  0  0  0  0  0  0  0  0
  1 15  1  0  0  0  0
  1 16  2  0  0  0  0
  1 17  1  0  0  0  0
  2  4  1  0  0  0  0
  2  8  1  0  0  0  0
  3  5  1  0  0  0  0
  3  9  1  0  0  0  0
  4 14  1  0  0  0  0
  5 14  1  0  0  0  0
  6  8  1  0  0  0  0
  6 15  1  0  0  0  0
  7  9  1  0  0  0  0
  7 15  1  0  0  0  0
  8  9  1  0  0  0  0
 10 13  1  0  0  0  0
 11 13  1  0  0  0  0
 12 13  1  0  0  0  0
 13 17  1  0  0  0  0
  2 18  1  0  0  0  0
  2 19  1  0  0  0  0
  3 20  1  0  0  0  0
  3 21  1  0  0  0  0
  4 22  1  0  0  0  0
  4 23  1  0  0  0  0
  5 24  1  0  0  0  0
  5 25  1  0  0  0  0
  6 26  1  0  0  0  0
  6 27  1  0  0  0  0
  7 28  1  0  0  0  0
  7 29  1  0  0  0  0
  8 30  1  0  0  0  0
  9 31  1  0  0  0  0
 10 32  1  0  0  0  0
 10 33  1  0  0  0  0
 10 34  1  0  0  0  0
 11 35  1  0  0  0  0
 11 36  1  0  0  0  0
 11 37  1  0  0  0  0
 12 38  1  0  0  0  0
 12 39  1  0  0  0  0
 12 40  1  0  0  0  0
 14 41  1  0  0  0  0
M  END
> <id>
EN300-297412

> <smiles>
Cl.CC(C)(C)OC(=O)N1CC2CCNCCC2C1

> <MDLNUMBER>
MFCD28580105

> <IUPAC Name>
tert-butyl decahydropyrrolo[3,4-d]azepine-2-carboxylate hydrochloride

> <CAS>
1841081-39-7

> <URL>
https://www.enaminestore.com/catalog/EN300-297412

> <Saltdate>
Cl

> <ROCS_ShapeQuery>
amalgated

> <ROCS_TanimotoCombo>
0.876 

> <ROCS_ShapeTanimoto>
0.611 

> <ROCS_ColorTanimoto>
0.265 

> <ROCS_RefTversky>
0.560 

> <ROCS_RefColorTversky>
0.392 

> <ROCS_RefTverskyCombo>
0.952 

> <ROCS_FitTversky>
1.174 

> <ROCS_FitColorTversky>
0.450 

> <ROCS_FitTverskyCombo>
1.624 

> <ROCS_ColorScore>
-2.724

> <ROCS_Overlap>
920.119

> <ROCS_Rank>
92                  

$$$$
untitled-dbase-11226_8
  -OEChem-10092318153D

 33 35  0     0  0  0  0  0  0999 V2000
   -8.9541   -2.0001  -18.3622 C   0  0  0  0  0  0  0  0  0  0  0  0
   -9.1197   -2.8958  -17.3062 C   0  0  0  0  0  0  0  0  0  0  0  0
   -8.4822   -0.7097  -18.1192 C   0  0  0  0  0  0  0  0  0  0  0  0
   -8.8137   -2.5047  -16.0029 C   0  0  0  0  0  0  0  0  0  0  0  0
   -8.1904   -0.3095  -16.8109 C   0  0  0  0  0  0  0  0  0  0  0  0
   -8.3660   -1.2066  -15.7502 C   0  0  0  0  0  0  0  0  0  0  0  0
   -7.6794    1.0623  -16.5959 C   0  0  0  0  0  0  0  0  0  0  0  0
   -7.7947    0.6506  -12.6824 C   0  0  0  0  0  0  0  0  0  0  0  0
   -9.9454   -0.6398  -13.0908 C   0  0  0  0  0  0  0  0  0  0  0  0
   -7.8475   -0.1792  -11.4000 C   0  0  0  0  0  0  0  0  0  0  0  0
  -10.2773   -0.0442  -11.7263 C   0  0  0  0  0  0  0  0  0  0  0  0
   -9.2460    1.2403  -14.6566 C   0  0  0  0  0  0  0  0  0  0  0  0
   -8.7522    0.0831  -13.7645 C   0  0  0  0  0  0  0  0  0  0  0  0
   -8.1882    1.7490  -15.5098 N   0  0  0  0  0  0  0  0  0  0  0  0
   -9.1712   -0.1508  -10.7739 N   0  0  0  0  0  0  0  0  0  0  0  0
   -6.8575    1.5330  -17.3769 O   0  0  0  0  0  0  0  0  0  0  0  0
   -7.9813   -0.9174  -14.4720 O   0  0  0  0  0  0  0  0  0  0  0  0
   -9.1850   -2.3106  -19.3772 H   0  0  0  0  0  0  0  0  0  0  0  0
   -9.4765   -3.9033  -17.5004 H   0  0  0  0  0  0  0  0  0  0  0  0
   -8.3531   -0.0284  -18.9560 H   0  0  0  0  0  0  0  0  0  0  0  0
   -8.9232   -3.2180  -15.1906 H   0  0  0  0  0  0  0  0  0  0  0  0
   -8.0614    1.6864  -12.4517 H   0  0  0  0  0  0  0  0  0  0  0  0
   -6.7659    0.6443  -13.0529 H   0  0  0  0  0  0  0  0  0  0  0  0
   -9.7174   -1.7035  -12.9606 H   0  0  0  0  0  0  0  0  0  0  0  0
  -10.8283   -0.5762  -13.7387 H   0  0  0  0  0  0  0  0  0  0  0  0
   -7.5478   -1.2194  -11.5976 H   0  0  0  0  0  0  0  0  0  0  0  0
   -7.1144    0.2212  -10.6857 H   0  0  0  0  0  0  0  0  0  0  0  0
  -10.5268    1.0222  -11.8530 H   0  0  0  0  0  0  0  0  0  0  0  0
  -11.1816   -0.5164  -11.3048 H   0  0  0  0  0  0  0  0  0  0  0  0
  -10.0678    0.9157  -15.3043 H   0  0  0  0  0  0  0  0  0  0  0  0
   -9.6199    2.0746  -14.0552 H   0  0  0  0  0  0  0  0  0  0  0  0
   -7.7997    2.6614  -15.2966 H   0  0  0  0  0  0  0  0  0  0  0  0
   -9.2940   -1.0035  -10.2099 H   0  0  0  0  0  0  0  0  0  0  0  0
  1  2  2  0  0  0  0
  1  3  1  0  0  0  0
  2  4  1  0  0  0  0
  3  5  2  0  0  0  0
  4  6  2  0  0  0  0
  5  6  1  0  0  0  0
  5  7  1  0  0  0  0
  6 17  1  0  0  0  0
  7 14  1  0  0  0  0
  7 16  2  0  0  0  0
  8 10  1  0  0  0  0
  8 13  1  0  0  0  0
  9 11  1  0  0  0  0
  9 13  1  0  0  0  0
 10 15  1  0  0  0  0
 11 15  1  0  0  0  0
 12 13  1  0  0  0  0
 12 14  1  0  0  0  0
 13 17  1  0  0  0  0
  1 18  1  0  0  0  0
  2 19  1  0  0  0  0
  3 20  1  0  0  0  0
  4 21  1  0  0  0  0
  8 22  1  0  0  0  0
  8 23  1  0  0  0  0
  9 24  1  0  0  0  0
  9 25  1  0  0  0  0
 10 26  1  0  0  0  0
 10 27  1  0  0  0  0
 11 28  1  0  0  0  0
 11 29  1  0  0  0  0
 12 30  1  0  0  0  0
 12 31  1  0  0  0  0
 14 32  1  0  0  0  0
 15 33  1  0  0  0  0
M  END
> <id>
EN300-396220

> <smiles>
Cl.O=C1NCC2(CCNCC2)OC=3C=CC=CC13

> <MDLNUMBER>
MFCD30751465

> <IUPAC Name>
4,5-dihydro-3H-spiro[1,4-benzoxazepine-2,4'-piperidine]-5-one hydrochloride

> <CAS>
2126162-86-3

> <Purity>
95

> <URL>
https://www.enaminestore.com/catalog/EN300-396220

> <Saltdate>
Cl

> <ROCS_ShapeQuery>
amalgated

> <ROCS_TanimotoCombo>
0.876 

> <ROCS_ShapeTanimoto>
0.595 

> <ROCS_ColorTanimoto>
0.281 

> <ROCS_RefTversky>
0.559 

> <ROCS_RefColorTversky>
0.467 

> <ROCS_RefTverskyCombo>
1.026 

> <ROCS_FitTversky>
1.120 

> <ROCS_FitColorTversky>
0.414 

> <ROCS_FitTverskyCombo>
1.533 

> <ROCS_ColorScore>
-3.290

> <ROCS_Overlap>
919.897

> <ROCS_Rank>
93                  

$$$$
untitled-dbase-11227_8
  -OEChem-10092318153D

 33 35  0     0  0  0  0  0  0999 V2000
   -8.9541   -2.0001  -18.3622 C   0  0  0  0  0  0  0  0  0  0  0  0
   -9.1197   -2.8958  -17.3062 C   0  0  0  0  0  0  0  0  0  0  0  0
   -8.4822   -0.7097  -18.1192 C   0  0  0  0  0  0  0  0  0  0  0  0
   -8.8137   -2.5047  -16.0029 C   0  0  0  0  0  0  0  0  0  0  0  0
   -8.1904   -0.3095  -16.8109 C   0  0  0  0  0  0  0  0  0  0  0  0
   -8.3660   -1.2066  -15.7502 C   0  0  0  0  0  0  0  0  0  0  0  0
   -7.6794    1.0623  -16.5959 C   0  0  0  0  0  0  0  0  0  0  0  0
   -7.7947    0.6506  -12.6824 C   0  0  0  0  0  0  0  0  0  0  0  0
   -9.9454   -0.6398  -13.0908 C   0  0  0  0  0  0  0  0  0  0  0  0
   -7.8475   -0.1792  -11.4000 C   0  0  0  0  0  0  0  0  0  0  0  0
  -10.2773   -0.0442  -11.7263 C   0  0  0  0  0  0  0  0  0  0  0  0
   -9.2460    1.2403  -14.6566 C   0  0  0  0  0  0  0  0  0  0  0  0
   -8.7522    0.0831  -13.7645 C   0  0  0  0  0  0  0  0  0  0  0  0
   -8.1882    1.7490  -15.5098 N   0  0  0  0  0  0  0  0  0  0  0  0
   -9.1712   -0.1508  -10.7739 N   0  0  0  0  0  0  0  0  0  0  0  0
   -6.8575    1.5330  -17.3769 O   0  0  0  0  0  0  0  0  0  0  0  0
   -7.9813   -0.9174  -14.4720 O   0  0  0  0  0  0  0  0  0  0  0  0
   -9.1850   -2.3106  -19.3772 H   0  0  0  0  0  0  0  0  0  0  0  0
   -9.4765   -3.9033  -17.5004 H   0  0  0  0  0  0  0  0  0  0  0  0
   -8.3531   -0.0284  -18.9560 H   0  0  0  0  0  0  0  0  0  0  0  0
   -8.9232   -3.2180  -15.1906 H   0  0  0  0  0  0  0  0  0  0  0  0
   -8.0614    1.6864  -12.4517 H   0  0  0  0  0  0  0  0  0  0  0  0
   -6.7659    0.6443  -13.0529 H   0  0  0  0  0  0  0  0  0  0  0  0
   -9.7174   -1.7035  -12.9606 H   0  0  0  0  0  0  0  0  0  0  0  0
  -10.8283   -0.5762  -13.7387 H   0  0  0  0  0  0  0  0  0  0  0  0
   -7.5478   -1.2194  -11.5976 H   0  0  0  0  0  0  0  0  0  0  0  0
   -7.1144    0.2212  -10.6857 H   0  0  0  0  0  0  0  0  0  0  0  0
  -10.5268    1.0222  -11.8530 H   0  0  0  0  0  0  0  0  0  0  0  0
  -11.1816   -0.5164  -11.3048 H   0  0  0  0  0  0  0  0  0  0  0  0
  -10.0678    0.9157  -15.3043 H   0  0  0  0  0  0  0  0  0  0  0  0
   -9.6199    2.0746  -14.0552 H   0  0  0  0  0  0  0  0  0  0  0  0
   -7.7997    2.6614  -15.2966 H   0  0  0  0  0  0  0  0  0  0  0  0
   -9.2940   -1.0035  -10.2099 H   0  0  0  0  0  0  0  0  0  0  0  0
  1  2  2  0  0  0  0
  1  3  1  0  0  0  0
  2  4  1  0  0  0  0
  3  5  2  0  0  0  0
  4  6  2  0  0  0  0
  5  6  1  0  0  0  0
  5  7  1  0  0  0  0
  6 17  1  0  0  0  0
  7 14  1  0  0  0  0
  7 16  2  0  0  0  0
  8 10  1  0  0  0  0
  8 13  1  0  0  0  0
  9 11  1  0  0  0  0
  9 13  1  0  0  0  0
 10 15  1  0  0  0  0
 11 15  1  0  0  0  0
 12 13  1  0  0  0  0
 12 14  1  0  0  0  0
 13 17  1  0  0  0  0
  1 18  1  0  0  0  0
  2 19  1  0  0  0  0
  3 20  1  0  0  0  0
  4 21  1  0  0  0  0
  8 22  1  0  0  0  0
  8 23  1  0  0  0  0
  9 24  1  0  0  0  0
  9 25  1  0  0  0  0
 10 26  1  0  0  0  0
 10 27  1  0  0  0  0
 11 28  1  0  0  0  0
 11 29  1  0  0  0  0
 12 30  1  0  0  0  0
 12 31  1  0  0  0  0
 14 32  1  0  0  0  0
 15 33  1  0  0  0  0
M  END
> <id>
EN300-396221

> <smiles>
O=C1NCC2(CCNCC2)OC=3C=CC=CC13

> <MDLNUMBER>
MFCD30751466

> <IUPAC Name>
4,5-dihydro-3H-spiro[1,4-benzoxazepine-2,4'-piperidine]-5-one

> <CAS>
1381372-80-0

> <URL>
https://www.enaminestore.com/catalog/EN300-396221

> <ROCS_ShapeQuery>
amalgated

> <ROCS_TanimotoCombo>
0.876 

> <ROCS_ShapeTanimoto>
0.595 

> <ROCS_ColorTanimoto>
0.281 

> <ROCS_RefTversky>
0.559 

> <ROCS_RefColorTversky>
0.467 

> <ROCS_RefTverskyCombo>
1.026 

> <ROCS_FitTversky>
1.120 

> <ROCS_FitColorTversky>
0.414 

> <ROCS_FitTverskyCombo>
1.533 

> <ROCS_ColorScore>
-3.290

> <ROCS_Overlap>
919.897

> <ROCS_Rank>
94                  

$$$$
untitled-dbase-29758_1
  -OEChem-10092318153D

 30 32  0     0  0  0  0  0  0999 V2000
   -9.0227   -2.9775  -17.1304 C   0  0  0  0  0  0  0  0  0  0  0  0
   -8.9864   -2.2627  -15.9283 C   0  0  0  0  0  0  0  0  0  0  0  0
   -8.6896   -2.3601  -18.3508 C   0  0  0  0  0  0  0  0  0  0  0  0
   -8.6134   -0.9329  -15.9783 C   0  0  0  0  0  0  0  0  0  0  0  0
   -8.2845   -0.3292  -17.1955 C   0  0  0  0  0  0  0  0  0  0  0  0
   -8.3137   -1.0160  -18.3933 C   0  0  0  0  0  0  0  0  0  0  0  0
   -8.4629    0.1070  -14.9660 C   0  0  0  0  0  0  0  0  0  0  0  0
   -8.6640    0.0205  -13.6436 C   0  0  0  0  0  0  0  0  0  0  0  0
   -8.0238    1.3685  -15.6516 C   0  0  0  0  0  0  0  0  0  0  0  0
   -8.4637    1.1965  -12.7230 C   0  0  0  0  0  0  0  0  0  0  0  0
   -9.1062   -1.2571  -12.9785 C   0  0  0  0  0  0  0  0  0  0  0  0
   -8.1547    0.7153  -11.3040 C   0  0  0  0  0  0  0  0  0  0  0  0
   -9.9210   -0.9495  -11.7207 C   0  0  0  0  0  0  0  0  0  0  0  0
   -7.9409    1.0134  -17.0018 N   0  0  0  0  0  0  0  0  0  0  0  0
   -9.2147   -0.1239  -10.7368 N   0  0  0  0  0  0  0  0  0  0  0  0
   -7.7982    2.4432  -15.1267 O   0  0  0  0  0  0  0  0  0  0  0  0
   -7.9096   -0.2709  -19.8852 Cl  0  0  0  0  0  0  0  0  0  0  0  0
   -9.3124   -4.0252  -17.1235 H   0  0  0  0  0  0  0  0  0  0  0  0
   -9.2453   -2.7487  -14.9941 H   0  0  0  0  0  0  0  0  0  0  0  0
   -8.7308   -2.9517  -19.2629 H   0  0  0  0  0  0  0  0  0  0  0  0
   -7.6326    1.8065  -13.0981 H   0  0  0  0  0  0  0  0  0  0  0  0
   -9.3501    1.8406  -12.7015 H   0  0  0  0  0  0  0  0  0  0  0  0
   -9.7079   -1.8720  -13.6579 H   0  0  0  0  0  0  0  0  0  0  0  0
   -8.2199   -1.8466  -12.7123 H   0  0  0  0  0  0  0  0  0  0  0  0
   -7.2163    0.1383  -11.3126 H   0  0  0  0  0  0  0  0  0  0  0  0
   -7.9710    1.5757  -10.6381 H   0  0  0  0  0  0  0  0  0  0  0  0
  -10.8762   -0.4589  -11.9931 H   0  0  0  0  0  0  0  0  0  0  0  0
  -10.2125   -1.8999  -11.2362 H   0  0  0  0  0  0  0  0  0  0  0  0
   -7.6674    1.6466  -17.7439 H   0  0  0  0  0  0  0  0  0  0  0  0
   -8.7960   -0.7459  -10.0266 H   0  0  0  0  0  0  0  0  0  0  0  0
  1  2  2  0  0  0  0
  1  3  1  0  0  0  0
  2  4  1  0  0  0  0
  3  6  2  0  0  0  0
  4  5  2  0  0  0  0
  4  7  1  0  0  0  0
  5  6  1  0  0  0  0
  5 14  1  0  0  0  0
  6 17  1  0  0  0  0
  7  8  2  0  0  0  0
  7  9  1  0  0  0  0
  8 10  1  0  0  0  0
  8 11  1  0  0  0  0
  9 14  1  0  0  0  0
  9 16  2  0  0  0  0
 10 12  1  0  0  0  0
 11 13  1  0  0  0  0
 12 15  1  0  0  0  0
 13 15  1  0  0  0  0
  1 18  1  0  0  0  0
  2 19  1  0  0  0  0
  3 20  1  0  0  0  0
 10 21  1  0  0  0  0
 10 22  1  0  0  0  0
 11 23  1  0  0  0  0
 11 24  1  0  0  0  0
 12 25  1  0  0  0  0
 12 26  1  0  0  0  0
 13 27  1  0  0  0  0
 13 28  1  0  0  0  0
 14 29  1  0  0  0  0
 15 30  1  0  0  0  0
M  END
> <id>
EN300-19931746

> <smiles>
ClC=1C=CC=C2C(=C3CCNCC3)C(=O)NC21

> <MDLNUMBER>
MFCD21876405

> <IUPAC Name>
7-chloro-3-(piperidin-4-ylidene)-2,3-dihydro-1H-indol-2-one

> <CAS>
1368757-34-9

> <URL>
https://www.enaminestore.com/catalog/EN300-19931746

> <ROCS_ShapeQuery>
amalgated

> <ROCS_TanimotoCombo>
0.875 

> <ROCS_ShapeTanimoto>
0.565 

> <ROCS_ColorTanimoto>
0.309 

> <ROCS_RefTversky>
0.540 

> <ROCS_RefColorTversky>
0.473 

> <ROCS_RefTverskyCombo>
1.013 

> <ROCS_FitTversky>
1.090 

> <ROCS_FitColorTversky>
0.472 

> <ROCS_FitTverskyCombo>
1.563 

> <ROCS_ColorScore>
-3.313

> <ROCS_Overlap>
887.696

> <ROCS_Rank>
95                  

$$$$
untitled-dbase-43529_36
  -OEChem-10092318153D

 41 42  0     1  0  0  0  0  0999 V2000
   -8.2304    0.4972  -13.2517 C   0  0  0  0  0  0  0  0  0  0  0  0
   -9.4600   -2.7773  -16.8323 C   0  0  0  0  0  0  0  0  0  0  0  0
   -7.5071    0.5868  -16.8232 C   0  0  0  0  0  0  0  0  0  0  0  0
   -9.3456   -3.0212  -18.3362 C   0  0  0  0  0  0  0  0  0  0  0  0
   -8.2882    1.1624  -15.6409 C   0  0  0  0  0  0  0  0  0  0  0  0
   -7.7411   -1.2270  -18.5889 C   0  0  0  0  0  0  0  0  0  0  0  0
   -9.1339   -1.0914  -14.9692 C   0  0  0  0  0  0  0  0  0  0  0  0
   -7.8000   -0.9008  -17.0904 C   0  0  2  0  0  0  0  0  0  0  0  0
   -9.1499   -1.3171  -16.4857 C   0  0  1  0  0  0  0  0  0  0  0  0
  -10.4774    0.7365  -11.9195 C   0  0  0  0  0  0  0  0  0  0  0  0
  -10.1800   -1.6133  -11.0833 C   0  0  0  0  0  0  0  0  0  0  0  0
   -8.7649    0.2369  -10.1441 C   0  0  0  0  0  0  0  0  0  0  0  0
   -9.4794   -0.2908  -11.3874 C   0  0  0  0  0  0  0  0  0  0  0  0
   -8.0260   -2.6411  -18.8407 N   0  0  0  0  0  0  0  0  0  0  0  0
   -8.5086    0.1794  -14.5851 N   0  0  0  0  0  0  0  0  0  0  0  0
   -7.7961    1.5821  -12.8703 O   0  0  0  0  0  0  0  0  0  0  0  0
   -8.5012   -0.5441  -12.4023 O   0  0  0  0  0  0  0  0  0  0  0  0
  -10.4736   -3.0343  -16.4966 H   0  0  0  0  0  0  0  0  0  0  0  0
   -8.7712   -3.4460  -16.2963 H   0  0  0  0  0  0  0  0  0  0  0  0
   -7.7320    1.1812  -17.7312 H   0  0  0  0  0  0  0  0  0  0  0  0
   -6.4234    0.7239  -16.6424 H   0  0  0  0  0  0  0  0  0  0  0  0
   -9.5145   -4.0811  -18.5480 H   0  0  0  0  0  0  0  0  0  0  0  0
  -10.1207   -2.4635  -18.8721 H   0  0  0  0  0  0  0  0  0  0  0  0
   -7.7314    1.9981  -15.1919 H   0  0  0  0  0  0  0  0  0  0  0  0
   -9.2434    1.5726  -15.9963 H   0  0  0  0  0  0  0  0  0  0  0  0
   -8.4457   -0.6004  -19.1536 H   0  0  0  0  0  0  0  0  0  0  0  0
   -6.7413   -0.9968  -18.9800 H   0  0  0  0  0  0  0  0  0  0  0  0
  -10.1639   -1.1601  -14.5759 H   0  0  0  0  0  0  0  0  0  0  0  0
   -8.5639   -1.8930  -14.4618 H   0  0  0  0  0  0  0  0  0  0  0  0
   -6.9954   -1.4829  -16.5928 H   0  0  0  0  0  0  0  0  0  0  0  0
   -9.9435   -0.6901  -16.9080 H   0  0  0  0  0  0  0  0  0  0  0  0
   -9.9784    1.6872  -12.1390 H   0  0  0  0  0  0  0  0  0  0  0  0
  -10.9713    0.3845  -12.8311 H   0  0  0  0  0  0  0  0  0  0  0  0
  -11.2477    0.9571  -11.1717 H   0  0  0  0  0  0  0  0  0  0  0  0
   -9.4676   -2.3534  -10.7012 H   0  0  0  0  0  0  0  0  0  0  0  0
  -10.6137   -2.0435  -11.9933 H   0  0  0  0  0  0  0  0  0  0  0  0
  -10.9783   -1.4871  -10.3449 H   0  0  0  0  0  0  0  0  0  0  0  0
   -8.0489   -0.4998   -9.7622 H   0  0  0  0  0  0  0  0  0  0  0  0
   -8.2258    1.1667  -10.3529 H   0  0  0  0  0  0  0  0  0  0  0  0
   -9.4790    0.4230   -9.3338 H   0  0  0  0  0  0  0  0  0  0  0  0
   -7.3193   -3.2074  -18.3729 H   0  0  0  0  0  0  0  0  0  0  0  0
  1 15  1  0  0  0  0
  1 16  2  0  0  0  0
  1 17  1  0  0  0  0
  2  4  1  0  0  0  0
  2  9  1  0  0  0  0
  3  5  1  0  0  0  0
  3  8  1  0  0  0  0
  4 14  1  0  0  0  0
  5 15  1  0  0  0  0
  6  8  1  0  0  0  0
  6 14  1  0  0  0  0
  7  9  1  0  0  0  0
  7 15  1  0  0  0  0
  8  9  1  0  0  0  0
 10 13  1  0  0  0  0
 11 13  1  0  0  0  0
 12 13  1  0  0  0  0
 13 17  1  0  0  0  0
  2 18  1  0  0  0  0
  2 19  1  0  0  0  0
  3 20  1  0  0  0  0
  3 21  1  0  0  0  0
  4 22  1  0  0  0  0
  4 23  1  0  0  0  0
  5 24  1  0  0  0  0
  5 25  1  0  0  0  0
  6 26  1  0  0  0  0
  6 27  1  0  0  0  0
  7 28  1  0  0  0  0
  7 29  1  0  0  0  0
  8 30  1  0  0  0  0
  9 31  1  0  0  0  0
 10 32  1  0  0  0  0
 10 33  1  0  0  0  0
 10 34  1  0  0  0  0
 11 35  1  0  0  0  0
 11 36  1  0  0  0  0
 11 37  1  0  0  0  0
 12 38  1  0  0  0  0
 12 39  1  0  0  0  0
 12 40  1  0  0  0  0
 14 41  1  0  0  0  0
M  END
> <id>
EN300-27146274

> <smiles>
Cl.CC(C)(C)OC(=O)N1CCC2CNCCC2C1

> <MDLNUMBER>
MFCD32860088

> <IUPAC Name>
tert-butyl decahydro-2,6-naphthyridine-2-carboxylate hydrochloride

> <CAS>
2503207-78-9

> <Purity>
95

> <URL>
https://www.enaminestore.com/catalog/EN300-27146274

> <Saltdate>
Cl

> <ROCS_ShapeQuery>
amalgated

> <ROCS_TanimotoCombo>
0.874 

> <ROCS_ShapeTanimoto>
0.621 

> <ROCS_ColorTanimoto>
0.253 

> <ROCS_RefTversky>
0.566 

> <ROCS_RefColorTversky>
0.377 

> <ROCS_RefTverskyCombo>
0.943 

> <ROCS_FitTversky>
1.187 

> <ROCS_FitColorTversky>
0.433 

> <ROCS_FitTverskyCombo>
1.620 

> <ROCS_ColorScore>
-2.622

> <ROCS_Overlap>
929.510

> <ROCS_Rank>
96                  

$$$$
untitled-dbase-40342_36
  -OEChem-10092318153D

 41 42  0     1  0  0  0  0  0999 V2000
   -8.2304    0.4972  -13.2517 C   0  0  0  0  0  0  0  0  0  0  0  0
   -9.4600   -2.7773  -16.8323 C   0  0  0  0  0  0  0  0  0  0  0  0
   -7.5071    0.5868  -16.8232 C   0  0  0  0  0  0  0  0  0  0  0  0
   -9.3456   -3.0212  -18.3362 C   0  0  0  0  0  0  0  0  0  0  0  0
   -8.2882    1.1624  -15.6409 C   0  0  0  0  0  0  0  0  0  0  0  0
   -7.7411   -1.2270  -18.5889 C   0  0  0  0  0  0  0  0  0  0  0  0
   -9.1339   -1.0914  -14.9692 C   0  0  0  0  0  0  0  0  0  0  0  0
   -7.8000   -0.9008  -17.0904 C   0  0  2  0  0  0  0  0  0  0  0  0
   -9.1499   -1.3171  -16.4857 C   0  0  1  0  0  0  0  0  0  0  0  0
  -10.4774    0.7365  -11.9195 C   0  0  0  0  0  0  0  0  0  0  0  0
  -10.1800   -1.6133  -11.0833 C   0  0  0  0  0  0  0  0  0  0  0  0
   -8.7649    0.2369  -10.1441 C   0  0  0  0  0  0  0  0  0  0  0  0
   -9.4794   -0.2908  -11.3874 C   0  0  0  0  0  0  0  0  0  0  0  0
   -8.0260   -2.6411  -18.8407 N   0  0  0  0  0  0  0  0  0  0  0  0
   -8.5086    0.1794  -14.5851 N   0  0  0  0  0  0  0  0  0  0  0  0
   -7.7961    1.5821  -12.8703 O   0  0  0  0  0  0  0  0  0  0  0  0
   -8.5012   -0.5441  -12.4023 O   0  0  0  0  0  0  0  0  0  0  0  0
  -10.4736   -3.0343  -16.4966 H   0  0  0  0  0  0  0  0  0  0  0  0
   -8.7712   -3.4460  -16.2963 H   0  0  0  0  0  0  0  0  0  0  0  0
   -7.7320    1.1812  -17.7312 H   0  0  0  0  0  0  0  0  0  0  0  0
   -6.4234    0.7239  -16.6424 H   0  0  0  0  0  0  0  0  0  0  0  0
   -9.5145   -4.0811  -18.5480 H   0  0  0  0  0  0  0  0  0  0  0  0
  -10.1207   -2.4635  -18.8721 H   0  0  0  0  0  0  0  0  0  0  0  0
   -7.7314    1.9981  -15.1919 H   0  0  0  0  0  0  0  0  0  0  0  0
   -9.2434    1.5726  -15.9963 H   0  0  0  0  0  0  0  0  0  0  0  0
   -8.4457   -0.6004  -19.1536 H   0  0  0  0  0  0  0  0  0  0  0  0
   -6.7413   -0.9968  -18.9800 H   0  0  0  0  0  0  0  0  0  0  0  0
  -10.1639   -1.1601  -14.5759 H   0  0  0  0  0  0  0  0  0  0  0  0
   -8.5639   -1.8930  -14.4618 H   0  0  0  0  0  0  0  0  0  0  0  0
   -6.9954   -1.4829  -16.5928 H   0  0  0  0  0  0  0  0  0  0  0  0
   -9.9435   -0.6901  -16.9080 H   0  0  0  0  0  0  0  0  0  0  0  0
   -9.9784    1.6872  -12.1390 H   0  0  0  0  0  0  0  0  0  0  0  0
  -10.9713    0.3845  -12.8311 H   0  0  0  0  0  0  0  0  0  0  0  0
  -11.2477    0.9571  -11.1717 H   0  0  0  0  0  0  0  0  0  0  0  0
   -9.4676   -2.3534  -10.7012 H   0  0  0  0  0  0  0  0  0  0  0  0
  -10.6137   -2.0435  -11.9933 H   0  0  0  0  0  0  0  0  0  0  0  0
  -10.9783   -1.4871  -10.3449 H   0  0  0  0  0  0  0  0  0  0  0  0
   -8.0489   -0.4998   -9.7622 H   0  0  0  0  0  0  0  0  0  0  0  0
   -8.2258    1.1667  -10.3529 H   0  0  0  0  0  0  0  0  0  0  0  0
   -9.4790    0.4230   -9.3338 H   0  0  0  0  0  0  0  0  0  0  0  0
   -7.3193   -3.2074  -18.3729 H   0  0  0  0  0  0  0  0  0  0  0  0
  1 15  1  0  0  0  0
  1 16  2  0  0  0  0
  1 17  1  0  0  0  0
  2  4  1  0  0  0  0
  2  9  1  0  0  0  0
  3  5  1  0  0  0  0
  3  8  1  0  0  0  0
  4 14  1  0  0  0  0
  5 15  1  0  0  0  0
  6  8  1  0  0  0  0
  6 14  1  0  0  0  0
  7  9  1  0  0  0  0
  7 15  1  0  0  0  0
  8  9  1  0  0  0  0
 10 13  1  0  0  0  0
 11 13  1  0  0  0  0
 12 13  1  0  0  0  0
 13 17  1  0  0  0  0
  2 18  1  0  0  0  0
  2 19  1  0  0  0  0
  3 20  1  0  0  0  0
  3 21  1  0  0  0  0
  4 22  1  0  0  0  0
  4 23  1  0  0  0  0
  5 24  1  0  0  0  0
  5 25  1  0  0  0  0
  6 26  1  0  0  0  0
  6 27  1  0  0  0  0
  7 28  1  0  0  0  0
  7 29  1  0  0  0  0
  8 30  1  0  0  0  0
  9 31  1  0  0  0  0
 10 32  1  0  0  0  0
 10 33  1  0  0  0  0
 10 34  1  0  0  0  0
 11 35  1  0  0  0  0
 11 36  1  0  0  0  0
 11 37  1  0  0  0  0
 12 38  1  0  0  0  0
 12 39  1  0  0  0  0
 12 40  1  0  0  0  0
 14 41  1  0  0  0  0
M  END
> <id>
EN300-7145958

> <smiles>
CC(C)(C)OC(=O)N1CCC2CNCCC2C1

> <MDLNUMBER>
MFCD26517859

> <IUPAC Name>
tert-butyl decahydro-2,6-naphthyridine-2-carboxylate

> <CAS>
1510552-09-6

> <URL>
https://www.enaminestore.com/catalog/EN300-7145958

> <ROCS_ShapeQuery>
amalgated

> <ROCS_TanimotoCombo>
0.874 

> <ROCS_ShapeTanimoto>
0.621 

> <ROCS_ColorTanimoto>
0.253 

> <ROCS_RefTversky>
0.566 

> <ROCS_RefColorTversky>
0.377 

> <ROCS_RefTverskyCombo>
0.943 

> <ROCS_FitTversky>
1.187 

> <ROCS_FitColorTversky>
0.433 

> <ROCS_FitTverskyCombo>
1.620 

> <ROCS_ColorScore>
-2.622

> <ROCS_Overlap>
929.510

> <ROCS_Rank>
97                  

$$$$
untitled-dbase-43915_12
  -OEChem-10092318153D

 35 36  0     1  0  0  0  0  0999 V2000
   -8.6493   -0.3135  -14.3223 C   0  0  0  0  0  0  0  0  0  0  0  0
   -8.6118   -2.9786  -16.8463 C   0  0  0  0  0  0  0  0  0  0  0  0
   -7.3267   -0.1958  -17.5209 C   0  0  0  0  0  0  0  0  0  0  0  0
   -9.3583   -2.2373  -15.7374 C   0  0  0  0  0  0  0  0  0  0  0  0
   -8.5552   -0.8060  -18.1415 C   0  0  2  0  0  0  0  0  0  0  0  0
   -8.6520   -0.1157  -16.8027 C   0  0  1  0  0  0  0  0  0  0  0  0
   -8.8012   -2.2863  -18.2020 C   0  0  1  0  0  0  0  0  0  0  0  0
   -9.5957    1.1827  -12.0761 C   0  0  0  0  0  0  0  0  0  0  0  0
  -10.3731   -1.0254  -11.1655 C   0  0  0  0  0  0  0  0  0  0  0  0
   -7.9255   -0.6300  -11.5670 C   0  0  0  0  0  0  0  0  0  0  0  0
   -9.3431   -0.3240  -12.0483 C   0  0  0  0  0  0  0  0  0  0  0  0
   -8.8695   -0.8656  -15.5862 N   0  0  0  0  0  0  0  0  0  0  0  0
   -7.9229   -2.8871  -19.2031 N   0  0  0  0  0  0  0  0  0  0  0  0
   -7.8036    0.5433  -14.0747 O   0  0  0  0  0  0  0  0  0  0  0  0
   -9.4939   -0.8359  -13.3772 O   0  0  0  0  0  0  0  0  0  0  0  0
   -7.5485   -3.0409  -16.5796 H   0  0  0  0  0  0  0  0  0  0  0  0
   -8.9792   -4.0107  -16.9046 H   0  0  0  0  0  0  0  0  0  0  0  0
   -6.5613   -0.8512  -17.1248 H   0  0  0  0  0  0  0  0  0  0  0  0
   -6.9405    0.7159  -17.9610 H   0  0  0  0  0  0  0  0  0  0  0  0
  -10.4303   -2.1803  -15.9588 H   0  0  0  0  0  0  0  0  0  0  0  0
   -9.2461   -2.7784  -14.7921 H   0  0  0  0  0  0  0  0  0  0  0  0
   -8.9760   -0.2913  -18.9993 H   0  0  0  0  0  0  0  0  0  0  0  0
   -9.1710    0.8382  -16.8080 H   0  0  0  0  0  0  0  0  0  0  0  0
   -9.8340   -2.4392  -18.5240 H   0  0  0  0  0  0  0  0  0  0  0  0
   -8.8585    1.6898  -12.7087 H   0  0  0  0  0  0  0  0  0  0  0  0
  -10.5968    1.4170  -12.4525 H   0  0  0  0  0  0  0  0  0  0  0  0
   -9.4928    1.6150  -11.0742 H   0  0  0  0  0  0  0  0  0  0  0  0
  -10.1956   -2.1067  -11.1427 H   0  0  0  0  0  0  0  0  0  0  0  0
  -11.3856   -0.8871  -11.5617 H   0  0  0  0  0  0  0  0  0  0  0  0
  -10.3483   -0.6483  -10.1380 H   0  0  0  0  0  0  0  0  0  0  0  0
   -7.7441   -1.7107  -11.5470 H   0  0  0  0  0  0  0  0  0  0  0  0
   -7.1719   -0.1649  -12.2107 H   0  0  0  0  0  0  0  0  0  0  0  0
   -7.7764   -0.2724  -10.5418 H   0  0  0  0  0  0  0  0  0  0  0  0
   -8.1350   -3.8547  -19.2610 H   0  0  0  0  0  0  0  0  0  0  0  0
   -8.0912   -2.4381  -20.0719 H   0  0  0  0  0  0  0  0  0  0  0  0
  1 12  1  0  0  0  0
  1 14  2  0  0  0  0
  1 15  1  0  0  0  0
  2  4  1  0  0  0  0
  2  7  1  0  0  0  0
  3  5  1  0  0  0  0
  3  6  1  0  0  0  0
  4 12  1  0  0  0  0
  5  6  1  0  0  0  0
  5  7  1  0  0  0  0
  6 12  1  0  0  0  0
  7 13  1  0  0  0  0
  8 11  1  0  0  0  0
  9 11  1  0  0  0  0
 10 11  1  0  0  0  0
 11 15  1  0  0  0  0
  2 16  1  0  0  0  0
  2 17  1  0  0  0  0
  3 18  1  0  0  0  0
  3 19  1  0  0  0  0
  4 20  1  0  0  0  0
  4 21  1  0  0  0  0
  5 22  1  0  0  0  0
  6 23  1  0  0  0  0
  7 24  1  0  0  0  0
  8 25  1  0  0  0  0
  8 26  1  0  0  0  0
  8 27  1  0  0  0  0
  9 28  1  0  0  0  0
  9 29  1  0  0  0  0
  9 30  1  0  0  0  0
 10 31  1  0  0  0  0
 10 32  1  0  0  0  0
 10 33  1  0  0  0  0
 13 34  1  0  0  0  0
 13 35  1  0  0  0  0
M  END
> <id>
EN300-7086267

> <smiles>
CC(C)(C)OC(=O)N1CCC(N)C2CC21

> <MDLNUMBER>
MFCD31743356

> <IUPAC Name>
tert-butyl 5-amino-2-azabicyclo[4.1.0]heptane-2-carboxylate

> <CAS>
1896752-10-5

> <Purity>
95

> <URL>
https://www.enaminestore.com/catalog/EN300-7086267

> <ROCS_ShapeQuery>
amalgated

> <ROCS_TanimotoCombo>
0.873 

> <ROCS_ShapeTanimoto>
0.546 

> <ROCS_ColorTanimoto>
0.327 

> <ROCS_RefTversky>
0.505 

> <ROCS_RefColorTversky>
0.519 

> <ROCS_RefTverskyCombo>
1.024 

> <ROCS_FitTversky>
1.175 

> <ROCS_FitColorTversky>
0.470 

> <ROCS_FitTverskyCombo>
1.645 

> <ROCS_ColorScore>
-3.656

> <ROCS_Overlap>
826.840

> <ROCS_Rank>
98                  

$$$$
untitled-dbase-8089_0
  -OEChem-10092318153D

 30 32  0     0  0  0  0  0  0999 V2000
   -8.0210   -0.4012  -17.3110 C   0  0  0  0  0  0  0  0  0  0  0  0
   -8.2815   -1.3871  -18.2689 C   0  0  0  0  0  0  0  0  0  0  0  0
   -9.2622   -2.7776  -16.5728 C   0  0  0  0  0  0  0  0  0  0  0  0
   -9.0012   -1.7863  -15.6146 C   0  0  0  0  0  0  0  0  0  0  0  0
   -8.3677   -0.5751  -15.9563 C   0  0  0  0  0  0  0  0  0  0  0  0
   -8.8994   -2.5748  -17.8996 C   0  0  0  0  0  0  0  0  0  0  0  0
   -9.4096   -2.0324  -14.2147 C   0  0  0  0  0  0  0  0  0  0  0  0
   -9.1892   -0.9368  -13.2338 C   0  0  0  0  0  0  0  0  0  0  0  0
   -8.5859    0.1972  -13.6467 C   0  0  0  0  0  0  0  0  0  0  0  0
   -9.6503   -1.1741  -11.8198 C   0  0  0  0  0  0  0  0  0  0  0  0
   -8.4284    1.3215  -12.6344 C   0  0  0  0  0  0  0  0  0  0  0  0
   -9.2572    1.1453  -11.3572 C   0  0  0  0  0  0  0  0  0  0  0  0
   -7.3562    1.5826  -15.3696 C   0  0  0  0  0  0  0  0  0  0  0  0
   -9.1204   -0.2142  -10.8492 N   0  0  0  0  0  0  0  0  0  0  0  0
   -8.1155    0.3999  -14.9528 N   0  0  0  0  0  0  0  0  0  0  0  0
   -9.9231   -3.0945  -13.8832 O   0  0  0  0  0  0  0  0  0  0  0  0
   -9.1478   -3.5181  -18.8169 F   0  0  0  0  0  0  0  0  0  0  0  0
   -7.5424    0.5087  -17.6637 H   0  0  0  0  0  0  0  0  0  0  0  0
   -8.0000   -1.2217  -19.3050 H   0  0  0  0  0  0  0  0  0  0  0  0
   -9.7491   -3.7108  -16.3029 H   0  0  0  0  0  0  0  0  0  0  0  0
  -10.7471   -1.1538  -11.7958 H   0  0  0  0  0  0  0  0  0  0  0  0
   -9.3377   -2.1721  -11.4924 H   0  0  0  0  0  0  0  0  0  0  0  0
   -7.3673    1.3990  -12.3635 H   0  0  0  0  0  0  0  0  0  0  0  0
   -8.7311    2.2751  -13.0837 H   0  0  0  0  0  0  0  0  0  0  0  0
   -8.9061    1.8551  -10.6000 H   0  0  0  0  0  0  0  0  0  0  0  0
  -10.3127    1.3784  -11.5473 H   0  0  0  0  0  0  0  0  0  0  0  0
   -8.0510    2.3604  -15.7194 H   0  0  0  0  0  0  0  0  0  0  0  0
   -6.7767    1.9655  -14.5166 H   0  0  0  0  0  0  0  0  0  0  0  0
   -6.6709    1.3094  -16.1855 H   0  0  0  0  0  0  0  0  0  0  0  0
   -9.6303   -0.3072   -9.9713 H   0  0  0  0  0  0  0  0  0  0  0  0
  1  2  1  0  0  0  0
  1  5  2  0  0  0  0
  2  6  2  0  0  0  0
  3  4  2  0  0  0  0
  3  6  1  0  0  0  0
  4  5  1  0  0  0  0
  4  7  1  0  0  0  0
  5 15  1  0  0  0  0
  6 17  1  0  0  0  0
  7  8  1  0  0  0  0
  7 16  2  0  0  0  0
  8  9  2  0  0  0  0
  8 10  1  0  0  0  0
  9 11  1  0  0  0  0
  9 15  1  0  0  0  0
 10 14  1  0  0  0  0
 11 12  1  0  0  0  0
 12 14  1  0  0  0  0
 13 15  1  0  0  0  0
  1 18  1  0  0  0  0
  2 19  1  0  0  0  0
  3 20  1  0  0  0  0
 10 21  1  0  0  0  0
 10 22  1  0  0  0  0
 11 23  1  0  0  0  0
 11 24  1  0  0  0  0
 12 25  1  0  0  0  0
 12 26  1  0  0  0  0
 13 27  1  0  0  0  0
 13 28  1  0  0  0  0
 13 29  1  0  0  0  0
 14 30  1  0  0  0  0
M  END
> <id>
EN300-264873

> <smiles>
CN1C=2CCNCC2C(=O)C=3C=C(F)C=CC13

> <MDLNUMBER>
MFCD21086569

> <IUPAC Name>
8-fluoro-5-methyl-1H,2H,3H,4H,5H,10H-benzo[b]1,6-naphthyridin-10-one

> <CAS>
1355180-85-6

> <URL>
https://www.enaminestore.com/catalog/EN300-264873

> <ROCS_ShapeQuery>
amalgated

> <ROCS_TanimotoCombo>
0.873 

> <ROCS_ShapeTanimoto>
0.550 

> <ROCS_ColorTanimoto>
0.323 

> <ROCS_RefTversky>
0.533 

> <ROCS_RefColorTversky>
0.457 

> <ROCS_RefTverskyCombo>
0.990 

> <ROCS_FitTversky>
1.061 

> <ROCS_FitColorTversky>
0.524 

> <ROCS_FitTverskyCombo>
1.585 

> <ROCS_ColorScore>
-3.177

> <ROCS_Overlap>
876.362

> <ROCS_Rank>
99                  

$$$$
untitled-dbase-1047_1
  -OEChem-10092318153D

 30 32  0     0  0  0  0  0  0999 V2000
   -9.0117   -2.9783  -17.1319 C   0  0  0  0  0  0  0  0  0  0  0  0
   -8.6868   -2.3583  -18.3533 C   0  0  0  0  0  0  0  0  0  0  0  0
   -8.9781   -2.2631  -15.9300 C   0  0  0  0  0  0  0  0  0  0  0  0
   -8.3221   -1.0112  -18.3968 C   0  0  0  0  0  0  0  0  0  0  0  0
   -8.6161   -0.9303  -15.9810 C   0  0  0  0  0  0  0  0  0  0  0  0
   -8.2953   -0.3241  -17.1992 C   0  0  0  0  0  0  0  0  0  0  0  0
   -8.4713    0.1109  -14.9693 C   0  0  0  0  0  0  0  0  0  0  0  0
   -8.6686    0.0231  -13.6464 C   0  0  0  0  0  0  0  0  0  0  0  0
   -8.0444    1.3759  -15.6562 C   0  0  0  0  0  0  0  0  0  0  0  0
   -8.4754    1.2008  -12.7265 C   0  0  0  0  0  0  0  0  0  0  0  0
   -9.0991   -1.2578  -12.9801 C   0  0  0  0  0  0  0  0  0  0  0  0
   -8.1591    0.7224  -11.3081 C   0  0  0  0  0  0  0  0  0  0  0  0
   -9.9132   -0.9565  -11.7202 C   0  0  0  0  0  0  0  0  0  0  0  0
   -7.9622    1.0214  -17.0066 N   0  0  0  0  0  0  0  0  0  0  0  0
   -9.2111   -0.1251  -10.7382 N   0  0  0  0  0  0  0  0  0  0  0  0
   -7.8263    2.4525  -15.1320 O   0  0  0  0  0  0  0  0  0  0  0  0
   -9.2920   -4.0285  -17.1249 H   0  0  0  0  0  0  0  0  0  0  0  0
   -8.7200   -2.9380  -19.2720 H   0  0  0  0  0  0  0  0  0  0  0  0
   -9.2297   -2.7503  -14.9945 H   0  0  0  0  0  0  0  0  0  0  0  0
   -8.0712   -0.5333  -19.3368 H   0  0  0  0  0  0  0  0  0  0  0  0
   -7.6501    1.8174  -13.1037 H   0  0  0  0  0  0  0  0  0  0  0  0
   -9.3668    1.8379  -12.7030 H   0  0  0  0  0  0  0  0  0  0  0  0
   -9.6975   -1.8776  -13.6578 H   0  0  0  0  0  0  0  0  0  0  0  0
   -8.2074   -1.8403  -12.7159 H   0  0  0  0  0  0  0  0  0  0  0  0
   -7.2163    0.1528  -11.3189 H   0  0  0  0  0  0  0  0  0  0  0  0
   -7.9807    1.5844  -10.6428 H   0  0  0  0  0  0  0  0  0  0  0  0
  -10.8730   -0.4735  -11.9904 H   0  0  0  0  0  0  0  0  0  0  0  0
  -10.1959   -1.9091  -11.2349 H   0  0  0  0  0  0  0  0  0  0  0  0
   -7.6958    1.6568  -17.7496 H   0  0  0  0  0  0  0  0  0  0  0  0
   -8.7858   -0.7436  -10.0289 H   0  0  0  0  0  0  0  0  0  0  0  0
  1  2  2  0  0  0  0
  1  3  1  0  0  0  0
  2  4  1  0  0  0  0
  3  5  2  0  0  0  0
  4  6  2  0  0  0  0
  5  6  1  0  0  0  0
  5  7  1  0  0  0  0
  6 14  1  0  0  0  0
  7  8  2  0  0  0  0
  7  9  1  0  0  0  0
  8 10  1  0  0  0  0
  8 11  1  0  0  0  0
  9 14  1  0  0  0  0
  9 16  2  0  0  0  0
 10 12  1  0  0  0  0
 11 13  1  0  0  0  0
 12 15  1  0  0  0  0
 13 15  1  0  0  0  0
  1 17  1  0  0  0  0
  2 18  1  0  0  0  0
  3 19  1  0  0  0  0
  4 20  1  0  0  0  0
 10 21  1  0  0  0  0
 10 22  1  0  0  0  0
 11 23  1  0  0  0  0
 11 24  1  0  0  0  0
 12 25  1  0  0  0  0
 12 26  1  0  0  0  0
 13 27  1  0  0  0  0
 13 28  1  0  0  0  0
 14 29  1  0  0  0  0
 15 30  1  0  0  0  0
M  END
> <id>
EN300-62722

> <smiles>
Cl.O=C1NC=2C=CC=CC2C1=C3CCNCC3

> <MDLNUMBER>
MFCD16547572

> <IUPAC Name>
3-(piperidin-4-ylidene)-2,3-dihydro-1H-indol-2-one hydrochloride

> <CAS>
1240529-54-7

> <Purity>
95

> <URL>
https://www.enaminestore.com/catalog/EN300-62722

> <Saltdate>
Cl

> <MP>
284-286

> <ROCS_ShapeQuery>
amalgated

> <ROCS_TanimotoCombo>
0.873 

> <ROCS_ShapeTanimoto>
0.563 

> <ROCS_ColorTanimoto>
0.310 

> <ROCS_RefTversky>
0.531 

> <ROCS_RefColorTversky>
0.473 

> <ROCS_RefTverskyCombo>
1.005 

> <ROCS_FitTversky>
1.119 

> <ROCS_FitColorTversky>
0.472 

> <ROCS_FitTverskyCombo>
1.592 

> <ROCS_ColorScore>
-3.313

> <ROCS_Overlap>
872.511

> <ROCS_Rank>
100                 

$$$$
untitled-dbase-2209_1
  -OEChem-10092318153D

 30 32  0     0  0  0  0  0  0999 V2000
   -9.0117   -2.9783  -17.1319 C   0  0  0  0  0  0  0  0  0  0  0  0
   -8.6868   -2.3583  -18.3533 C   0  0  0  0  0  0  0  0  0  0  0  0
   -8.9781   -2.2631  -15.9300 C   0  0  0  0  0  0  0  0  0  0  0  0
   -8.3221   -1.0112  -18.3968 C   0  0  0  0  0  0  0  0  0  0  0  0
   -8.6161   -0.9303  -15.9810 C   0  0  0  0  0  0  0  0  0  0  0  0
   -8.2953   -0.3241  -17.1992 C   0  0  0  0  0  0  0  0  0  0  0  0
   -8.4713    0.1109  -14.9693 C   0  0  0  0  0  0  0  0  0  0  0  0
   -8.6686    0.0231  -13.6464 C   0  0  0  0  0  0  0  0  0  0  0  0
   -8.0444    1.3759  -15.6562 C   0  0  0  0  0  0  0  0  0  0  0  0
   -8.4754    1.2008  -12.7265 C   0  0  0  0  0  0  0  0  0  0  0  0
   -9.0991   -1.2578  -12.9801 C   0  0  0  0  0  0  0  0  0  0  0  0
   -8.1591    0.7224  -11.3081 C   0  0  0  0  0  0  0  0  0  0  0  0
   -9.9132   -0.9565  -11.7202 C   0  0  0  0  0  0  0  0  0  0  0  0
   -7.9622    1.0214  -17.0066 N   0  0  0  0  0  0  0  0  0  0  0  0
   -9.2111   -0.1251  -10.7382 N   0  0  0  0  0  0  0  0  0  0  0  0
   -7.8263    2.4525  -15.1320 O   0  0  0  0  0  0  0  0  0  0  0  0
   -9.2920   -4.0285  -17.1249 H   0  0  0  0  0  0  0  0  0  0  0  0
   -8.7200   -2.9380  -19.2720 H   0  0  0  0  0  0  0  0  0  0  0  0
   -9.2297   -2.7503  -14.9945 H   0  0  0  0  0  0  0  0  0  0  0  0
   -8.0712   -0.5333  -19.3368 H   0  0  0  0  0  0  0  0  0  0  0  0
   -7.6501    1.8174  -13.1037 H   0  0  0  0  0  0  0  0  0  0  0  0
   -9.3668    1.8379  -12.7030 H   0  0  0  0  0  0  0  0  0  0  0  0
   -9.6975   -1.8776  -13.6578 H   0  0  0  0  0  0  0  0  0  0  0  0
   -8.2074   -1.8403  -12.7159 H   0  0  0  0  0  0  0  0  0  0  0  0
   -7.2163    0.1528  -11.3189 H   0  0  0  0  0  0  0  0  0  0  0  0
   -7.9807    1.5844  -10.6428 H   0  0  0  0  0  0  0  0  0  0  0  0
  -10.8730   -0.4735  -11.9904 H   0  0  0  0  0  0  0  0  0  0  0  0
  -10.1959   -1.9091  -11.2349 H   0  0  0  0  0  0  0  0  0  0  0  0
   -7.6958    1.6568  -17.7496 H   0  0  0  0  0  0  0  0  0  0  0  0
   -8.7858   -0.7436  -10.0289 H   0  0  0  0  0  0  0  0  0  0  0  0
  1  2  2  0  0  0  0
  1  3  1  0  0  0  0
  2  4  1  0  0  0  0
  3  5  2  0  0  0  0
  4  6  2  0  0  0  0
  5  6  1  0  0  0  0
  5  7  1  0  0  0  0
  6 14  1  0  0  0  0
  7  8  2  0  0  0  0
  7  9  1  0  0  0  0
  8 10  1  0  0  0  0
  8 11  1  0  0  0  0
  9 14  1  0  0  0  0
  9 16  2  0  0  0  0
 10 12  1  0  0  0  0
 11 13  1  0  0  0  0
 12 15  1  0  0  0  0
 13 15  1  0  0  0  0
  1 17  1  0  0  0  0
  2 18  1  0  0  0  0
  3 19  1  0  0  0  0
  4 20  1  0  0  0  0
 10 21  1  0  0  0  0
 10 22  1  0  0  0  0
 11 23  1  0  0  0  0
 11 24  1  0  0  0  0
 12 25  1  0  0  0  0
 12 26  1  0  0  0  0
 13 27  1  0  0  0  0
 13 28  1  0  0  0  0
 14 29  1  0  0  0  0
 15 30  1  0  0  0  0
M  END
> <id>
EN300-72760

> <smiles>
O=C1NC=2C=CC=CC2C1=C3CCNCC3

> <MDLNUMBER>
MFCD18838667

> <IUPAC Name>
3-(piperidin-4-ylidene)-2,3-dihydro-1H-indol-2-one

> <CAS>
79099-09-5

> <URL>
https://www.enaminestore.com/catalog/EN300-72760

> <ROCS_ShapeQuery>
amalgated

> <ROCS_TanimotoCombo>
0.873 

> <ROCS_ShapeTanimoto>
0.563 

> <ROCS_ColorTanimoto>
0.310 

> <ROCS_RefTversky>
0.531 

> <ROCS_RefColorTversky>
0.473 

> <ROCS_RefTverskyCombo>
1.005 

> <ROCS_FitTversky>
1.119 

> <ROCS_FitColorTversky>
0.472 

> <ROCS_FitTverskyCombo>
1.592 

> <ROCS_ColorScore>
-3.313

> <ROCS_Overlap>
872.511

> <ROCS_Rank>
101                 

$$$$
untitled-dbase-44248_7
  -OEChem-10092318153D

 35 36  0     1  0  0  0  0  0999 V2000
   -8.5899   -0.2083  -14.3770 C   0  0  0  0  0  0  0  0  0  0  0  0
   -7.6704   -0.8328  -17.8747 C   0  0  0  0  0  0  0  0  0  0  0  0
   -8.6430   -3.2199  -16.0836 C   0  0  0  0  0  0  0  0  0  0  0  0
   -8.3450    0.0687  -16.8408 C   0  0  0  0  0  0  0  0  0  0  0  0
   -9.3484   -2.6291  -17.2753 C   0  0  1  0  0  0  0  0  0  0  0  0
   -9.4486   -1.9528  -15.9297 C   0  0  2  0  0  0  0  0  0  0  0  0
   -8.6351   -1.9110  -18.3848 C   0  0  2  0  0  0  0  0  0  0  0  0
   -9.4881    1.3308  -12.1396 C   0  0  0  0  0  0  0  0  0  0  0  0
  -10.6107   -0.7809  -11.3715 C   0  0  0  0  0  0  0  0  0  0  0  0
   -8.1102   -0.7037  -11.5947 C   0  0  0  0  0  0  0  0  0  0  0  0
   -9.4379   -0.1963  -12.1557 C   0  0  0  0  0  0  0  0  0  0  0  0
   -8.7865   -0.6940  -15.6717 N   0  0  0  0  0  0  0  0  0  0  0  0
   -7.9188   -2.8789  -19.2123 N   0  0  0  0  0  0  0  0  0  0  0  0
   -7.6587    0.5198  -14.0403 O   0  0  0  0  0  0  0  0  0  0  0  0
   -9.5602   -0.6420  -13.5110 O   0  0  0  0  0  0  0  0  0  0  0  0
   -7.3201   -0.2216  -18.7157 H   0  0  0  0  0  0  0  0  0  0  0  0
   -6.7771   -1.2859  -17.4247 H   0  0  0  0  0  0  0  0  0  0  0  0
   -9.0523   -4.1271  -15.6549 H   0  0  0  0  0  0  0  0  0  0  0  0
   -7.5632   -3.1576  -16.0320 H   0  0  0  0  0  0  0  0  0  0  0  0
   -7.6512    0.8569  -16.5305 H   0  0  0  0  0  0  0  0  0  0  0  0
   -9.2296    0.5569  -17.2662 H   0  0  0  0  0  0  0  0  0  0  0  0
  -10.2265   -3.1564  -17.6342 H   0  0  0  0  0  0  0  0  0  0  0  0
  -10.4167   -2.0271  -15.4431 H   0  0  0  0  0  0  0  0  0  0  0  0
   -9.3939   -1.4214  -19.0082 H   0  0  0  0  0  0  0  0  0  0  0  0
   -8.6479    1.7543  -12.7014 H   0  0  0  0  0  0  0  0  0  0  0  0
  -10.4207    1.7083  -12.5715 H   0  0  0  0  0  0  0  0  0  0  0  0
   -9.4004    1.7142  -11.1165 H   0  0  0  0  0  0  0  0  0  0  0  0
  -10.5786   -1.8764  -11.3804 H   0  0  0  0  0  0  0  0  0  0  0  0
  -11.5658   -0.4963  -11.8277 H   0  0  0  0  0  0  0  0  0  0  0  0
  -10.6093   -0.4424  -10.3303 H   0  0  0  0  0  0  0  0  0  0  0  0
   -8.0739   -1.7990  -11.6061 H   0  0  0  0  0  0  0  0  0  0  0  0
   -7.2585   -0.3237  -12.1681 H   0  0  0  0  0  0  0  0  0  0  0  0
   -7.9883   -0.4012  -10.5483 H   0  0  0  0  0  0  0  0  0  0  0  0
   -8.5747   -3.5414  -19.5524 H   0  0  0  0  0  0  0  0  0  0  0  0
   -7.4930   -2.3890  -19.9628 H   0  0  0  0  0  0  0  0  0  0  0  0
  1 12  1  0  0  0  0
  1 14  2  0  0  0  0
  1 15  1  0  0  0  0
  2  4  1  0  0  0  0
  2  7  1  0  0  0  0
  3  5  1  1  0  0  0
  3  6  1  1  0  0  0
  4 12  1  0  0  0  0
  5  6  1  0  0  0  0
  5  7  1  0  0  0  0
  6 12  1  0  0  0  0
  7 13  1  1  0  0  0
  8 11  1  0  0  0  0
  9 11  1  0  0  0  0
 10 11  1  0  0  0  0
 11 15  1  0  0  0  0
  2 16  1  0  0  0  0
  2 17  1  0  0  0  0
  3 18  1  0  0  0  0
  3 19  1  0  0  0  0
  4 20  1  0  0  0  0
  4 21  1  0  0  0  0
  5 22  1  0  0  0  0
  6 23  1  0  0  0  0
  7 24  1  0  0  0  0
  8 25  1  0  0  0  0
  8 26  1  0  0  0  0
  8 27  1  0  0  0  0
  9 28  1  0  0  0  0
  9 29  1  0  0  0  0
  9 30  1  0  0  0  0
 10 31  1  0  0  0  0
 10 32  1  0  0  0  0
 10 33  1  0  0  0  0
 13 34  1  0  0  0  0
 13 35  1  0  0  0  0
M  END
> <id>
EN300-28221265

> <smiles>
CC(C)(C)OC(=O)N1CC[C@@H](N)[C@H]2C[C@H]21 |&1:10,12,14,r|

> <IUPAC Name>
rac-tert-butyl (1R,5R,6R)-5-amino-2-azabicyclo[4.1.0]heptane-2-carboxylate

> <CAS>
2648865-60-3

> <Purity>
95

> <URL>
https://www.enaminestore.com/catalog/EN300-28221265

> <ROCS_ShapeQuery>
amalgated

> <ROCS_TanimotoCombo>
0.873 

> <ROCS_ShapeTanimoto>
0.545 

> <ROCS_ColorTanimoto>
0.327 

> <ROCS_RefTversky>
0.504 

> <ROCS_RefColorTversky>
0.519 

> <ROCS_RefTverskyCombo>
1.024 

> <ROCS_FitTversky>
1.175 

> <ROCS_FitColorTversky>
0.470 

> <ROCS_FitTverskyCombo>
1.644 

> <ROCS_ColorScore>
-3.656

> <ROCS_Overlap>
826.397

> <ROCS_Rank>
102                 

$$$$
untitled-dbase-45571_12
  -OEChem-10092318153D

 42 44  0     1  0  0  0  0  0999 V2000
   -8.8444   -1.7349  -15.8584 C   0  0  0  0  0  0  0  0  0  0  0  0
   -9.0941   -2.7343  -16.8019 C   0  0  0  0  0  0  0  0  0  0  0  0
   -8.3059   -1.2791  -18.5347 C   0  0  0  0  0  0  0  0  0  0  0  0
   -8.3602   -0.4685  -16.2338 C   0  0  0  0  0  0  0  0  0  0  0  0
   -8.0078   -0.2675  -17.5989 C   0  0  0  0  0  0  0  0  0  0  0  0
   -8.8505   -2.4980  -18.1435 C   0  0  0  0  0  0  0  0  0  0  0  0
   -8.7061    0.6930  -13.9675 C   0  0  0  0  0  0  0  0  0  0  0  0
   -6.1204    2.5031  -19.1552 C   0  0  0  0  0  0  0  0  0  0  0  0
   -6.4146    2.9958  -17.7421 C   0  0  0  0  0  0  0  0  0  0  0  0
   -7.0816    1.3269  -19.3476 C   0  0  0  0  0  0  0  0  0  0  0  0
   -7.6164    1.8773  -15.7932 C   0  0  0  0  0  0  0  0  0  0  0  0
   -6.7126    1.6988  -16.9902 C   0  0  1  0  0  0  0  0  0  0  0  0
  -10.7473   -0.0266  -12.0855 C   0  0  0  0  0  0  0  0  0  0  0  0
   -9.2057   -1.8940  -11.4182 C   0  0  0  0  0  0  0  0  0  0  0  0
   -8.4866    0.4924  -11.1087 C   0  0  0  0  0  0  0  0  0  0  0  0
   -9.2907   -0.4750  -11.9760 C   0  0  0  0  0  0  0  0  0  0  0  0
   -8.2011    0.6248  -15.2903 N   0  0  0  0  0  0  0  0  0  0  0  0
   -7.3639    0.8826  -17.9915 N   0  0  3  0  0  0  0  0  0  0  0  0
   -9.1627    1.7265  -13.4745 O   0  0  0  0  0  0  0  0  0  0  0  0
   -8.7190   -0.4926  -13.2900 O   0  0  0  0  0  0  0  0  0  0  0  0
   -9.2598   -3.8167  -19.4315 Br  0  0  0  0  0  0  0  0  0  0  0  0
   -9.0925   -1.9781  -14.8284 H   0  0  0  0  0  0  0  0  0  0  0  0
   -9.4958   -3.6869  -16.4640 H   0  0  0  0  0  0  0  0  0  0  0  0
   -8.0978   -1.1161  -19.5902 H   0  0  0  0  0  0  0  0  0  0  0  0
   -6.2665    3.2865  -19.9060 H   0  0  0  0  0  0  0  0  0  0  0  0
   -5.0819    2.1535  -19.2209 H   0  0  0  0  0  0  0  0  0  0  0  0
   -5.5682    3.5406  -17.3130 H   0  0  0  0  0  0  0  0  0  0  0  0
   -7.2858    3.6623  -17.7514 H   0  0  0  0  0  0  0  0  0  0  0  0
   -8.0032    1.6645  -19.8353 H   0  0  0  0  0  0  0  0  0  0  0  0
   -6.6136    0.5474  -19.9579 H   0  0  0  0  0  0  0  0  0  0  0  0
   -7.0432    2.3912  -14.9958 H   0  0  0  0  0  0  0  0  0  0  0  0
   -8.4666    2.5557  -16.0209 H   0  0  0  0  0  0  0  0  0  0  0  0
   -5.7730    1.2206  -16.6897 H   0  0  0  0  0  0  0  0  0  0  0  0
  -10.8126    0.9915  -12.4856 H   0  0  0  0  0  0  0  0  0  0  0  0
  -11.3267   -0.6926  -12.7333 H   0  0  0  0  0  0  0  0  0  0  0  0
  -11.2241   -0.0023  -11.0990 H   0  0  0  0  0  0  0  0  0  0  0  0
   -8.1623   -2.2198  -11.3380 H   0  0  0  0  0  0  0  0  0  0  0  0
   -9.7010   -2.6068  -12.0874 H   0  0  0  0  0  0  0  0  0  0  0  0
   -9.6689   -1.9677  -10.4290 H   0  0  0  0  0  0  0  0  0  0  0  0
   -7.4417    0.1711  -11.0300 H   0  0  0  0  0  0  0  0  0  0  0  0
   -8.5058    1.5091  -11.5143 H   0  0  0  0  0  0  0  0  0  0  0  0
   -8.8800    0.5180  -10.0860 H   0  0  0  0  0  0  0  0  0  0  0  0
  1  2  1  0  0  0  0
  1  4  2  0  0  0  0
  2  6  2  0  0  0  0
  3  5  2  0  0  0  0
  3  6  1  0  0  0  0
  4  5  1  0  0  0  0
  4 17  1  0  0  0  0
  5 18  1  0  0  0  0
  6 21  1  0  0  0  0
  7 17  1  0  0  0  0
  7 19  2  0  0  0  0
  7 20  1  0  0  0  0
  8  9  1  0  0  0  0
  8 10  1  0  0  0  0
  9 12  1  0  0  0  0
 10 18  1  0  0  0  0
 11 12  1  0  0  0  0
 11 17  1  0  0  0  0
 12 18  1  0  0  0  0
 13 16  1  0  0  0  0
 14 16  1  0  0  0  0
 15 16  1  0  0  0  0
 16 20  1  0  0  0  0
  1 22  1  0  0  0  0
  2 23  1  0  0  0  0
  3 24  1  0  0  0  0
  8 25  1  0  0  0  0
  8 26  1  0  0  0  0
  9 27  1  0  0  0  0
  9 28  1  0  0  0  0
 10 29  1  0  0  0  0
 10 30  1  0  0  0  0
 11 31  1  0  0  0  0
 11 32  1  0  0  0  0
 12 33  1  0  0  0  0
 13 34  1  0  0  0  0
 13 35  1  0  0  0  0
 13 36  1  0  0  0  0
 14 37  1  0  0  0  0
 14 38  1  0  0  0  0
 14 39  1  0  0  0  0
 15 40  1  0  0  0  0
 15 41  1  0  0  0  0
 15 42  1  0  0  0  0
M  END
> <id>
EN300-28298853

> <smiles>
CC(C)(C)OC(=O)N1CC2CCCN2C=3C=C(Br)C=CC13

> <IUPAC Name>
tert-butyl 8-bromo-1H,2H,3H,3aH,4H,5H-pyrrolo[1,2-a]quinoxaline-5-carboxylate

> <CAS>
2680685-10-1

> <URL>
https://www.enaminestore.com/catalog/EN300-28298853

> <ROCS_ShapeQuery>
amalgated

> <ROCS_TanimotoCombo>
0.872 

> <ROCS_ShapeTanimoto>
0.694 

> <ROCS_ColorTanimoto>
0.178 

> <ROCS_RefTversky>
0.653 

> <ROCS_RefColorTversky>
0.283 

> <ROCS_RefTverskyCombo>
0.936 

> <ROCS_FitTversky>
1.100 

> <ROCS_FitColorTversky>
0.324 

> <ROCS_FitTverskyCombo>
1.424 

> <ROCS_ColorScore>
-1.967

> <ROCS_Overlap>
1079.181

> <ROCS_Rank>
103                 

$$$$
untitled-dbase-12086_28
  -OEChem-10092318153D

 48 50  0     1  0  0  0  0  0999 V2000
   -9.3182   -0.6914  -13.9619 C   0  0  0  0  0  0  0  0  0  0  0  0
   -8.8667   -4.9024  -16.3572 C   0  0  0  0  0  0  0  0  0  0  0  0
  -10.1028   -4.7455  -17.2402 C   0  0  0  0  0  0  0  0  0  0  0  0
   -7.4389    1.1484  -16.4701 C   0  0  0  0  0  0  0  0  0  0  0  0
   -7.4964    0.4152  -17.8024 C   0  0  0  0  0  0  0  0  0  0  0  0
   -8.6833   -3.5475  -15.6864 C   0  0  0  0  0  0  0  0  0  0  0  0
  -10.3441   -3.2404  -17.3984 C   0  0  0  0  0  0  0  0  0  0  0  0
   -7.4255    0.1854  -15.2930 C   0  0  0  0  0  0  0  0  0  0  0  0
   -8.5162   -0.7200  -17.7868 C   0  0  2  0  0  0  0  0  0  0  0  0
   -9.3054   -1.0425  -16.4778 C   0  0  1  0  0  0  0  0  0  0  0  0
   -7.9014   -2.1410  -17.6948 C   0  0  1  0  0  0  0  0  0  0  0  0
   -9.1017   -2.5705  -16.7882 C   0  0  0  0  0  0  0  0  0  0  0  0
   -9.2821   -1.6826  -11.2780 C   0  0  0  0  0  0  0  0  0  0  0  0
   -8.2139    0.5103  -10.6786 C   0  0  0  0  0  0  0  0  0  0  0  0
  -10.5341    0.4707  -11.6395 C   0  0  0  0  0  0  0  0  0  0  0  0
   -9.1625   -0.2028  -11.6397 C   0  0  0  0  0  0  0  0  0  0  0  0
   -8.6897   -0.5449  -15.2068 N   0  0  0  0  0  0  0  0  0  0  0  0
   -7.9686   -2.7637  -19.0113 N   0  0  0  0  0  0  0  0  0  0  0  0
  -10.3791   -1.2844  -13.7794 O   0  0  0  0  0  0  0  0  0  0  0  0
   -8.6038   -0.0988  -12.9538 O   0  0  0  0  0  0  0  0  0  0  0  0
   -8.9811   -5.7179  -15.6244 H   0  0  0  0  0  0  0  0  0  0  0  0
   -7.9877   -5.1444  -16.9807 H   0  0  0  0  0  0  0  0  0  0  0  0
   -9.9793   -5.2470  -18.2215 H   0  0  0  0  0  0  0  0  0  0  0  0
  -10.9767   -5.2259  -16.7534 H   0  0  0  0  0  0  0  0  0  0  0  0
   -6.5332    1.7758  -16.4367 H   0  0  0  0  0  0  0  0  0  0  0  0
   -8.2959    1.8374  -16.3770 H   0  0  0  0  0  0  0  0  0  0  0  0
   -7.7481    1.1302  -18.6169 H   0  0  0  0  0  0  0  0  0  0  0  0
   -6.4790    0.0447  -18.0587 H   0  0  0  0  0  0  0  0  0  0  0  0
   -9.3487   -3.5008  -14.8265 H   0  0  0  0  0  0  0  0  0  0  0  0
   -7.6598   -3.4185  -15.3427 H   0  0  0  0  0  0  0  0  0  0  0  0
  -10.4255   -3.0289  -18.4715 H   0  0  0  0  0  0  0  0  0  0  0  0
  -11.2828   -2.9348  -16.9254 H   0  0  0  0  0  0  0  0  0  0  0  0
   -6.6387   -0.5458  -15.4089 H   0  0  0  0  0  0  0  0  0  0  0  0
   -7.2630    0.7335  -14.3775 H   0  0  0  0  0  0  0  0  0  0  0  0
   -9.1982   -0.5862  -18.6495 H   0  0  0  0  0  0  0  0  0  0  0  0
  -10.3282   -0.7090  -16.5582 H   0  0  0  0  0  0  0  0  0  0  0  0
   -6.9010   -2.1963  -17.2433 H   0  0  0  0  0  0  0  0  0  0  0  0
   -9.9622   -2.1981  -11.9655 H   0  0  0  0  0  0  0  0  0  0  0  0
   -8.3099   -2.1852  -11.3086 H   0  0  0  0  0  0  0  0  0  0  0  0
   -9.7045   -1.8069  -10.2743 H   0  0  0  0  0  0  0  0  0  0  0  0
   -8.1251    1.5724  -10.9344 H   0  0  0  0  0  0  0  0  0  0  0  0
   -7.2033    0.0913  -10.7450 H   0  0  0  0  0  0  0  0  0  0  0  0
   -8.5547    0.4309   -9.6413 H   0  0  0  0  0  0  0  0  0  0  0  0
  -10.4486    1.5321  -11.8989 H   0  0  0  0  0  0  0  0  0  0  0  0
  -11.2171   -0.0050  -12.3508 H   0  0  0  0  0  0  0  0  0  0  0  0
  -10.9872    0.4316  -10.6423 H   0  0  0  0  0  0  0  0  0  0  0  0
   -7.3292   -2.2930  -19.6037 H   0  0  0  0  0  0  0  0  0  0  0  0
   -7.7220   -3.7177  -18.9092 H   0  0  0  0  0  0  0  0  0  0  0  0
  1 17  1  0  0  0  0
  1 19  2  0  0  0  0
  1 20  1  0  0  0  0
  2  3  1  0  0  0  0
  2  6  1  0  0  0  0
  3  7  1  0  0  0  0
  4  5  1  0  0  0  0
  4  8  1  0  0  0  0
  5  9  1  0  0  0  0
  6 12  1  0  0  0  0
  7 12  1  0  0  0  0
  8 17  1  0  0  0  0
  9 10  1  0  0  0  0
  9 11  1  0  0  0  0
 10 12  1  0  0  0  0
 10 17  1  0  0  0  0
 11 12  1  0  0  0  0
 11 18  1  0  0  0  0
 13 16  1  0  0  0  0
 14 16  1  0  0  0  0
 15 16  1  0  0  0  0
 16 20  1  0  0  0  0
  2 21  1  0  0  0  0
  2 22  1  0  0  0  0
  3 23  1  0  0  0  0
  3 24  1  0  0  0  0
  4 25  1  0  0  0  0
  4 26  1  0  0  0  0
  5 27  1  0  0  0  0
  5 28  1  0  0  0  0
  6 29  1  0  0  0  0
  6 30  1  0  0  0  0
  7 31  1  0  0  0  0
  7 32  1  0  0  0  0
  8 33  1  0  0  0  0
  8 34  1  0  0  0  0
  9 35  1  0  0  0  0
 10 36  1  0  0  0  0
 11 37  1  0  0  0  0
 13 38  1  0  0  0  0
 13 39  1  0  0  0  0
 13 40  1  0  0  0  0
 14 41  1  0  0  0  0
 14 42  1  0  0  0  0
 14 43  1  0  0  0  0
 15 44  1  0  0  0  0
 15 45  1  0  0  0  0
 15 46  1  0  0  0  0
 18 47  1  0  0  0  0
 18 48  1  0  0  0  0
M  END
> <id>
EN300-701134

> <smiles>
CC(C)(C)OC(=O)N1CCCC2C(N)C3(CCCC3)C21

> <IUPAC Name>
tert-butyl 8-amino-5-azaspiro[bicyclo[4.2.0]octane-7,1'-cyclopentane]-5-carboxylate

> <CAS>
2137735-10-3

> <URL>
https://www.enaminestore.com/catalog/EN300-701134

> <ROCS_ShapeQuery>
amalgated

> <ROCS_TanimotoCombo>
0.872 

> <ROCS_ShapeTanimoto>
0.596 

> <ROCS_ColorTanimoto>
0.276 

> <ROCS_RefTversky>
0.582 

> <ROCS_RefColorTversky>
0.435 

> <ROCS_RefTverskyCombo>
1.017 

> <ROCS_FitTversky>
1.042 

> <ROCS_FitColorTversky>
0.431 

> <ROCS_FitTverskyCombo>
1.473 

> <ROCS_ColorScore>
-3.045

> <ROCS_Overlap>
960.049

> <ROCS_Rank>
104                 

$$$$
untitled-dbase-38786_6
  -OEChem-10092318153D

 31 33  0     0  0  0  0  0  0999 V2000
   -8.0823   -1.9374  -18.3902 C   0  0  0  0  0  0  0  0  0  0  0  0
   -8.9738   -2.8132  -17.7763 C   0  0  0  0  0  0  0  0  0  0  0  0
   -7.7319   -0.7454  -17.7594 C   0  0  0  0  0  0  0  0  0  0  0  0
   -9.5096   -2.5025  -16.5249 C   0  0  0  0  0  0  0  0  0  0  0  0
   -8.2706   -0.4392  -16.5040 C   0  0  0  0  0  0  0  0  0  0  0  0
   -9.1540   -1.3188  -15.8638 C   0  0  0  0  0  0  0  0  0  0  0  0
   -7.9530    0.8572  -15.8648 C   0  0  0  0  0  0  0  0  0  0  0  0
   -7.9736   -0.6959  -12.9251 C   0  0  0  0  0  0  0  0  0  0  0  0
  -10.1595    0.6101  -12.8695 C   0  0  0  0  0  0  0  0  0  0  0  0
   -7.8120   -0.0151  -11.5678 C   0  0  0  0  0  0  0  0  0  0  0  0
  -10.2675   -0.1258  -11.5354 C   0  0  0  0  0  0  0  0  0  0  0  0
   -9.0709   -0.0108  -13.7753 C   0  0  0  0  0  0  0  0  0  0  0  0
   -9.6943   -1.0233  -14.6215 N   0  0  0  0  0  0  0  0  0  0  0  0
   -8.4831    1.0479  -14.6041 N   0  0  0  0  0  0  0  0  0  0  0  0
   -9.0294   -0.0533  -10.7561 N   0  0  0  0  0  0  0  0  0  0  0  0
   -7.2903    1.7044  -16.4548 O   0  0  0  0  0  0  0  0  0  0  0  0
   -7.6536   -2.1876  -19.3562 H   0  0  0  0  0  0  0  0  0  0  0  0
   -9.2520   -3.7397  -18.2701 H   0  0  0  0  0  0  0  0  0  0  0  0
   -7.0358   -0.0740  -18.2545 H   0  0  0  0  0  0  0  0  0  0  0  0
  -10.2183   -3.1918  -16.0708 H   0  0  0  0  0  0  0  0  0  0  0  0
   -7.0203   -0.6910  -13.4579 H   0  0  0  0  0  0  0  0  0  0  0  0
   -8.2423   -1.7430  -12.7563 H   0  0  0  0  0  0  0  0  0  0  0  0
  -11.1306    0.5596  -13.3771 H   0  0  0  0  0  0  0  0  0  0  0  0
   -9.9562    1.6703  -12.6859 H   0  0  0  0  0  0  0  0  0  0  0  0
   -7.0035   -0.5133  -11.0072 H   0  0  0  0  0  0  0  0  0  0  0  0
   -7.4800    1.0303  -11.6880 H   0  0  0  0  0  0  0  0  0  0  0  0
  -11.1065    0.2652  -10.9393 H   0  0  0  0  0  0  0  0  0  0  0  0
  -10.5007   -1.1844  -11.7225 H   0  0  0  0  0  0  0  0  0  0  0  0
  -10.6685   -1.2566  -14.4589 H   0  0  0  0  0  0  0  0  0  0  0  0
   -8.4648    1.9897  -14.2227 H   0  0  0  0  0  0  0  0  0  0  0  0
   -8.9845   -0.8738  -10.1347 H   0  0  0  0  0  0  0  0  0  0  0  0
  1  2  2  0  0  0  0
  1  3  1  0  0  0  0
  2  4  1  0  0  0  0
  3  5  2  0  0  0  0
  4  6  2  0  0  0  0
  5  6  1  0  0  0  0
  5  7  1  0  0  0  0
  6 13  1  0  0  0  0
  7 14  1  0  0  0  0
  7 16  2  0  0  0  0
  8 10  1  0  0  0  0
  8 12  1  0  0  0  0
  9 11  1  0  0  0  0
  9 12  1  0  0  0  0
 10 15  1  0  0  0  0
 11 15  1  0  0  0  0
 12 13  1  0  0  0  0
 12 14  1  0  0  0  0
  1 17  1  0  0  0  0
  2 18  1  0  0  0  0
  3 19  1  0  0  0  0
  4 20  1  0  0  0  0
  8 21  1  0  0  0  0
  8 22  1  0  0  0  0
  9 23  1  0  0  0  0
  9 24  1  0  0  0  0
 10 25  1  0  0  0  0
 10 26  1  0  0  0  0
 11 27  1  0  0  0  0
 11 28  1  0  0  0  0
 13 29  1  0  0  0  0
 14 30  1  0  0  0  0
 15 31  1  0  0  0  0
M  END
> <id>
EN300-265493

> <smiles>
O=C1NC2(CCNCC2)NC=3C=CC=CC13

> <MDLNUMBER>
MFCD11049641

> <IUPAC Name>
3',4'-dihydro-1'H-spiro[piperidine-4,2'-quinazoline]-4'-one

> <CAS>
202826-52-6

> <URL>
https://www.enaminestore.com/catalog/EN300-265493

> <ROCS_ShapeQuery>
amalgated

> <ROCS_TanimotoCombo>
0.872 

> <ROCS_ShapeTanimoto>
0.589 

> <ROCS_ColorTanimoto>
0.282 

> <ROCS_RefTversky>
0.547 

> <ROCS_RefColorTversky>
0.469 

> <ROCS_RefTverskyCombo>
1.016 

> <ROCS_FitTversky>
1.152 

> <ROCS_FitColorTversky>
0.415 

> <ROCS_FitTverskyCombo>
1.567 

> <ROCS_ColorScore>
-3.307

> <ROCS_Overlap>
898.131

> <ROCS_Rank>
105                 

$$$$
untitled-dbase-25336_6
  -OEChem-10092318153D

 31 33  0     0  0  0  0  0  0999 V2000
   -8.0823   -1.9374  -18.3902 C   0  0  0  0  0  0  0  0  0  0  0  0
   -8.9738   -2.8132  -17.7763 C   0  0  0  0  0  0  0  0  0  0  0  0
   -7.7319   -0.7454  -17.7594 C   0  0  0  0  0  0  0  0  0  0  0  0
   -9.5096   -2.5025  -16.5249 C   0  0  0  0  0  0  0  0  0  0  0  0
   -8.2706   -0.4392  -16.5040 C   0  0  0  0  0  0  0  0  0  0  0  0
   -9.1540   -1.3188  -15.8638 C   0  0  0  0  0  0  0  0  0  0  0  0
   -7.9530    0.8572  -15.8648 C   0  0  0  0  0  0  0  0  0  0  0  0
   -7.9736   -0.6959  -12.9251 C   0  0  0  0  0  0  0  0  0  0  0  0
  -10.1595    0.6101  -12.8695 C   0  0  0  0  0  0  0  0  0  0  0  0
   -7.8120   -0.0151  -11.5678 C   0  0  0  0  0  0  0  0  0  0  0  0
  -10.2675   -0.1258  -11.5354 C   0  0  0  0  0  0  0  0  0  0  0  0
   -9.0709   -0.0108  -13.7753 C   0  0  0  0  0  0  0  0  0  0  0  0
   -9.6943   -1.0233  -14.6215 N   0  0  0  0  0  0  0  0  0  0  0  0
   -8.4831    1.0479  -14.6041 N   0  0  0  0  0  0  0  0  0  0  0  0
   -9.0294   -0.0533  -10.7561 N   0  0  0  0  0  0  0  0  0  0  0  0
   -7.2903    1.7044  -16.4548 O   0  0  0  0  0  0  0  0  0  0  0  0
   -7.6536   -2.1876  -19.3562 H   0  0  0  0  0  0  0  0  0  0  0  0
   -9.2520   -3.7397  -18.2701 H   0  0  0  0  0  0  0  0  0  0  0  0
   -7.0358   -0.0740  -18.2545 H   0  0  0  0  0  0  0  0  0  0  0  0
  -10.2183   -3.1918  -16.0708 H   0  0  0  0  0  0  0  0  0  0  0  0
   -7.0203   -0.6910  -13.4579 H   0  0  0  0  0  0  0  0  0  0  0  0
   -8.2423   -1.7430  -12.7563 H   0  0  0  0  0  0  0  0  0  0  0  0
  -11.1306    0.5596  -13.3771 H   0  0  0  0  0  0  0  0  0  0  0  0
   -9.9562    1.6703  -12.6859 H   0  0  0  0  0  0  0  0  0  0  0  0
   -7.0035   -0.5133  -11.0072 H   0  0  0  0  0  0  0  0  0  0  0  0
   -7.4800    1.0303  -11.6880 H   0  0  0  0  0  0  0  0  0  0  0  0
  -11.1065    0.2652  -10.9393 H   0  0  0  0  0  0  0  0  0  0  0  0
  -10.5007   -1.1844  -11.7225 H   0  0  0  0  0  0  0  0  0  0  0  0
  -10.6685   -1.2566  -14.4589 H   0  0  0  0  0  0  0  0  0  0  0  0
   -8.4648    1.9897  -14.2227 H   0  0  0  0  0  0  0  0  0  0  0  0
   -8.9845   -0.8738  -10.1347 H   0  0  0  0  0  0  0  0  0  0  0  0
  1  2  2  0  0  0  0
  1  3  1  0  0  0  0
  2  4  1  0  0  0  0
  3  5  2  0  0  0  0
  4  6  2  0  0  0  0
  5  6  1  0  0  0  0
  5  7  1  0  0  0  0
  6 13  1  0  0  0  0
  7 14  1  0  0  0  0
  7 16  2  0  0  0  0
  8 10  1  0  0  0  0
  8 12  1  0  0  0  0
  9 11  1  0  0  0  0
  9 12  1  0  0  0  0
 10 15  1  0  0  0  0
 11 15  1  0  0  0  0
 12 13  1  0  0  0  0
 12 14  1  0  0  0  0
  1 17  1  0  0  0  0
  2 18  1  0  0  0  0
  3 19  1  0  0  0  0
  4 20  1  0  0  0  0
  8 21  1  0  0  0  0
  8 22  1  0  0  0  0
  9 23  1  0  0  0  0
  9 24  1  0  0  0  0
 10 25  1  0  0  0  0
 10 26  1  0  0  0  0
 11 27  1  0  0  0  0
 11 28  1  0  0  0  0
 13 29  1  0  0  0  0
 14 30  1  0  0  0  0
 15 31  1  0  0  0  0
M  END
> <id>
EN300-6495679

> <smiles>
Cl.O=C1NC2(CCNCC2)NC=3C=CC=CC13

> <MDLNUMBER>
MFCD20922009

> <IUPAC Name>
3',4'-dihydro-1'H-spiro[piperidine-4,2'-quinazoline]-4'-one hydrochloride

> <CAS>
199105-15-2

> <Purity>
95

> <URL>
https://www.enaminestore.com/catalog/EN300-6495679

> <Saltdate>
Cl

> <MP>
269-271

> <ROCS_ShapeQuery>
amalgated

> <ROCS_TanimotoCombo>
0.872 

> <ROCS_ShapeTanimoto>
0.589 

> <ROCS_ColorTanimoto>
0.282 

> <ROCS_RefTversky>
0.547 

> <ROCS_RefColorTversky>
0.469 

> <ROCS_RefTverskyCombo>
1.016 

> <ROCS_FitTversky>
1.152 

> <ROCS_FitColorTversky>
0.415 

> <ROCS_FitTverskyCombo>
1.567 

> <ROCS_ColorScore>
-3.307

> <ROCS_Overlap>
898.131

> <ROCS_Rank>
106                 

$$$$
untitled-dbase-47804_20
  -OEChem-10092318153D

 32 34  0     0  0  0  0  0  0999 V2000
   -9.2605    0.9703  -13.2325 C   0  0  0  0  0  0  0  0  0  0  0  0
   -8.5884   -1.4778  -12.9329 C   0  0  0  0  0  0  0  0  0  0  0  0
   -8.2394   -2.4009  -16.2826 C   0  0  0  0  0  0  0  0  0  0  0  0
   -8.7632   -0.6421  -17.4213 C   0  0  0  0  0  0  0  0  0  0  0  0
   -7.8015   -0.1506  -15.0483 C   0  0  0  0  0  0  0  0  0  0  0  0
   -9.8743   -0.7897  -15.0761 C   0  0  0  0  0  0  0  0  0  0  0  0
   -9.9314    0.6730  -11.8949 C   0  0  0  0  0  0  0  0  0  0  0  0
   -8.0591   -0.8923  -11.6268 C   0  0  0  0  0  0  0  0  0  0  0  0
   -8.8365   -2.1698  -17.6984 C   0  0  0  0  0  0  0  0  0  0  0  0
   -8.8901   -0.3457  -13.9339 C   0  0  0  0  0  0  0  0  0  0  0  0
   -8.6623   -0.9859  -15.9574 C   0  0  0  0  0  0  0  0  0  0  0  0
   -9.0291   -0.0151  -10.9653 N   0  0  0  0  0  0  0  0  0  0  0  0
   -8.0435   -2.6504  -18.7969 O   0  0  0  0  0  0  0  0  0  0  0  0
   -9.9403    1.5510  -13.8686 H   0  0  0  0  0  0  0  0  0  0  0  0
   -8.3711    1.5892  -13.0691 H   0  0  0  0  0  0  0  0  0  0  0  0
   -7.8556   -2.1816  -13.3421 H   0  0  0  0  0  0  0  0  0  0  0  0
   -9.5042   -2.0497  -12.7372 H   0  0  0  0  0  0  0  0  0  0  0  0
   -8.7136   -3.2009  -15.7070 H   0  0  0  0  0  0  0  0  0  0  0  0
   -7.1558   -2.5661  -16.2847 H   0  0  0  0  0  0  0  0  0  0  0  0
   -7.8709   -0.1622  -17.8398 H   0  0  0  0  0  0  0  0  0  0  0  0
   -9.6440   -0.0727  -17.7310 H   0  0  0  0  0  0  0  0  0  0  0  0
   -7.6817    0.8875  -15.3811 H   0  0  0  0  0  0  0  0  0  0  0  0
   -6.8081   -0.5509  -14.8245 H   0  0  0  0  0  0  0  0  0  0  0  0
  -10.4735   -1.6792  -14.8649 H   0  0  0  0  0  0  0  0  0  0  0  0
  -10.5491    0.0044  -15.4136 H   0  0  0  0  0  0  0  0  0  0  0  0
  -10.3027    1.6007  -11.4336 H   0  0  0  0  0  0  0  0  0  0  0  0
  -10.8097    0.0353  -12.0672 H   0  0  0  0  0  0  0  0  0  0  0  0
   -7.8071   -1.7158  -10.9411 H   0  0  0  0  0  0  0  0  0  0  0  0
   -7.1211   -0.3404  -11.8018 H   0  0  0  0  0  0  0  0  0  0  0  0
   -9.8688   -2.5339  -17.7806 H   0  0  0  0  0  0  0  0  0  0  0  0
   -8.5208    0.6879  -10.4120 H   0  0  0  0  0  0  0  0  0  0  0  0
   -8.5419   -2.4352  -19.5963 H   0  0  0  0  0  0  0  0  0  0  0  0
  1  7  1  0  0  0  0
  1 10  1  0  0  0  0
  2  8  1  0  0  0  0
  2 10  1  0  0  0  0
  3  9  1  0  0  0  0
  3 11  1  0  0  0  0
  4  9  1  0  0  0  0
  4 11  1  0  0  0  0
  5 10  1  0  0  0  0
  5 11  1  0  0  0  0
  6 10  1  0  0  0  0
  6 11  1  0  0  0  0
  7 12  1  0  0  0  0
  8 12  1  0  0  0  0
  9 13  1  0  0  0  0
  1 14  1  0  0  0  0
  1 15  1  0  0  0  0
  2 16  1  0  0  0  0
  2 17  1  0  0  0  0
  3 18  1  0  0  0  0
  3 19  1  0  0  0  0
  4 20  1  0  0  0  0
  4 21  1  0  0  0  0
  5 22  1  0  0  0  0
  5 23  1  0  0  0  0
  6 24  1  0  0  0  0
  6 25  1  0  0  0  0
  7 26  1  0  0  0  0
  7 27  1  0  0  0  0
  8 28  1  0  0  0  0
  8 29  1  0  0  0  0
  9 30  1  0  0  0  0
 12 31  1  0  0  0  0
 13 32  1  0  0  0  0
M  END
> <id>
EN300-39846693

> <smiles>
Cl.OC1CC2(C1)CC3(C2)CCNCC3

> <IUPAC Name>
9-azadispiro[3.1.5^{6}.1^{4}]dodecan-2-ol hydrochloride

> <Purity>
95

> <URL>
https://www.enaminestore.com/catalog/EN300-39846693

> <ROCS_ShapeQuery>
amalgated

> <ROCS_TanimotoCombo>
0.872 

> <ROCS_ShapeTanimoto>
0.466 

> <ROCS_ColorTanimoto>
0.406 

> <ROCS_RefTversky>
0.439 

> <ROCS_RefColorTversky>
0.578 

> <ROCS_RefTverskyCombo>
1.017 

> <ROCS_FitTversky>
1.153 

> <ROCS_FitColorTversky>
0.576 

> <ROCS_FitTverskyCombo>
1.729 

> <ROCS_ColorScore>
-4.049

> <ROCS_Overlap>
717.049

> <ROCS_Rank>
107                 

$$$$
untitled-dbase-53305_20
  -OEChem-10092318153D

 32 34  0     0  0  0  0  0  0999 V2000
   -9.2605    0.9703  -13.2325 C   0  0  0  0  0  0  0  0  0  0  0  0
   -8.5884   -1.4778  -12.9329 C   0  0  0  0  0  0  0  0  0  0  0  0
   -8.2394   -2.4009  -16.2826 C   0  0  0  0  0  0  0  0  0  0  0  0
   -8.7632   -0.6421  -17.4213 C   0  0  0  0  0  0  0  0  0  0  0  0
   -7.8015   -0.1506  -15.0483 C   0  0  0  0  0  0  0  0  0  0  0  0
   -9.8743   -0.7897  -15.0761 C   0  0  0  0  0  0  0  0  0  0  0  0
   -9.9314    0.6730  -11.8949 C   0  0  0  0  0  0  0  0  0  0  0  0
   -8.0591   -0.8923  -11.6268 C   0  0  0  0  0  0  0  0  0  0  0  0
   -8.8365   -2.1698  -17.6984 C   0  0  0  0  0  0  0  0  0  0  0  0
   -8.8901   -0.3457  -13.9339 C   0  0  0  0  0  0  0  0  0  0  0  0
   -8.6623   -0.9859  -15.9574 C   0  0  0  0  0  0  0  0  0  0  0  0
   -9.0291   -0.0151  -10.9653 N   0  0  0  0  0  0  0  0  0  0  0  0
   -8.0435   -2.6504  -18.7969 O   0  0  0  0  0  0  0  0  0  0  0  0
   -9.9403    1.5510  -13.8686 H   0  0  0  0  0  0  0  0  0  0  0  0
   -8.3711    1.5892  -13.0691 H   0  0  0  0  0  0  0  0  0  0  0  0
   -7.8556   -2.1816  -13.3421 H   0  0  0  0  0  0  0  0  0  0  0  0
   -9.5042   -2.0497  -12.7372 H   0  0  0  0  0  0  0  0  0  0  0  0
   -8.7136   -3.2009  -15.7070 H   0  0  0  0  0  0  0  0  0  0  0  0
   -7.1558   -2.5661  -16.2847 H   0  0  0  0  0  0  0  0  0  0  0  0
   -7.8709   -0.1622  -17.8398 H   0  0  0  0  0  0  0  0  0  0  0  0
   -9.6440   -0.0727  -17.7310 H   0  0  0  0  0  0  0  0  0  0  0  0
   -7.6817    0.8875  -15.3811 H   0  0  0  0  0  0  0  0  0  0  0  0
   -6.8081   -0.5509  -14.8245 H   0  0  0  0  0  0  0  0  0  0  0  0
  -10.4735   -1.6792  -14.8649 H   0  0  0  0  0  0  0  0  0  0  0  0
  -10.5491    0.0044  -15.4136 H   0  0  0  0  0  0  0  0  0  0  0  0
  -10.3027    1.6007  -11.4336 H   0  0  0  0  0  0  0  0  0  0  0  0
  -10.8097    0.0353  -12.0672 H   0  0  0  0  0  0  0  0  0  0  0  0
   -7.8071   -1.7158  -10.9411 H   0  0  0  0  0  0  0  0  0  0  0  0
   -7.1211   -0.3404  -11.8018 H   0  0  0  0  0  0  0  0  0  0  0  0
   -9.8688   -2.5339  -17.7806 H   0  0  0  0  0  0  0  0  0  0  0  0
   -8.5208    0.6879  -10.4120 H   0  0  0  0  0  0  0  0  0  0  0  0
   -8.5419   -2.4352  -19.5963 H   0  0  0  0  0  0  0  0  0  0  0  0
  1  7  1  0  0  0  0
  1 10  1  0  0  0  0
  2  8  1  0  0  0  0
  2 10  1  0  0  0  0
  3  9  1  0  0  0  0
  3 11  1  0  0  0  0
  4  9  1  0  0  0  0
  4 11  1  0  0  0  0
  5 10  1  0  0  0  0
  5 11  1  0  0  0  0
  6 10  1  0  0  0  0
  6 11  1  0  0  0  0
  7 12  1  0  0  0  0
  8 12  1  0  0  0  0
  9 13  1  0  0  0  0
  1 14  1  0  0  0  0
  1 15  1  0  0  0  0
  2 16  1  0  0  0  0
  2 17  1  0  0  0  0
  3 18  1  0  0  0  0
  3 19  1  0  0  0  0
  4 20  1  0  0  0  0
  4 21  1  0  0  0  0
  5 22  1  0  0  0  0
  5 23  1  0  0  0  0
  6 24  1  0  0  0  0
  6 25  1  0  0  0  0
  7 26  1  0  0  0  0
  7 27  1  0  0  0  0
  8 28  1  0  0  0  0
  8 29  1  0  0  0  0
  9 30  1  0  0  0  0
 12 31  1  0  0  0  0
 13 32  1  0  0  0  0
M  END
> <id>
EN300-37476925

> <smiles>
OC1CC2(C1)CC3(C2)CCNCC3

> <IUPAC Name>
9-azadispiro[3.1.5^{6}.1^{4}]dodecan-2-ol

> <URL>
https://www.enaminestore.com/catalog/EN300-37476925

> <ROCS_ShapeQuery>
amalgated

> <ROCS_TanimotoCombo>
0.872 

> <ROCS_ShapeTanimoto>
0.466 

> <ROCS_ColorTanimoto>
0.406 

> <ROCS_RefTversky>
0.439 

> <ROCS_RefColorTversky>
0.578 

> <ROCS_RefTverskyCombo>
1.017 

> <ROCS_FitTversky>
1.153 

> <ROCS_FitColorTversky>
0.576 

> <ROCS_FitTverskyCombo>
1.729 

> <ROCS_ColorScore>
-4.049

> <ROCS_Overlap>
717.049

> <ROCS_Rank>
108                 

$$$$
untitled-dbase-10546_42
  -OEChem-10092318153D

 44 45  0     1  0  0  0  0  0999 V2000
   -9.0501   -0.7799  -13.8729 C   0  0  0  0  0  0  0  0  0  0  0  0
   -7.7768    1.2913  -16.5997 C   0  0  0  0  0  0  0  0  0  0  0  0
   -7.8158    0.4993  -17.8976 C   0  0  0  0  0  0  0  0  0  0  0  0
   -7.5013    0.3927  -15.4040 C   0  0  0  0  0  0  0  0  0  0  0  0
   -8.6714   -0.7574  -17.7667 C   0  0  2  0  0  0  0  0  0  0  0  0
   -9.2675   -1.1548  -16.3755 C   0  0  1  0  0  0  0  0  0  0  0  0
   -7.8714   -2.0856  -17.7343 C   0  0  1  0  0  0  0  0  0  0  0  0
   -8.8900   -2.6531  -16.6961 C   0  0  0  0  0  0  0  0  0  0  0  0
  -10.1266   -3.4240  -17.1845 C   0  0  0  0  0  0  0  0  0  0  0  0
   -8.1633   -3.4734  -15.6252 C   0  0  0  0  0  0  0  0  0  0  0  0
   -8.4973   -0.9972  -11.0745 C   0  0  0  0  0  0  0  0  0  0  0  0
   -8.9809    1.4657  -10.9757 C   0  0  0  0  0  0  0  0  0  0  0  0
  -10.7827   -0.1353  -11.6817 C   0  0  0  0  0  0  0  0  0  0  0  0
   -9.2827    0.1551  -11.6992 C   0  0  0  0  0  0  0  0  0  0  0  0
   -8.6062   -0.5389  -15.1813 N   0  0  0  0  0  0  0  0  0  0  0  0
   -7.9802   -2.7550  -19.0261 N   0  0  0  0  0  0  0  0  0  0  0  0
   -9.5449   -1.8363  -13.4857 O   0  0  0  0  0  0  0  0  0  0  0  0
   -8.8636    0.3072  -13.0599 O   0  0  0  0  0  0  0  0  0  0  0  0
   -7.0224    2.0860  -16.6437 H   0  0  0  0  0  0  0  0  0  0  0  0
   -8.7423    1.7937  -16.4560 H   0  0  0  0  0  0  0  0  0  0  0  0
   -8.2214    1.1345  -18.6995 H   0  0  0  0  0  0  0  0  0  0  0  0
   -6.7951    0.2281  -18.2034 H   0  0  0  0  0  0  0  0  0  0  0  0
   -6.5903   -0.1619  -15.5676 H   0  0  0  0  0  0  0  0  0  0  0  0
   -7.3992    0.9828  -14.5048 H   0  0  0  0  0  0  0  0  0  0  0  0
   -9.4428   -0.7471  -18.5380 H   0  0  0  0  0  0  0  0  0  0  0  0
  -10.3362   -0.9459  -16.3428 H   0  0  0  0  0  0  0  0  0  0  0  0
   -6.8421   -2.0025  -17.3757 H   0  0  0  0  0  0  0  0  0  0  0  0
   -9.8488   -4.4513  -17.3999 H   0  0  0  0  0  0  0  0  0  0  0  0
  -10.5111   -2.9548  -18.0850 H   0  0  0  0  0  0  0  0  0  0  0  0
  -10.8894   -3.4080  -16.4118 H   0  0  0  0  0  0  0  0  0  0  0  0
   -7.9777   -4.4761  -16.0004 H   0  0  0  0  0  0  0  0  0  0  0  0
   -8.7791   -3.5298  -14.7317 H   0  0  0  0  0  0  0  0  0  0  0  0
   -7.2173   -2.9967  -15.3832 H   0  0  0  0  0  0  0  0  0  0  0  0
   -8.7111   -1.9397  -11.5910 H   0  0  0  0  0  0  0  0  0  0  0  0
   -7.4180   -0.8170  -11.1124 H   0  0  0  0  0  0  0  0  0  0  0  0
   -8.7868   -1.1456  -10.0279 H   0  0  0  0  0  0  0  0  0  0  0  0
   -9.5423    2.2952  -11.4206 H   0  0  0  0  0  0  0  0  0  0  0  0
   -7.9203    1.7267  -11.0670 H   0  0  0  0  0  0  0  0  0  0  0  0
   -9.2333    1.4074   -9.9120 H   0  0  0  0  0  0  0  0  0  0  0  0
  -11.3463    0.6910  -12.1297 H   0  0  0  0  0  0  0  0  0  0  0  0
  -11.0222   -1.0533  -12.2281 H   0  0  0  0  0  0  0  0  0  0  0  0
  -11.1479   -0.2369  -10.6533 H   0  0  0  0  0  0  0  0  0  0  0  0
   -7.4608   -2.2328  -19.6915 H   0  0  0  0  0  0  0  0  0  0  0  0
   -7.6098   -3.6712  -18.9329 H   0  0  0  0  0  0  0  0  0  0  0  0
  1 15  1  0  0  0  0
  1 17  2  0  0  0  0
  1 18  1  0  0  0  0
  2  3  1  0  0  0  0
  2  4  1  0  0  0  0
  3  5  1  0  0  0  0
  4 15  1  0  0  0  0
  5  6  1  0  0  0  0
  5  7  1  0  0  0  0
  6  8  1  0  0  0  0
  6 15  1  0  0  0  0
  7  8  1  0  0  0  0
  7 16  1  0  0  0  0
  8  9  1  0  0  0  0
  8 10  1  0  0  0  0
 11 14  1  0  0  0  0
 12 14  1  0  0  0  0
 13 14  1  0  0  0  0
 14 18  1  0  0  0  0
  2 19  1  0  0  0  0
  2 20  1  0  0  0  0
  3 21  1  0  0  0  0
  3 22  1  0  0  0  0
  4 23  1  0  0  0  0
  4 24  1  0  0  0  0
  5 25  1  0  0  0  0
  6 26  1  0  0  0  0
  7 27  1  0  0  0  0
  9 28  1  0  0  0  0
  9 29  1  0  0  0  0
  9 30  1  0  0  0  0
 10 31  1  0  0  0  0
 10 32  1  0  0  0  0
 10 33  1  0  0  0  0
 11 34  1  0  0  0  0
 11 35  1  0  0  0  0
 11 36  1  0  0  0  0
 12 37  1  0  0  0  0
 12 38  1  0  0  0  0
 12 39  1  0  0  0  0
 13 40  1  0  0  0  0
 13 41  1  0  0  0  0
 13 42  1  0  0  0  0
 16 43  1  0  0  0  0
 16 44  1  0  0  0  0
M  END
> <id>
EN300-321320

> <smiles>
CC(C)(C)OC(=O)N1CCCC2C(N)C(C)(C)C21

> <MDLNUMBER>
MFCD30730453

> <IUPAC Name>
tert-butyl 7-amino-8,8-dimethyl-2-azabicyclo[4.2.0]octane-2-carboxylate

> <CAS>
2094316-70-6

> <Purity>
95

> <URL>
https://www.enaminestore.com/catalog/EN300-321320

> <ROCS_ShapeQuery>
amalgated

> <ROCS_TanimotoCombo>
0.871 

> <ROCS_ShapeTanimoto>
0.596 

> <ROCS_ColorTanimoto>
0.275 

> <ROCS_RefTversky>
0.561 

> <ROCS_RefColorTversky>
0.434 

> <ROCS_RefTverskyCombo>
0.995 

> <ROCS_FitTversky>
1.117 

> <ROCS_FitColorTversky>
0.429 

> <ROCS_FitTverskyCombo>
1.546 

> <ROCS_ColorScore>
-3.042

> <ROCS_Overlap>
923.010

> <ROCS_Rank>
109                 

$$$$
untitled-dbase-34801_94
  -OEChem-10092318153D

 38 39  0     1  0  0  0  0  0999 V2000
   -8.6141   -0.3444  -14.2263 C   0  0  0  0  0  0  0  0  0  0  0  0
   -8.6372    1.5643  -16.7727 C   0  0  0  0  0  0  0  0  0  0  0  0
   -7.2267    1.0760  -16.6357 C   0  0  0  0  0  0  0  0  0  0  0  0
   -8.9434   -2.8449  -16.8754 C   0  0  0  0  0  0  0  0  0  0  0  0
   -8.4567   -0.6719  -18.0577 C   0  0  0  0  0  0  0  0  0  0  0  0
   -9.6558   -1.8909  -15.9142 C   0  0  0  0  0  0  0  0  0  0  0  0
   -8.0134   -2.1230  -17.8606 C   0  0  2  0  0  0  0  0  0  0  0  0
   -8.3630    0.0729  -16.7235 C   0  0  0  0  0  0  0  0  0  0  0  0
   -9.3568    1.1728  -11.9097 C   0  0  0  0  0  0  0  0  0  0  0  0
  -10.7785   -0.8055  -11.2981 C   0  0  0  0  0  0  0  0  0  0  0  0
   -8.2853   -1.0603  -11.4632 C   0  0  0  0  0  0  0  0  0  0  0  0
   -9.5144   -0.3430  -12.0195 C   0  0  0  0  0  0  0  0  0  0  0  0
   -8.8393   -0.7163  -15.5642 N   0  0  0  0  0  0  0  0  0  0  0  0
   -7.9560   -2.8469  -19.1282 N   0  0  0  0  0  0  0  0  0  0  0  0
   -7.6120    0.2272  -13.8046 O   0  0  0  0  0  0  0  0  0  0  0  0
   -9.6564   -0.6875  -13.4028 O   0  0  0  0  0  0  0  0  0  0  0  0
   -9.0549    2.0657  -15.9105 H   0  0  0  0  0  0  0  0  0  0  0  0
   -8.9284    2.0006  -17.7189 H   0  0  0  0  0  0  0  0  0  0  0  0
   -6.5695    1.1972  -17.4881 H   0  0  0  0  0  0  0  0  0  0  0  0
   -6.7395    1.2230  -15.6791 H   0  0  0  0  0  0  0  0  0  0  0  0
   -8.3703   -3.5852  -16.2893 H   0  0  0  0  0  0  0  0  0  0  0  0
   -9.7049   -3.4243  -17.4300 H   0  0  0  0  0  0  0  0  0  0  0  0
   -7.8392   -0.1814  -18.8197 H   0  0  0  0  0  0  0  0  0  0  0  0
   -9.4959   -0.6221  -18.4065 H   0  0  0  0  0  0  0  0  0  0  0  0
  -10.6189   -1.5662  -16.3552 H   0  0  0  0  0  0  0  0  0  0  0  0
   -9.9131   -2.4104  -14.9688 H   0  0  0  0  0  0  0  0  0  0  0  0
   -6.9983   -2.1224  -17.4195 H   0  0  0  0  0  0  0  0  0  0  0  0
   -8.4506    1.5088  -12.4263 H   0  0  0  0  0  0  0  0  0  0  0  0
  -10.2162    1.6998  -12.3370 H   0  0  0  0  0  0  0  0  0  0  0  0
   -9.2479    1.4799  -10.8632 H   0  0  0  0  0  0  0  0  0  0  0  0
  -10.8956   -1.8926  -11.3743 H   0  0  0  0  0  0  0  0  0  0  0  0
  -11.6721   -0.3660  -11.7558 H   0  0  0  0  0  0  0  0  0  0  0  0
  -10.7617   -0.5321  -10.2381 H   0  0  0  0  0  0  0  0  0  0  0  0
   -8.3981   -2.1477  -11.5419 H   0  0  0  0  0  0  0  0  0  0  0  0
   -7.3733   -0.7683  -11.9939 H   0  0  0  0  0  0  0  0  0  0  0  0
   -8.1542   -0.8394  -10.3978 H   0  0  0  0  0  0  0  0  0  0  0  0
   -7.3135   -2.3801  -19.7233 H   0  0  0  0  0  0  0  0  0  0  0  0
   -7.6529   -3.7734  -18.9422 H   0  0  0  0  0  0  0  0  0  0  0  0
  1 13  1  0  0  0  0
  1 15  2  0  0  0  0
  1 16  1  0  0  0  0
  2  3  1  0  0  0  0
  2  8  1  0  0  0  0
  3  8  1  0  0  0  0
  4  6  1  0  0  0  0
  4  7  1  0  0  0  0
  5  7  1  0  0  0  0
  5  8  1  0  0  0  0
  6 13  1  0  0  0  0
  7 14  1  0  0  0  0
  8 13  1  0  0  0  0
  9 12  1  0  0  0  0
 10 12  1  0  0  0  0
 11 12  1  0  0  0  0
 12 16  1  0  0  0  0
  2 17  1  0  0  0  0
  2 18  1  0  0  0  0
  3 19  1  0  0  0  0
  3 20  1  0  0  0  0
  4 21  1  0  0  0  0
  4 22  1  0  0  0  0
  5 23  1  0  0  0  0
  5 24  1  0  0  0  0
  6 25  1  0  0  0  0
  6 26  1  0  0  0  0
  7 27  1  0  0  0  0
  9 28  1  0  0  0  0
  9 29  1  0  0  0  0
  9 30  1  0  0  0  0
 10 31  1  0  0  0  0
 10 32  1  0  0  0  0
 10 33  1  0  0  0  0
 11 34  1  0  0  0  0
 11 35  1  0  0  0  0
 11 36  1  0  0  0  0
 14 37  1  0  0  0  0
 14 38  1  0  0  0  0
M  END
> <id>
EN300-264423

> <smiles>
CC(C)(C)OC(=O)N1CCC(N)CC21CC2

> <MDLNUMBER>
MFCD30619268

> <IUPAC Name>
tert-butyl 7-amino-4-azaspiro[2.5]octane-4-carboxylate

> <CAS>
2090136-41-5

> <Purity>
95

> <URL>
https://www.enaminestore.com/catalog/EN300-264423

> <ROCS_ShapeQuery>
amalgated

> <ROCS_TanimotoCombo>
0.871 

> <ROCS_ShapeTanimoto>
0.571 

> <ROCS_ColorTanimoto>
0.301 

> <ROCS_RefTversky>
0.528 

> <ROCS_RefColorTversky>
0.402 

> <ROCS_RefTverskyCombo>
0.930 

> <ROCS_FitTversky>
1.165 

> <ROCS_FitColorTversky>
0.544 

> <ROCS_FitTverskyCombo>
1.709 

> <ROCS_ColorScore>
-2.774

> <ROCS_Overlap>
866.009

> <ROCS_Rank>
110                 

$$$$
untitled-dbase-48322_8
  -OEChem-10092318153D

 41 42  0     1  0  0  0  0  0999 V2000
   -8.2964    0.1121  -13.0625 C   0  0  0  0  0  0  0  0  0  0  0  0
   -7.3247   -0.8146  -17.2848 C   0  0  0  0  0  0  0  0  0  0  0  0
   -9.4930   -2.8697  -16.8701 C   0  0  0  0  0  0  0  0  0  0  0  0
   -7.4288   -1.3564  -18.7135 C   0  0  0  0  0  0  0  0  0  0  0  0
   -9.4048   -2.7829  -18.3904 C   0  0  0  0  0  0  0  0  0  0  0  0
   -8.5205    0.5503  -15.5040 C   0  0  0  0  0  0  0  0  0  0  0  0
   -9.1052   -1.6356  -14.6924 C   0  0  0  0  0  0  0  0  0  0  0  0
   -8.6782   -0.3755  -16.7168 C   0  0  2  0  0  0  0  0  0  0  0  0
   -9.5410   -1.5202  -16.1563 C   0  0  1  0  0  0  0  0  0  0  0  0
  -10.4742    0.3612  -11.6279 C   0  0  0  0  0  0  0  0  0  0  0  0
  -10.0386   -1.9125  -10.6532 C   0  0  0  0  0  0  0  0  0  0  0  0
   -8.6503    0.0487   -9.9220 C   0  0  0  0  0  0  0  0  0  0  0  0
   -9.4087   -0.5898  -11.0847 C   0  0  0  0  0  0  0  0  0  0  0  0
   -8.0214   -2.6824  -18.8479 N   0  0  0  0  0  0  0  0  0  0  0  0
   -8.6259   -0.3094  -14.3398 N   0  0  0  0  0  0  0  0  0  0  0  0
   -7.8881    1.2390  -12.7910 O   0  0  0  0  0  0  0  0  0  0  0  0
   -8.4772   -0.8775  -12.1335 O   0  0  0  0  0  0  0  0  0  0  0  0
   -6.8346   -1.5458  -16.6305 H   0  0  0  0  0  0  0  0  0  0  0  0
   -6.6583    0.0570  -17.3229 H   0  0  0  0  0  0  0  0  0  0  0  0
  -10.4028   -3.4232  -16.6018 H   0  0  0  0  0  0  0  0  0  0  0  0
   -8.6640   -3.4827  -16.4919 H   0  0  0  0  0  0  0  0  0  0  0  0
   -7.9616   -0.6411  -19.3524 H   0  0  0  0  0  0  0  0  0  0  0  0
   -6.4104   -1.4199  -19.1156 H   0  0  0  0  0  0  0  0  0  0  0  0
   -9.8032   -3.7215  -18.7947 H   0  0  0  0  0  0  0  0  0  0  0  0
  -10.0327   -1.9822  -18.7982 H   0  0  0  0  0  0  0  0  0  0  0  0
   -7.5838    1.1159  -15.4834 H   0  0  0  0  0  0  0  0  0  0  0  0
   -9.3505    1.2649  -15.4503 H   0  0  0  0  0  0  0  0  0  0  0  0
   -9.9267   -1.9326  -14.0326 H   0  0  0  0  0  0  0  0  0  0  0  0
   -8.2723   -2.3329  -14.5497 H   0  0  0  0  0  0  0  0  0  0  0  0
   -9.2301    0.1626  -17.4979 H   0  0  0  0  0  0  0  0  0  0  0  0
  -10.5837   -1.1694  -16.1697 H   0  0  0  0  0  0  0  0  0  0  0  0
  -10.0261    1.3117  -11.9387 H   0  0  0  0  0  0  0  0  0  0  0  0
  -11.0018   -0.0711  -12.4844 H   0  0  0  0  0  0  0  0  0  0  0  0
  -11.2115    0.6052  -10.8545 H   0  0  0  0  0  0  0  0  0  0  0  0
   -9.2777   -2.5979  -10.2627 H   0  0  0  0  0  0  0  0  0  0  0  0
  -10.5029   -2.4203  -11.5063 H   0  0  0  0  0  0  0  0  0  0  0  0
  -10.8006   -1.7642   -9.8812 H   0  0  0  0  0  0  0  0  0  0  0  0
   -7.8859   -0.6333   -9.5321 H   0  0  0  0  0  0  0  0  0  0  0  0
   -8.1608    0.9806  -10.2230 H   0  0  0  0  0  0  0  0  0  0  0  0
   -9.3268    0.2646   -9.0872 H   0  0  0  0  0  0  0  0  0  0  0  0
   -7.9844   -2.9488  -19.8324 H   0  0  0  0  0  0  0  0  0  0  0  0
  1 15  1  0  0  0  0
  1 16  2  0  0  0  0
  1 17  1  0  0  0  0
  2  4  1  0  0  0  0
  2  8  1  0  0  0  0
  3  5  1  0  0  0  0
  3  9  1  1  0  0  0
  4 14  1  0  0  0  0
  5 14  1  0  0  0  0
  6  8  1  1  0  0  0
  6 15  1  0  0  0  0
  7  9  1  0  0  0  0
  7 15  1  0  0  0  0
  8  9  1  0  0  0  0
 10 13  1  0  0  0  0
 11 13  1  0  0  0  0
 12 13  1  0  0  0  0
 13 17  1  0  0  0  0
  2 18  1  0  0  0  0
  2 19  1  0  0  0  0
  3 20  1  0  0  0  0
  3 21  1  0  0  0  0
  4 22  1  0  0  0  0
  4 23  1  0  0  0  0
  5 24  1  0  0  0  0
  5 25  1  0  0  0  0
  6 26  1  0  0  0  0
  6 27  1  0  0  0  0
  7 28  1  0  0  0  0
  7 29  1  0  0  0  0
  8 30  1  0  0  0  0
  9 31  1  0  0  0  0
 10 32  1  0  0  0  0
 10 33  1  0  0  0  0
 10 34  1  0  0  0  0
 11 35  1  0  0  0  0
 11 36  1  0  0  0  0
 11 37  1  0  0  0  0
 12 38  1  0  0  0  0
 12 39  1  0  0  0  0
 12 40  1  0  0  0  0
 14 41  1  0  0  0  0
M  END
> <id>
EN300-222794

> <smiles>
CC(C)(C)OC(=O)N1C[C@H]2CCNCC[C@H]2C1

> <MDLNUMBER>
MFCD09753918

> <IUPAC Name>
tert-butyl (3aR,8aS)-decahydropyrrolo[3,4-d]azepine-2-carboxylate

> <CAS>
1251013-07-6

> <Purity>
95

> <URL>
https://www.enaminestore.com/catalog/EN300-222794

> <ROCS_ShapeQuery>
amalgated

> <ROCS_TanimotoCombo>
0.870 

> <ROCS_ShapeTanimoto>
0.596 

> <ROCS_ColorTanimoto>
0.274 

> <ROCS_RefTversky>
0.552 

> <ROCS_RefColorTversky>
0.403 

> <ROCS_RefTverskyCombo>
0.955 

> <ROCS_FitTversky>
1.156 

> <ROCS_FitColorTversky>
0.462 

> <ROCS_FitTverskyCombo>
1.618 

> <ROCS_ColorScore>
-2.800

> <ROCS_Overlap>
906.272

> <ROCS_Rank>
111                 

$$$$
untitled-dbase-34575_8
  -OEChem-10092318153D

 41 42  0     1  0  0  0  0  0999 V2000
   -8.2964    0.1121  -13.0625 C   0  0  0  0  0  0  0  0  0  0  0  0
   -7.3247   -0.8146  -17.2848 C   0  0  0  0  0  0  0  0  0  0  0  0
   -9.4930   -2.8697  -16.8701 C   0  0  0  0  0  0  0  0  0  0  0  0
   -7.4288   -1.3564  -18.7135 C   0  0  0  0  0  0  0  0  0  0  0  0
   -9.4048   -2.7829  -18.3904 C   0  0  0  0  0  0  0  0  0  0  0  0
   -8.5205    0.5503  -15.5040 C   0  0  0  0  0  0  0  0  0  0  0  0
   -9.1052   -1.6356  -14.6924 C   0  0  0  0  0  0  0  0  0  0  0  0
   -8.6782   -0.3755  -16.7168 C   0  0  2  0  0  0  0  0  0  0  0  0
   -9.5410   -1.5202  -16.1563 C   0  0  1  0  0  0  0  0  0  0  0  0
  -10.4742    0.3612  -11.6279 C   0  0  0  0  0  0  0  0  0  0  0  0
  -10.0386   -1.9125  -10.6532 C   0  0  0  0  0  0  0  0  0  0  0  0
   -8.6503    0.0487   -9.9220 C   0  0  0  0  0  0  0  0  0  0  0  0
   -9.4087   -0.5898  -11.0847 C   0  0  0  0  0  0  0  0  0  0  0  0
   -8.0214   -2.6824  -18.8479 N   0  0  0  0  0  0  0  0  0  0  0  0
   -8.6259   -0.3094  -14.3398 N   0  0  0  0  0  0  0  0  0  0  0  0
   -7.8881    1.2390  -12.7910 O   0  0  0  0  0  0  0  0  0  0  0  0
   -8.4772   -0.8775  -12.1335 O   0  0  0  0  0  0  0  0  0  0  0  0
   -6.8346   -1.5458  -16.6305 H   0  0  0  0  0  0  0  0  0  0  0  0
   -6.6583    0.0570  -17.3229 H   0  0  0  0  0  0  0  0  0  0  0  0
  -10.4028   -3.4232  -16.6018 H   0  0  0  0  0  0  0  0  0  0  0  0
   -8.6640   -3.4827  -16.4919 H   0  0  0  0  0  0  0  0  0  0  0  0
   -7.9616   -0.6411  -19.3524 H   0  0  0  0  0  0  0  0  0  0  0  0
   -6.4104   -1.4199  -19.1156 H   0  0  0  0  0  0  0  0  0  0  0  0
   -9.8032   -3.7215  -18.7947 H   0  0  0  0  0  0  0  0  0  0  0  0
  -10.0327   -1.9822  -18.7982 H   0  0  0  0  0  0  0  0  0  0  0  0
   -7.5838    1.1159  -15.4834 H   0  0  0  0  0  0  0  0  0  0  0  0
   -9.3505    1.2649  -15.4503 H   0  0  0  0  0  0  0  0  0  0  0  0
   -9.9267   -1.9326  -14.0326 H   0  0  0  0  0  0  0  0  0  0  0  0
   -8.2723   -2.3329  -14.5497 H   0  0  0  0  0  0  0  0  0  0  0  0
   -9.2301    0.1626  -17.4979 H   0  0  0  0  0  0  0  0  0  0  0  0
  -10.5837   -1.1694  -16.1697 H   0  0  0  0  0  0  0  0  0  0  0  0
  -10.0261    1.3117  -11.9387 H   0  0  0  0  0  0  0  0  0  0  0  0
  -11.0018   -0.0711  -12.4844 H   0  0  0  0  0  0  0  0  0  0  0  0
  -11.2115    0.6052  -10.8545 H   0  0  0  0  0  0  0  0  0  0  0  0
   -9.2777   -2.5979  -10.2627 H   0  0  0  0  0  0  0  0  0  0  0  0
  -10.5029   -2.4203  -11.5063 H   0  0  0  0  0  0  0  0  0  0  0  0
  -10.8006   -1.7642   -9.8812 H   0  0  0  0  0  0  0  0  0  0  0  0
   -7.8859   -0.6333   -9.5321 H   0  0  0  0  0  0  0  0  0  0  0  0
   -8.1608    0.9806  -10.2230 H   0  0  0  0  0  0  0  0  0  0  0  0
   -9.3268    0.2646   -9.0872 H   0  0  0  0  0  0  0  0  0  0  0  0
   -7.9844   -2.9488  -19.8324 H   0  0  0  0  0  0  0  0  0  0  0  0
  1 15  1  0  0  0  0
  1 16  2  0  0  0  0
  1 17  1  0  0  0  0
  2  4  1  0  0  0  0
  2  8  1  0  0  0  0
  3  5  1  0  0  0  0
  3  9  1  1  0  0  0
  4 14  1  0  0  0  0
  5 14  1  0  0  0  0
  6  8  1  1  0  0  0
  6 15  1  0  0  0  0
  7  9  1  0  0  0  0
  7 15  1  0  0  0  0
  8  9  1  0  0  0  0
 10 13  1  0  0  0  0
 11 13  1  0  0  0  0
 12 13  1  0  0  0  0
 13 17  1  0  0  0  0
  2 18  1  0  0  0  0
  2 19  1  0  0  0  0
  3 20  1  0  0  0  0
  3 21  1  0  0  0  0
  4 22  1  0  0  0  0
  4 23  1  0  0  0  0
  5 24  1  0  0  0  0
  5 25  1  0  0  0  0
  6 26  1  0  0  0  0
  6 27  1  0  0  0  0
  7 28  1  0  0  0  0
  7 29  1  0  0  0  0
  8 30  1  0  0  0  0
  9 31  1  0  0  0  0
 10 32  1  0  0  0  0
 10 33  1  0  0  0  0
 10 34  1  0  0  0  0
 11 35  1  0  0  0  0
 11 36  1  0  0  0  0
 11 37  1  0  0  0  0
 12 38  1  0  0  0  0
 12 39  1  0  0  0  0
 12 40  1  0  0  0  0
 14 41  1  0  0  0  0
M  END
> <id>
EN300-223530

> <smiles>
Cl.CC(C)(C)OC(=O)N1C[C@H]2CCNCC[C@H]2C1

> <MDLNUMBER>
MFCD20278349

> <IUPAC Name>
tert-butyl (3aR,8aS)-decahydropyrrolo[3,4-d]azepine-2-carboxylate hydrochloride

> <CAS>
1588507-46-3

> <URL>
https://www.enaminestore.com/catalog/EN300-223530

> <Saltdate>
Cl

> <ROCS_ShapeQuery>
amalgated

> <ROCS_TanimotoCombo>
0.870 

> <ROCS_ShapeTanimoto>
0.596 

> <ROCS_ColorTanimoto>
0.274 

> <ROCS_RefTversky>
0.552 

> <ROCS_RefColorTversky>
0.403 

> <ROCS_RefTverskyCombo>
0.955 

> <ROCS_FitTversky>
1.156 

> <ROCS_FitColorTversky>
0.462 

> <ROCS_FitTverskyCombo>
1.618 

> <ROCS_ColorScore>
-2.800

> <ROCS_Overlap>
906.272

> <ROCS_Rank>
112                 

$$$$
untitled-dbase-34551_66
  -OEChem-10092318153D

 48 50  0     1  0  0  0  0  0999 V2000
   -8.7173    0.1511  -14.2000 C   0  0  0  0  0  0  0  0  0  0  0  0
   -9.8081   -3.2450  -14.7360 C   0  0  0  0  0  0  0  0  0  0  0  0
   -9.7410   -3.6059  -16.2118 C   0  0  0  0  0  0  0  0  0  0  0  0
   -8.2027    0.1249  -18.5730 C   0  0  0  0  0  0  0  0  0  0  0  0
   -6.7190   -0.1469  -17.0273 C   0  0  0  0  0  0  0  0  0  0  0  0
   -8.6745   -2.3178  -14.3288 C   0  0  0  0  0  0  0  0  0  0  0  0
   -9.4277   -2.3943  -17.0841 C   0  0  1  0  0  0  0  0  0  0  0  0
   -7.2339    1.0855  -17.8257 C   0  0  0  0  0  0  0  0  0  0  0  0
   -9.1636   -0.9826  -16.4347 C   0  0  2  0  0  0  0  0  0  0  0  0
   -7.9620   -2.3454  -17.6260 C   0  0  2  0  0  0  0  0  0  0  0  0
   -8.0005   -0.8512  -17.4204 C   0  0  0  0  0  0  0  0  0  0  0  0
   -6.2095    1.8116  -18.6747 C   0  0  0  0  0  0  0  0  0  0  0  0
  -10.8135    0.3710  -12.6378 C   0  0  0  0  0  0  0  0  0  0  0  0
   -9.4656   -0.6256  -10.7672 C   0  0  0  0  0  0  0  0  0  0  0  0
   -9.0457    1.7438  -11.4866 C   0  0  0  0  0  0  0  0  0  0  0  0
   -9.4509    0.3442  -11.9467 C   0  0  0  0  0  0  0  0  0  0  0  0
   -8.8216   -1.0137  -14.9752 N   0  0  0  0  0  0  0  0  0  0  0  0
   -7.9839   -2.7205  -19.0332 N   0  0  0  0  0  0  0  0  0  0  0  0
   -8.8237    1.2947  -14.6375 O   0  0  0  0  0  0  0  0  0  0  0  0
   -8.4750   -0.1287  -12.8819 O   0  0  0  0  0  0  0  0  0  0  0  0
  -10.7773   -2.7725  -14.5029 H   0  0  0  0  0  0  0  0  0  0  0  0
   -9.7590   -4.1656  -14.1322 H   0  0  0  0  0  0  0  0  0  0  0  0
   -8.9866   -4.4127  -16.3564 H   0  0  0  0  0  0  0  0  0  0  0  0
  -10.7044   -4.0590  -16.5357 H   0  0  0  0  0  0  0  0  0  0  0  0
   -9.2141    0.5061  -18.7167 H   0  0  0  0  0  0  0  0  0  0  0  0
   -7.8152   -0.2214  -19.5349 H   0  0  0  0  0  0  0  0  0  0  0  0
   -5.8117   -0.5956  -17.4519 H   0  0  0  0  0  0  0  0  0  0  0  0
   -6.5320    0.0418  -15.9679 H   0  0  0  0  0  0  0  0  0  0  0  0
   -8.6786   -2.1926  -13.2573 H   0  0  0  0  0  0  0  0  0  0  0  0
   -7.7213   -2.7235  -14.6317 H   0  0  0  0  0  0  0  0  0  0  0  0
  -10.1995   -2.3293  -17.8926 H   0  0  0  0  0  0  0  0  0  0  0  0
   -7.7679    1.7958  -17.1817 H   0  0  0  0  0  0  0  0  0  0  0  0
   -9.9804   -0.3141  -16.6267 H   0  0  0  0  0  0  0  0  0  0  0  0
   -7.2172   -2.9152  -17.0311 H   0  0  0  0  0  0  0  0  0  0  0  0
   -5.6774    1.1050  -19.3163 H   0  0  0  0  0  0  0  0  0  0  0  0
   -5.4809    2.3209  -18.0394 H   0  0  0  0  0  0  0  0  0  0  0  0
   -6.6989    2.5556  -19.3080 H   0  0  0  0  0  0  0  0  0  0  0  0
  -10.8071    1.0660  -13.4851 H   0  0  0  0  0  0  0  0  0  0  0  0
  -11.0999   -0.6205  -13.0034 H   0  0  0  0  0  0  0  0  0  0  0  0
  -11.5923    0.7256  -11.9530 H   0  0  0  0  0  0  0  0  0  0  0  0
   -8.4899   -0.6481  -10.2684 H   0  0  0  0  0  0  0  0  0  0  0  0
   -9.6627   -1.6492  -11.1059 H   0  0  0  0  0  0  0  0  0  0  0  0
  -10.2262   -0.3522  -10.0288 H   0  0  0  0  0  0  0  0  0  0  0  0
   -8.0684    1.7248  -10.9909 H   0  0  0  0  0  0  0  0  0  0  0  0
   -8.9940    2.4450  -12.3258 H   0  0  0  0  0  0  0  0  0  0  0  0
   -9.7582    2.1335  -10.7506 H   0  0  0  0  0  0  0  0  0  0  0  0
   -7.0840   -2.5469  -19.4111 H   0  0  0  0  0  0  0  0  0  0  0  0
   -8.2112   -3.6838  -19.0899 H   0  0  0  0  0  0  0  0  0  0  0  0
  1 17  1  0  0  0  0
  1 19  2  0  0  0  0
  1 20  1  0  0  0  0
  2  3  1  0  0  0  0
  2  6  1  0  0  0  0
  3  7  1  0  0  0  0
  4  8  1  0  0  0  0
  4 11  1  0  0  0  0
  5  8  1  0  0  0  0
  5 11  1  0  0  0  0
  6 17  1  0  0  0  0
  7  9  1  0  0  0  0
  7 10  1  0  0  0  0
  8 12  1  0  0  0  0
  9 11  1  0  0  0  0
  9 17  1  0  0  0  0
 10 11  1  0  0  0  0
 10 18  1  0  0  0  0
 13 16  1  0  0  0  0
 14 16  1  0  0  0  0
 15 16  1  0  0  0  0
 16 20  1  0  0  0  0
  2 21  1  0  0  0  0
  2 22  1  0  0  0  0
  3 23  1  0  0  0  0
  3 24  1  0  0  0  0
  4 25  1  0  0  0  0
  4 26  1  0  0  0  0
  5 27  1  0  0  0  0
  5 28  1  0  0  0  0
  6 29  1  0  0  0  0
  6 30  1  0  0  0  0
  7 31  1  0  0  0  0
  8 32  1  0  0  0  0
  9 33  1  0  0  0  0
 10 34  1  0  0  0  0
 12 35  1  0  0  0  0
 12 36  1  0  0  0  0
 12 37  1  0  0  0  0
 13 38  1  0  0  0  0
 13 39  1  0  0  0  0
 13 40  1  0  0  0  0
 14 41  1  0  0  0  0
 14 42  1  0  0  0  0
 14 43  1  0  0  0  0
 15 44  1  0  0  0  0
 15 45  1  0  0  0  0
 15 46  1  0  0  0  0
 18 47  1  0  0  0  0
 18 48  1  0  0  0  0
M  END
> <id>
EN300-701138

> <smiles>
CC1CC2(C1)C(N)C3CCCN(C32)C(=O)OC(C)(C)C

> <IUPAC Name>
tert-butyl 8-amino-3'-methyl-5-azaspiro[bicyclo[4.2.0]octane-7,1'-cyclobutane]-5-carboxylate

> <CAS>
2137803-53-1

> <URL>
https://www.enaminestore.com/catalog/EN300-701138

> <ROCS_ShapeQuery>
amalgated

> <ROCS_TanimotoCombo>
0.870 

> <ROCS_ShapeTanimoto>
0.594 

> <ROCS_ColorTanimoto>
0.276 

> <ROCS_RefTversky>
0.581 

> <ROCS_RefColorTversky>
0.436 

> <ROCS_RefTverskyCombo>
1.017 

> <ROCS_FitTversky>
1.038 

> <ROCS_FitColorTversky>
0.431 

> <ROCS_FitTverskyCombo>
1.469 

> <ROCS_ColorScore>
-3.053

> <ROCS_Overlap>
958.886

> <ROCS_Rank>
113                 

$$$$
untitled-dbase-39301_1
  -OEChem-10092318153D

 30 32  0     0  0  0  0  0  0999 V2000
   -8.1827    0.2564  -15.1137 C   0  0  0  0  0  0  0  0  0  0  0  0
   -9.2360   -2.1833  -14.3135 C   0  0  0  0  0  0  0  0  0  0  0  0
   -8.2625   -0.7935  -16.0516 C   0  0  0  0  0  0  0  0  0  0  0  0
   -8.8325   -2.0209  -15.6547 C   0  0  0  0  0  0  0  0  0  0  0  0
   -8.6173    0.0867  -13.8000 C   0  0  0  0  0  0  0  0  0  0  0  0
   -9.1181   -1.1438  -13.3922 C   0  0  0  0  0  0  0  0  0  0  0  0
   -7.7623   -0.5016  -17.4505 C   0  0  0  0  0  0  0  0  0  0  0  0
   -9.0040   -3.2143  -16.5702 C   0  0  0  0  0  0  0  0  0  0  0  0
   -7.1452   -1.6919  -18.1850 C   0  0  0  0  0  0  0  0  0  0  0  0
   -9.2974   -2.8783  -18.0319 C   0  0  0  0  0  0  0  0  0  0  0  0
   -9.2761    0.9861  -11.7647 C   0  0  0  0  0  0  0  0  0  0  0  0
   -9.0482   -0.4009  -11.1957 C   0  0  0  0  0  0  0  0  0  0  0  0
   -8.1160   -2.5709  -18.8312 N   0  0  0  0  0  0  0  0  0  0  0  0
   -8.5108    1.1636  -12.9600 O   0  0  0  0  0  0  0  0  0  0  0  0
   -9.5243   -1.3942  -12.1080 O   0  0  0  0  0  0  0  0  0  0  0  0
   -7.7834    1.2245  -15.4205 H   0  0  0  0  0  0  0  0  0  0  0  0
   -9.6384   -3.1426  -13.9837 H   0  0  0  0  0  0  0  0  0  0  0  0
   -8.5819   -0.0480  -18.0391 H   0  0  0  0  0  0  0  0  0  0  0  0
   -6.9934    0.2912  -17.3966 H   0  0  0  0  0  0  0  0  0  0  0  0
   -8.0788   -3.8193  -16.5458 H   0  0  0  0  0  0  0  0  0  0  0  0
   -9.7786   -3.8826  -16.1492 H   0  0  0  0  0  0  0  0  0  0  0  0
   -6.5029   -1.2963  -18.9858 H   0  0  0  0  0  0  0  0  0  0  0  0
   -6.4763   -2.2687  -17.5271 H   0  0  0  0  0  0  0  0  0  0  0  0
   -9.8985   -3.6665  -18.5136 H   0  0  0  0  0  0  0  0  0  0  0  0
   -9.9279   -1.9762  -18.0492 H   0  0  0  0  0  0  0  0  0  0  0  0
  -10.3344    1.1588  -11.9976 H   0  0  0  0  0  0  0  0  0  0  0  0
   -8.9553    1.7484  -11.0477 H   0  0  0  0  0  0  0  0  0  0  0  0
   -7.9851   -0.5874  -10.9981 H   0  0  0  0  0  0  0  0  0  0  0  0
   -9.5967   -0.5211  -10.2564 H   0  0  0  0  0  0  0  0  0  0  0  0
   -8.4048   -2.1620  -19.7272 H   0  0  0  0  0  0  0  0  0  0  0  0
  1  3  1  0  0  0  0
  1  5  2  0  0  0  0
  2  4  1  0  0  0  0
  2  6  2  0  0  0  0
  3  4  2  0  0  0  0
  3  7  1  0  0  0  0
  4  8  1  0  0  0  0
  5  6  1  0  0  0  0
  5 14  1  0  0  0  0
  6 15  1  0  0  0  0
  7  9  1  0  0  0  0
  8 10  1  0  0  0  0
  9 13  1  0  0  0  0
 10 13  1  0  0  0  0
 11 12  1  0  0  0  0
 11 14  1  0  0  0  0
 12 15  1  0  0  0  0
  1 16  1  0  0  0  0
  2 17  1  0  0  0  0
  7 18  1  0  0  0  0
  7 19  1  0  0  0  0
  8 20  1  0  0  0  0
  8 21  1  0  0  0  0
  9 22  1  0  0  0  0
  9 23  1  0  0  0  0
 10 24  1  0  0  0  0
 10 25  1  0  0  0  0
 11 26  1  0  0  0  0
 11 27  1  0  0  0  0
 12 28  1  0  0  0  0
 12 29  1  0  0  0  0
 13 30  1  0  0  0  0
M  END
> <id>
EN300-88138

> <smiles>
C1COC=2C=C3CCNCCC3=CC2O1

> <MDLNUMBER>
MFCD10686950

> <IUPAC Name>
4,7-dioxa-13-azatricyclo[8.5.0.0,3,8]pentadeca-1(10),2,8-triene

> <CAS>
1038714-43-0

> <URL>
https://www.enaminestore.com/catalog/EN300-88138

> <ROCS_ShapeQuery>
amalgated

> <ROCS_TanimotoCombo>
0.870 

> <ROCS_ShapeTanimoto>
0.522 

> <ROCS_ColorTanimoto>
0.348 

> <ROCS_RefTversky>
0.496 

> <ROCS_RefColorTversky>
0.517 

> <ROCS_RefTverskyCombo>
1.013 

> <ROCS_FitTversky>
1.112 

> <ROCS_FitColorTversky>
0.516 

> <ROCS_FitTverskyCombo>
1.628 

> <ROCS_ColorScore>
-3.618

> <ROCS_Overlap>
813.010

> <ROCS_Rank>
114                 

$$$$
untitled-dbase-34313_285
  -OEChem-10092318153D

 43 44  0     0  0  0  0  0  0999 V2000
   -7.4728    1.4925  -16.9327 C   0  0  0  0  0  0  0  0  0  0  0  0
   -8.3710    0.4465  -13.4371 C   0  0  0  0  0  0  0  0  0  0  0  0
   -8.3501    0.5455  -17.7204 C   0  0  0  0  0  0  0  0  0  0  0  0
   -7.8245    1.7823  -15.4887 C   0  0  0  0  0  0  0  0  0  0  0  0
   -7.6305   -1.6129  -16.5608 C   0  0  0  0  0  0  0  0  0  0  0  0
   -9.8881   -1.4640  -17.6886 C   0  0  0  0  0  0  0  0  0  0  0  0
   -7.0552   -2.3092  -17.8010 C   0  0  0  0  0  0  0  0  0  0  0  0
   -9.3846   -2.7970  -18.2533 C   0  0  0  0  0  0  0  0  0  0  0  0
   -9.4440   -0.1220  -15.5945 C   0  0  0  0  0  0  0  0  0  0  0  0
   -8.8120   -0.6684  -16.8903 C   0  0  0  0  0  0  0  0  0  0  0  0
   -9.2373    0.9009  -10.7473 C   0  0  0  0  0  0  0  0  0  0  0  0
  -10.7586   -1.0664  -11.1006 C   0  0  0  0  0  0  0  0  0  0  0  0
   -8.2688   -1.3731  -11.2222 C   0  0  0  0  0  0  0  0  0  0  0  0
   -9.4317   -0.4193  -11.4917 C   0  0  0  0  0  0  0  0  0  0  0  0
   -8.0508   -2.6543  -18.8154 N   0  0  0  0  0  0  0  0  0  0  0  0
   -8.4966    0.6735  -14.8155 N   0  0  0  0  0  0  0  0  0  0  0  0
   -6.6069    2.1578  -17.5065 O   0  0  0  0  0  0  0  0  0  0  0  0
   -7.3779    0.7371  -12.7727 O   0  0  0  0  0  0  0  0  0  0  0  0
   -9.4820   -0.1470  -12.8969 O   0  0  0  0  0  0  0  0  0  0  0  0
   -9.2146    1.1256  -18.0627 H   0  0  0  0  0  0  0  0  0  0  0  0
   -7.7970    0.2158  -18.6063 H   0  0  0  0  0  0  0  0  0  0  0  0
   -6.9056    2.0544  -14.9598 H   0  0  0  0  0  0  0  0  0  0  0  0
   -8.5106    2.6368  -15.4682 H   0  0  0  0  0  0  0  0  0  0  0  0
   -7.9208   -2.3765  -15.8287 H   0  0  0  0  0  0  0  0  0  0  0  0
   -6.8236   -1.0356  -16.0862 H   0  0  0  0  0  0  0  0  0  0  0  0
  -10.2464   -0.8442  -18.5257 H   0  0  0  0  0  0  0  0  0  0  0  0
  -10.7672   -1.6503  -17.0541 H   0  0  0  0  0  0  0  0  0  0  0  0
   -6.3013   -1.6440  -18.2661 H   0  0  0  0  0  0  0  0  0  0  0  0
   -6.4861   -3.2153  -17.5108 H   0  0  0  0  0  0  0  0  0  0  0  0
   -9.3922   -3.5753  -17.4852 H   0  0  0  0  0  0  0  0  0  0  0  0
  -10.0674   -3.1316  -19.0397 H   0  0  0  0  0  0  0  0  0  0  0  0
  -10.2923    0.5376  -15.8263 H   0  0  0  0  0  0  0  0  0  0  0  0
   -9.8479   -0.9290  -14.9739 H   0  0  0  0  0  0  0  0  0  0  0  0
   -8.2859    1.3685  -11.0252 H   0  0  0  0  0  0  0  0  0  0  0  0
  -10.0469    1.6067  -10.9597 H   0  0  0  0  0  0  0  0  0  0  0  0
   -9.1964    0.7368   -9.6644 H   0  0  0  0  0  0  0  0  0  0  0  0
  -10.9023   -2.0139  -11.6324 H   0  0  0  0  0  0  0  0  0  0  0  0
  -11.6026   -0.4251  -11.3792 H   0  0  0  0  0  0  0  0  0  0  0  0
  -10.8115   -1.2612  -10.0246 H   0  0  0  0  0  0  0  0  0  0  0  0
   -8.4080   -2.3202  -11.7561 H   0  0  0  0  0  0  0  0  0  0  0  0
   -7.3119   -0.9398  -11.5310 H   0  0  0  0  0  0  0  0  0  0  0  0
   -8.2097   -1.6244  -10.1570 H   0  0  0  0  0  0  0  0  0  0  0  0
   -8.0655   -1.9159  -19.5238 H   0  0  0  0  0  0  0  0  0  0  0  0
  1  3  1  0  0  0  0
  1  4  1  0  0  0  0
  1 17  2  0  0  0  0
  2 16  1  0  0  0  0
  2 18  2  0  0  0  0
  2 19  1  0  0  0  0
  3 10  1  0  0  0  0
  4 16  1  0  0  0  0
  5  7  1  0  0  0  0
  5 10  1  0  0  0  0
  6  8  1  0  0  0  0
  6 10  1  0  0  0  0
  7 15  1  0  0  0  0
  8 15  1  0  0  0  0
  9 10  1  0  0  0  0
  9 16  1  0  0  0  0
 11 14  1  0  0  0  0
 12 14  1  0  0  0  0
 13 14  1  0  0  0  0
 14 19  1  0  0  0  0
  3 20  1  0  0  0  0
  3 21  1  0  0  0  0
  4 22  1  0  0  0  0
  4 23  1  0  0  0  0
  5 24  1  0  0  0  0
  5 25  1  0  0  0  0
  6 26  1  0  0  0  0
  6 27  1  0  0  0  0
  7 28  1  0  0  0  0
  7 29  1  0  0  0  0
  8 30  1  0  0  0  0
  8 31  1  0  0  0  0
  9 32  1  0  0  0  0
  9 33  1  0  0  0  0
 11 34  1  0  0  0  0
 11 35  1  0  0  0  0
 11 36  1  0  0  0  0
 12 37  1  0  0  0  0
 12 38  1  0  0  0  0
 12 39  1  0  0  0  0
 13 40  1  0  0  0  0
 13 41  1  0  0  0  0
 13 42  1  0  0  0  0
 15 43  1  0  0  0  0
M  END
> <id>
EN300-374491

> <smiles>
CC(C)(C)OC(=O)N1CC(=O)CC2(CCNCC2)C1

> <MDLNUMBER>
MFCD30731666

> <IUPAC Name>
tert-butyl 4-oxo-2,9-diazaspiro[5.5]undecane-2-carboxylate

> <CAS>
2137834-21-8

> <URL>
https://www.enaminestore.com/catalog/EN300-374491

> <ROCS_ShapeQuery>
amalgated

> <ROCS_TanimotoCombo>
0.870 

> <ROCS_ShapeTanimoto>
0.640 

> <ROCS_ColorTanimoto>
0.229 

> <ROCS_RefTversky>
0.597 

> <ROCS_RefColorTversky>
0.373 

> <ROCS_RefTverskyCombo>
0.970 

> <ROCS_FitTversky>
1.129 

> <ROCS_FitColorTversky>
0.373 

> <ROCS_FitTverskyCombo>
1.502 

> <ROCS_ColorScore>
-2.613

> <ROCS_Overlap>
982.986

> <ROCS_Rank>
115                 

$$$$
untitled-dbase-8967_838
  -OEChem-10092318153D

 47 48  0     0  0  0  0  0  0999 V2000
   -8.4836    0.4043  -15.0083 C   0  0  0  0  0  0  0  0  0  0  0  0
   -8.7708   -3.6235  -19.0324 C   0  0  0  0  0  0  0  0  0  0  0  0
  -10.0999    0.5638  -11.6216 C   0  0  0  0  0  0  0  0  0  0  0  0
   -8.0331   -0.7447  -11.4808 C   0  0  0  0  0  0  0  0  0  0  0  0
   -9.4407    1.1446  -12.8665 C   0  0  0  0  0  0  0  0  0  0  0  0
   -8.3339   -1.0750  -12.9420 C   0  0  0  0  0  0  0  0  0  0  0  0
   -9.3772   -1.8176  -15.8546 C   0  0  0  0  0  0  0  0  0  0  0  0
   -7.8451   -0.4143  -17.2345 C   0  0  0  0  0  0  0  0  0  0  0  0
   -9.8391   -2.3143  -17.2202 C   0  0  0  0  0  0  0  0  0  0  0  0
   -7.5422   -1.7031  -17.9849 C   0  0  0  0  0  0  0  0  0  0  0  0
   -9.2081   -5.8512  -17.2915 C   0  0  0  0  0  0  0  0  0  0  0  0
  -11.2915   -6.2564  -18.6349 C   0  0  0  0  0  0  0  0  0  0  0  0
   -9.0423   -6.3872  -19.7451 C   0  0  0  0  0  0  0  0  0  0  0  0
   -9.8699   -5.6991  -18.6604 C   0  0  0  0  0  0  0  0  0  0  0  0
   -9.1620   -0.1572  -10.7617 N   0  0  0  0  0  0  0  0  0  0  0  0
   -8.8089    0.1032  -13.6777 N   0  0  0  0  0  0  0  0  0  0  0  0
   -8.5014   -0.6418  -15.9461 N   0  0  0  0  0  0  0  0  0  0  0  0
   -8.7118   -2.5737  -18.1111 N   0  0  0  0  0  0  0  0  0  0  0  0
   -8.1933    1.5603  -15.3467 O   0  0  0  0  0  0  0  0  0  0  0  0
   -7.8686   -3.9098  -19.8170 O   0  0  0  0  0  0  0  0  0  0  0  0
   -9.9589   -4.3039  -18.9711 O   0  0  0  0  0  0  0  0  0  0  0  0
  -10.5585    1.3793  -11.0364 H   0  0  0  0  0  0  0  0  0  0  0  0
  -10.9341   -0.1033  -11.9046 H   0  0  0  0  0  0  0  0  0  0  0  0
   -7.6922   -1.6546  -10.9513 H   0  0  0  0  0  0  0  0  0  0  0  0
   -7.1801   -0.0441  -11.4353 H   0  0  0  0  0  0  0  0  0  0  0  0
  -10.1483    1.7455  -13.4449 H   0  0  0  0  0  0  0  0  0  0  0  0
   -8.6395    1.8404  -12.5762 H   0  0  0  0  0  0  0  0  0  0  0  0
   -7.4338   -1.4385  -13.4553 H   0  0  0  0  0  0  0  0  0  0  0  0
   -9.0862   -1.8710  -12.9995 H   0  0  0  0  0  0  0  0  0  0  0  0
  -10.2310   -1.6403  -15.1904 H   0  0  0  0  0  0  0  0  0  0  0  0
   -8.7875   -2.6038  -15.3572 H   0  0  0  0  0  0  0  0  0  0  0  0
   -6.9158    0.1459  -17.0338 H   0  0  0  0  0  0  0  0  0  0  0  0
   -8.4763    0.2398  -17.8582 H   0  0  0  0  0  0  0  0  0  0  0  0
  -10.4579   -3.2098  -17.0886 H   0  0  0  0  0  0  0  0  0  0  0  0
  -10.4699   -1.5585  -17.7083 H   0  0  0  0  0  0  0  0  0  0  0  0
   -7.2038   -1.4758  -19.0074 H   0  0  0  0  0  0  0  0  0  0  0  0
   -6.7181   -2.2365  -17.4909 H   0  0  0  0  0  0  0  0  0  0  0  0
   -8.1875   -5.4523  -17.3057 H   0  0  0  0  0  0  0  0  0  0  0  0
   -9.7734   -5.3325  -16.5104 H   0  0  0  0  0  0  0  0  0  0  0  0
   -9.1232   -6.9079  -17.0135 H   0  0  0  0  0  0  0  0  0  0  0  0
  -11.7701   -6.1494  -19.6151 H   0  0  0  0  0  0  0  0  0  0  0  0
  -11.9154   -5.7020  -17.9246 H   0  0  0  0  0  0  0  0  0  0  0  0
  -11.3055   -7.3150  -18.3560 H   0  0  0  0  0  0  0  0  0  0  0  0
   -9.5168   -6.2782  -20.7270 H   0  0  0  0  0  0  0  0  0  0  0  0
   -8.0300   -5.9744  -19.8027 H   0  0  0  0  0  0  0  0  0  0  0  0
   -8.9690   -7.4641  -19.5549 H   0  0  0  0  0  0  0  0  0  0  0  0
   -8.7946    0.4987  -10.0556 H   0  0  0  0  0  0  0  0  0  0  0  0
  1 16  1  0  0  0  0
  1 17  1  0  0  0  0
  1 19  2  0  0  0  0
  2 18  1  0  0  0  0
  2 20  2  0  0  0  0
  2 21  1  0  0  0  0
  3  5  1  0  0  0  0
  3 15  1  0  0  0  0
  4  6  1  0  0  0  0
  4 15  1  0  0  0  0
  5 16  1  0  0  0  0
  6 16  1  0  0  0  0
  7  9  1  0  0  0  0
  7 17  1  0  0  0  0
  8 10  1  0  0  0  0
  8 17  1  0  0  0  0
  9 18  1  0  0  0  0
 10 18  1  0  0  0  0
 11 14  1  0  0  0  0
 12 14  1  0  0  0  0
 13 14  1  0  0  0  0
 14 21  1  0  0  0  0
  3 22  1  0  0  0  0
  3 23  1  0  0  0  0
  4 24  1  0  0  0  0
  4 25  1  0  0  0  0
  5 26  1  0  0  0  0
  5 27  1  0  0  0  0
  6 28  1  0  0  0  0
  6 29  1  0  0  0  0
  7 30  1  0  0  0  0
  7 31  1  0  0  0  0
  8 32  1  0  0  0  0
  8 33  1  0  0  0  0
  9 34  1  0  0  0  0
  9 35  1  0  0  0  0
 10 36  1  0  0  0  0
 10 37  1  0  0  0  0
 11 38  1  0  0  0  0
 11 39  1  0  0  0  0
 11 40  1  0  0  0  0
 12 41  1  0  0  0  0
 12 42  1  0  0  0  0
 12 43  1  0  0  0  0
 13 44  1  0  0  0  0
 13 45  1  0  0  0  0
 13 46  1  0  0  0  0
 15 47  1  0  0  0  0
M  END
> <id>
EN300-314882

> <smiles>
CC(C)(C)OC(=O)N1CCN(CC1)C(=O)N2CCNCC2

> <MDLNUMBER>
MFCD24469802

> <IUPAC Name>
tert-butyl 4-(piperazine-1-carbonyl)piperazine-1-carboxylate

> <CAS>
203520-35-8

> <Purity>
95

> <URL>
https://www.enaminestore.com/catalog/EN300-314882

> <ROCS_ShapeQuery>
amalgated

> <ROCS_TanimotoCombo>
0.870 

> <ROCS_ShapeTanimoto>
0.563 

> <ROCS_ColorTanimoto>
0.307 

> <ROCS_RefTversky>
0.569 

> <ROCS_RefColorTversky>
0.470 

> <ROCS_RefTverskyCombo>
1.039 

> <ROCS_FitTversky>
0.980 

> <ROCS_FitColorTversky>
0.470 

> <ROCS_FitTverskyCombo>
1.450 

> <ROCS_ColorScore>
-3.288

> <ROCS_Overlap>
940.560

> <ROCS_Rank>
116                 

$$$$
untitled-dbase-20639_4
  -OEChem-10092318153D

 30 31  0     0  0  0  0  0  0999 V2000
   -8.4664    0.3114  -15.1002 C   0  0  0  0  0  0  0  0  0  0  0  0
   -8.2958   -1.8763  -18.0748 C   0  0  0  0  0  0  0  0  0  0  0  0
   -9.3108   -2.6074  -17.2079 C   0  0  0  0  0  0  0  0  0  0  0  0
   -8.2134   -0.5100  -17.4168 C   0  0  0  0  0  0  0  0  0  0  0  0
   -8.9879   -2.1066  -15.8064 C   0  0  0  0  0  0  0  0  0  0  0  0
  -10.0886    0.5315  -11.7351 C   0  0  0  0  0  0  0  0  0  0  0  0
   -8.0089   -0.7434  -11.5199 C   0  0  0  0  0  0  0  0  0  0  0  0
   -9.3965    1.1022  -12.9670 C   0  0  0  0  0  0  0  0  0  0  0  0
   -8.2516   -1.0970  -12.9866 C   0  0  0  0  0  0  0  0  0  0  0  0
   -9.1779   -0.1858  -10.8437 N   0  0  0  0  0  0  0  0  0  0  0  0
   -8.4806   -0.7487  -16.0023 N   0  0  0  0  0  0  0  0  0  0  0  0
   -8.7467    0.0516  -13.7532 N   0  0  0  0  0  0  0  0  0  0  0  0
   -8.2276    1.4642  -15.4882 O   0  0  0  0  0  0  0  0  0  0  0  0
   -7.3237   -2.3805  -18.0254 H   0  0  0  0  0  0  0  0  0  0  0  0
   -8.6056   -1.8204  -19.1220 H   0  0  0  0  0  0  0  0  0  0  0  0
  -10.3301   -2.3150  -17.4894 H   0  0  0  0  0  0  0  0  0  0  0  0
   -9.2264   -3.6950  -17.2942 H   0  0  0  0  0  0  0  0  0  0  0  0
   -7.2382   -0.0303  -17.5415 H   0  0  0  0  0  0  0  0  0  0  0  0
   -8.9875    0.1631  -17.8028 H   0  0  0  0  0  0  0  0  0  0  0  0
   -9.8577   -2.1184  -15.1427 H   0  0  0  0  0  0  0  0  0  0  0  0
   -8.1852   -2.7192  -15.3833 H   0  0  0  0  0  0  0  0  0  0  0  0
  -10.5659    1.3469  -11.1715 H   0  0  0  0  0  0  0  0  0  0  0  0
  -10.9059   -0.1421  -12.0388 H   0  0  0  0  0  0  0  0  0  0  0  0
   -7.6440   -1.6353  -10.9679 H   0  0  0  0  0  0  0  0  0  0  0  0
   -7.1803   -0.0098  -11.4557 H   0  0  0  0  0  0  0  0  0  0  0  0
  -10.1567    1.6085  -13.5636 H   0  0  0  0  0  0  0  0  0  0  0  0
   -8.6237    1.8238  -12.6785 H   0  0  0  0  0  0  0  0  0  0  0  0
   -7.3128   -1.4098  -13.4600 H   0  0  0  0  0  0  0  0  0  0  0  0
   -8.9426   -1.9427  -13.0594 H   0  0  0  0  0  0  0  0  0  0  0  0
   -8.8555    0.4660  -10.1102 H   0  0  0  0  0  0  0  0  0  0  0  0
  1 11  1  0  0  0  0
  1 12  1  0  0  0  0
  1 13  2  0  0  0  0
  2  3  1  0  0  0  0
  2  4  1  0  0  0  0
  3  5  1  0  0  0  0
  4 11  1  0  0  0  0
  5 11  1  0  0  0  0
  6  8  1  0  0  0  0
  6 10  1  0  0  0  0
  7  9  1  0  0  0  0
  7 10  1  0  0  0  0
  8 12  1  0  0  0  0
  9 12  1  0  0  0  0
  2 14  1  0  0  0  0
  2 15  1  0  0  0  0
  3 16  1  0  0  0  0
  3 17  1  0  0  0  0
  4 18  1  0  0  0  0
  4 19  1  0  0  0  0
  5 20  1  0  0  0  0
  5 21  1  0  0  0  0
  6 22  1  0  0  0  0
  6 23  1  0  0  0  0
  7 24  1  0  0  0  0
  7 25  1  0  0  0  0
  8 26  1  0  0  0  0
  8 27  1  0  0  0  0
  9 28  1  0  0  0  0
  9 29  1  0  0  0  0
 10 30  1  0  0  0  0
M  END
> <id>
EN300-57526

> <smiles>
O=C(N1CCCC1)N2CCNCC2

> <MDLNUMBER>
MFCD03844724

> <IUPAC Name>
1-(pyrrolidine-1-carbonyl)piperazine

> <CAS>
73331-93-8

> <URL>
https://www.enaminestore.com/catalog/EN300-57526

> <ROCS_ShapeQuery>
amalgated

> <ROCS_TanimotoCombo>
0.869 

> <ROCS_ShapeTanimoto>
0.506 

> <ROCS_ColorTanimoto>
0.363 

> <ROCS_RefTversky>
0.464 

> <ROCS_RefColorTversky>
0.463 

> <ROCS_RefTverskyCombo>
0.927 

> <ROCS_FitTversky>
1.219 

> <ROCS_FitColorTversky>
0.627 

> <ROCS_FitTverskyCombo>
1.845 

> <ROCS_ColorScore>
-3.196

> <ROCS_Overlap>
757.596

> <ROCS_Rank>
117                 

$$$$
untitled-dbase-2272_4
  -OEChem-10092318153D

 30 31  0     0  0  0  0  0  0999 V2000
   -8.4664    0.3114  -15.1002 C   0  0  0  0  0  0  0  0  0  0  0  0
   -8.2958   -1.8763  -18.0748 C   0  0  0  0  0  0  0  0  0  0  0  0
   -9.3108   -2.6074  -17.2079 C   0  0  0  0  0  0  0  0  0  0  0  0
   -8.2134   -0.5100  -17.4168 C   0  0  0  0  0  0  0  0  0  0  0  0
   -8.9879   -2.1066  -15.8064 C   0  0  0  0  0  0  0  0  0  0  0  0
  -10.0886    0.5315  -11.7351 C   0  0  0  0  0  0  0  0  0  0  0  0
   -8.0089   -0.7434  -11.5199 C   0  0  0  0  0  0  0  0  0  0  0  0
   -9.3965    1.1022  -12.9670 C   0  0  0  0  0  0  0  0  0  0  0  0
   -8.2516   -1.0970  -12.9866 C   0  0  0  0  0  0  0  0  0  0  0  0
   -9.1779   -0.1858  -10.8437 N   0  0  0  0  0  0  0  0  0  0  0  0
   -8.4806   -0.7487  -16.0023 N   0  0  0  0  0  0  0  0  0  0  0  0
   -8.7467    0.0516  -13.7532 N   0  0  0  0  0  0  0  0  0  0  0  0
   -8.2276    1.4642  -15.4882 O   0  0  0  0  0  0  0  0  0  0  0  0
   -7.3237   -2.3805  -18.0254 H   0  0  0  0  0  0  0  0  0  0  0  0
   -8.6056   -1.8204  -19.1220 H   0  0  0  0  0  0  0  0  0  0  0  0
  -10.3301   -2.3150  -17.4894 H   0  0  0  0  0  0  0  0  0  0  0  0
   -9.2264   -3.6950  -17.2942 H   0  0  0  0  0  0  0  0  0  0  0  0
   -7.2382   -0.0303  -17.5415 H   0  0  0  0  0  0  0  0  0  0  0  0
   -8.9875    0.1631  -17.8028 H   0  0  0  0  0  0  0  0  0  0  0  0
   -9.8577   -2.1184  -15.1427 H   0  0  0  0  0  0  0  0  0  0  0  0
   -8.1852   -2.7192  -15.3833 H   0  0  0  0  0  0  0  0  0  0  0  0
  -10.5659    1.3469  -11.1715 H   0  0  0  0  0  0  0  0  0  0  0  0
  -10.9059   -0.1421  -12.0388 H   0  0  0  0  0  0  0  0  0  0  0  0
   -7.6440   -1.6353  -10.9679 H   0  0  0  0  0  0  0  0  0  0  0  0
   -7.1803   -0.0098  -11.4557 H   0  0  0  0  0  0  0  0  0  0  0  0
  -10.1567    1.6085  -13.5636 H   0  0  0  0  0  0  0  0  0  0  0  0
   -8.6237    1.8238  -12.6785 H   0  0  0  0  0  0  0  0  0  0  0  0
   -7.3128   -1.4098  -13.4600 H   0  0  0  0  0  0  0  0  0  0  0  0
   -8.9426   -1.9427  -13.0594 H   0  0  0  0  0  0  0  0  0  0  0  0
   -8.8555    0.4660  -10.1102 H   0  0  0  0  0  0  0  0  0  0  0  0
  1 11  1  0  0  0  0
  1 12  1  0  0  0  0
  1 13  2  0  0  0  0
  2  3  1  0  0  0  0
  2  4  1  0  0  0  0
  3  5  1  0  0  0  0
  4 11  1  0  0  0  0
  5 11  1  0  0  0  0
  6  8  1  0  0  0  0
  6 10  1  0  0  0  0
  7  9  1  0  0  0  0
  7 10  1  0  0  0  0
  8 12  1  0  0  0  0
  9 12  1  0  0  0  0
  2 14  1  0  0  0  0
  2 15  1  0  0  0  0
  3 16  1  0  0  0  0
  3 17  1  0  0  0  0
  4 18  1  0  0  0  0
  4 19  1  0  0  0  0
  5 20  1  0  0  0  0
  5 21  1  0  0  0  0
  6 22  1  0  0  0  0
  6 23  1  0  0  0  0
  7 24  1  0  0  0  0
  7 25  1  0  0  0  0
  8 26  1  0  0  0  0
  8 27  1  0  0  0  0
  9 28  1  0  0  0  0
  9 29  1  0  0  0  0
 10 30  1  0  0  0  0
M  END
> <id>
EN300-26430

> <smiles>
Cl.O=C(N1CCCC1)N2CCNCC2

> <MDLNUMBER>
MFCD08692011

> <IUPAC Name>
1-(pyrrolidine-1-carbonyl)piperazine hydrochloride

> <CAS>
1172232-02-8

> <Purity>
95

> <URL>
https://www.enaminestore.com/catalog/EN300-26430

> <Saltdate>
Cl

> <ROCS_ShapeQuery>
amalgated

> <ROCS_TanimotoCombo>
0.869 

> <ROCS_ShapeTanimoto>
0.506 

> <ROCS_ColorTanimoto>
0.363 

> <ROCS_RefTversky>
0.464 

> <ROCS_RefColorTversky>
0.463 

> <ROCS_RefTverskyCombo>
0.927 

> <ROCS_FitTversky>
1.219 

> <ROCS_FitColorTversky>
0.627 

> <ROCS_FitTverskyCombo>
1.845 

> <ROCS_ColorScore>
-3.196

> <ROCS_Overlap>
757.596

> <ROCS_Rank>
118                 

$$$$
untitled-dbase-45543_13
  -OEChem-10092318153D

 43 45  0     0  0  0  0  0  0999 V2000
   -9.1032   -1.8015  -16.0075 C   0  0  0  0  0  0  0  0  0  0  0  0
   -9.0683   -2.6421  -17.1229 C   0  0  0  0  0  0  0  0  0  0  0  0
   -7.9009   -0.9506  -18.4033 C   0  0  0  0  0  0  0  0  0  0  0  0
   -7.9337   -0.1106  -17.2944 C   0  0  0  0  0  0  0  0  0  0  0  0
   -8.5337   -0.5372  -16.1008 C   0  0  0  0  0  0  0  0  0  0  0  0
   -8.4712   -2.2201  -18.3134 C   0  0  0  0  0  0  0  0  0  0  0  0
   -8.8941    0.5045  -13.8101 C   0  0  0  0  0  0  0  0  0  0  0  0
   -7.0675    2.2325  -19.3962 C   0  0  0  0  0  0  0  0  0  0  0  0
   -5.7309    1.6646  -18.9241 C   0  0  0  0  0  0  0  0  0  0  0  0
   -7.9716    2.2939  -18.1670 C   0  0  0  0  0  0  0  0  0  0  0  0
   -5.8753    1.4020  -17.4266 C   0  0  0  0  0  0  0  0  0  0  0  0
   -7.7519    1.6350  -15.7081 C   0  0  0  0  0  0  0  0  0  0  0  0
   -7.3823    1.2924  -17.1667 C   0  0  0  0  0  0  0  0  0  0  0  0
  -10.8023   -0.2103  -11.7992 C   0  0  0  0  0  0  0  0  0  0  0  0
   -9.3177   -2.1889  -11.3628 C   0  0  0  0  0  0  0  0  0  0  0  0
   -8.4407    0.1367  -11.0011 C   0  0  0  0  0  0  0  0  0  0  0  0
   -9.3694   -0.7393  -11.8407 C   0  0  0  0  0  0  0  0  0  0  0  0
   -8.4446    0.4769  -15.1278 N   0  0  0  0  0  0  0  0  0  0  0  0
   -9.2439    1.5404  -13.2435 O   0  0  0  0  0  0  0  0  0  0  0  0
   -8.9141   -0.7162  -13.1987 O   0  0  0  0  0  0  0  0  0  0  0  0
   -8.4312   -3.3772  -19.8079 Br  0  0  0  0  0  0  0  0  0  0  0  0
   -9.5857   -2.1579  -15.1029 H   0  0  0  0  0  0  0  0  0  0  0  0
   -9.5194   -3.6292  -17.0479 H   0  0  0  0  0  0  0  0  0  0  0  0
   -7.4333   -0.6263  -19.3277 H   0  0  0  0  0  0  0  0  0  0  0  0
   -6.9418    3.2286  -19.8321 H   0  0  0  0  0  0  0  0  0  0  0  0
   -7.5002    1.5943  -20.1730 H   0  0  0  0  0  0  0  0  0  0  0  0
   -5.5067    0.7320  -19.4570 H   0  0  0  0  0  0  0  0  0  0  0  0
   -4.9023    2.3526  -19.1302 H   0  0  0  0  0  0  0  0  0  0  0  0
   -7.9266    3.3096  -17.7561 H   0  0  0  0  0  0  0  0  0  0  0  0
   -9.0154    2.0882  -18.4220 H   0  0  0  0  0  0  0  0  0  0  0  0
   -5.3094    0.5131  -17.1177 H   0  0  0  0  0  0  0  0  0  0  0  0
   -5.4535    2.2612  -16.8843 H   0  0  0  0  0  0  0  0  0  0  0  0
   -6.8798    1.8857  -15.0876 H   0  0  0  0  0  0  0  0  0  0  0  0
   -8.4492    2.4845  -15.6478 H   0  0  0  0  0  0  0  0  0  0  0  0
  -10.8436    0.8300  -12.1415 H   0  0  0  0  0  0  0  0  0  0  0  0
  -11.4717   -0.8092  -12.4252 H   0  0  0  0  0  0  0  0  0  0  0  0
  -11.1911   -0.2141  -10.7745 H   0  0  0  0  0  0  0  0  0  0  0  0
   -8.2915   -2.5726  -11.3908 H   0  0  0  0  0  0  0  0  0  0  0  0
   -9.9080   -2.8378  -12.0199 H   0  0  0  0  0  0  0  0  0  0  0  0
   -9.6984   -2.2913  -10.3414 H   0  0  0  0  0  0  0  0  0  0  0  0
   -7.4128   -0.2426  -11.0307 H   0  0  0  0  0  0  0  0  0  0  0  0
   -8.4367    1.1734  -11.3532 H   0  0  0  0  0  0  0  0  0  0  0  0
   -8.7434    0.1278   -9.9478 H   0  0  0  0  0  0  0  0  0  0  0  0
  1  2  1  0  0  0  0
  1  5  2  0  0  0  0
  2  6  2  0  0  0  0
  3  4  2  0  0  0  0
  3  6  1  0  0  0  0
  4  5  1  0  0  0  0
  4 13  1  0  0  0  0
  5 18  1  0  0  0  0
  6 21  1  0  0  0  0
  7 18  1  0  0  0  0
  7 19  2  0  0  0  0
  7 20  1  0  0  0  0
  8  9  1  0  0  0  0
  8 10  1  0  0  0  0
  9 11  1  0  0  0  0
 10 13  1  0  0  0  0
 11 13  1  0  0  0  0
 12 13  1  0  0  0  0
 12 18  1  0  0  0  0
 14 17  1  0  0  0  0
 15 17  1  0  0  0  0
 16 17  1  0  0  0  0
 17 20  1  0  0  0  0
  1 22  1  0  0  0  0
  2 23  1  0  0  0  0
  3 24  1  0  0  0  0
  8 25  1  0  0  0  0
  8 26  1  0  0  0  0
  9 27  1  0  0  0  0
  9 28  1  0  0  0  0
 10 29  1  0  0  0  0
 10 30  1  0  0  0  0
 11 31  1  0  0  0  0
 11 32  1  0  0  0  0
 12 33  1  0  0  0  0
 12 34  1  0  0  0  0
 14 35  1  0  0  0  0
 14 36  1  0  0  0  0
 14 37  1  0  0  0  0
 15 38  1  0  0  0  0
 15 39  1  0  0  0  0
 15 40  1  0  0  0  0
 16 41  1  0  0  0  0
 16 42  1  0  0  0  0
 16 43  1  0  0  0  0
M  END
> <id>
EN300-28298775

> <smiles>
CC(C)(C)OC(=O)N1CC2(CCCC2)C=3C=C(Br)C=CC13

> <IUPAC Name>
tert-butyl 5'-bromo-1',2'-dihydrospiro[cyclopentane-1,3'-indole]-1'-carboxylate

> <CAS>
2680858-44-8

> <URL>
https://www.enaminestore.com/catalog/EN300-28298775

> <ROCS_ShapeQuery>
amalgated

> <ROCS_TanimotoCombo>
0.868 

> <ROCS_ShapeTanimoto>
0.702 

> <ROCS_ColorTanimoto>
0.167 

> <ROCS_RefTversky>
0.656 

> <ROCS_RefColorTversky>
0.267 

> <ROCS_RefTverskyCombo>
0.923 

> <ROCS_FitTversky>
1.110 

> <ROCS_FitColorTversky>
0.306 

> <ROCS_FitTverskyCombo>
1.417 

> <ROCS_ColorScore>
-1.859

> <ROCS_Overlap>
1083.790

> <ROCS_Rank>
119                 

$$$$
untitled-dbase-25847_78
  -OEChem-10092318153D

 46 48  0     1  0  0  0  0  0999 V2000
   -7.0374    1.0043  -14.5193 C   0  0  0  0  0  0  0  0  0  0  0  0
   -7.9390    1.7756  -15.1446 C   0  0  0  0  0  0  0  0  0  0  0  0
   -9.5517   -0.7508  -14.2524 C   0  0  0  0  0  0  0  0  0  0  0  0
   -8.3662    0.3335  -17.6662 C   0  0  0  0  0  0  0  0  0  0  0  0
   -7.2424    0.1206  -13.3166 C   0  0  0  0  0  0  0  0  0  0  0  0
   -7.6990    2.5389  -16.4151 C   0  0  0  0  0  0  0  0  0  0  0  0
   -5.9077    2.6403  -18.8116 C   0  0  0  0  0  0  0  0  0  0  0  0
   -5.8778    1.3884  -17.9209 C   0  0  0  0  0  0  0  0  0  0  0  0
   -7.4192    2.4218  -18.9679 C   0  0  0  0  0  0  0  0  0  0  0  0
   -9.4139   -2.3162  -16.1970 C   0  0  0  0  0  0  0  0  0  0  0  0
   -8.8462   -1.1429  -11.7388 C   0  0  0  0  0  0  0  0  0  0  0  0
   -9.4329    0.8213  -12.0991 C   0  0  0  0  0  0  0  0  0  0  0  0
   -8.3406   -2.1813  -17.2861 C   0  0  1  0  0  0  0  0  0  0  0  0
   -8.7177   -0.2349  -13.0023 C   0  0  0  0  0  0  0  0  0  0  0  0
   -7.4082    1.6068  -17.6190 C   0  0  0  0  0  0  0  0  0  0  0  0
   -8.8726   -2.6116  -18.6511 C   0  0  0  0  0  0  0  0  0  0  0  0
   -8.9446   -1.8082  -14.9176 N   0  0  0  0  0  0  0  0  0  0  0  0
   -7.7238   -0.8538  -17.3312 N   0  0  0  0  0  0  0  0  0  0  0  0
   -9.0337    0.0563  -10.9039 N   0  0  0  0  0  0  0  0  0  0  0  0
  -10.6243   -0.2562  -14.6156 O   0  0  0  0  0  0  0  0  0  0  0  0
   -9.5649    0.3981  -17.9581 O   0  0  0  0  0  0  0  0  0  0  0  0
   -5.9832    1.0476  -14.8999 H   0  0  0  0  0  0  0  0  0  0  0  0
   -8.9198    1.9140  -14.6742 H   0  0  0  0  0  0  0  0  0  0  0  0
   -6.6401   -0.8043  -13.4753 H   0  0  0  0  0  0  0  0  0  0  0  0
   -6.7831    0.5870  -12.4128 H   0  0  0  0  0  0  0  0  0  0  0  0
   -8.5895    3.1590  -16.6056 H   0  0  0  0  0  0  0  0  0  0  0  0
   -6.8646    3.2496  -16.2944 H   0  0  0  0  0  0  0  0  0  0  0  0
   -5.6442    3.5655  -18.2878 H   0  0  0  0  0  0  0  0  0  0  0  0
   -5.3223    2.5796  -19.7323 H   0  0  0  0  0  0  0  0  0  0  0  0
   -5.6585    0.4686  -18.4776 H   0  0  0  0  0  0  0  0  0  0  0  0
   -5.1988    1.4400  -17.0645 H   0  0  0  0  0  0  0  0  0  0  0  0
   -8.0190    3.3352  -18.9887 H   0  0  0  0  0  0  0  0  0  0  0  0
   -7.6719    1.8250  -19.8529 H   0  0  0  0  0  0  0  0  0  0  0  0
  -10.3338   -1.7977  -16.4910 H   0  0  0  0  0  0  0  0  0  0  0  0
   -9.6622   -3.3730  -16.0454 H   0  0  0  0  0  0  0  0  0  0  0  0
   -9.7225   -1.8090  -11.7250 H   0  0  0  0  0  0  0  0  0  0  0  0
   -7.9659   -1.7431  -11.4741 H   0  0  0  0  0  0  0  0  0  0  0  0
   -9.0379    1.8449  -12.1361 H   0  0  0  0  0  0  0  0  0  0  0  0
  -10.5236    0.8763  -12.2357 H   0  0  0  0  0  0  0  0  0  0  0  0
   -7.5217   -2.9139  -17.0239 H   0  0  0  0  0  0  0  0  0  0  0  0
   -9.6717   -1.9413  -18.9659 H   0  0  0  0  0  0  0  0  0  0  0  0
   -9.2628   -3.6271  -18.5938 H   0  0  0  0  0  0  0  0  0  0  0  0
   -8.0712   -2.5799  -19.3884 H   0  0  0  0  0  0  0  0  0  0  0  0
   -8.1244   -2.2462  -14.5184 H   0  0  0  0  0  0  0  0  0  0  0  0
   -6.7199   -0.7934  -17.0923 H   0  0  0  0  0  0  0  0  0  0  0  0
   -9.7526   -0.0265  -10.1859 H   0  0  0  0  0  0  0  0  0  0  0  0
  1  2  2  0  0  0  0
  1  5  1  0  0  0  0
  2  6  1  0  0  0  0
  3 14  1  0  0  0  0
  3 17  1  0  0  0  0
  3 20  2  0  0  0  0
  4 15  1  0  0  0  0
  4 18  1  0  0  0  0
  4 21  2  0  0  0  0
  5 14  1  0  0  0  0
  6 15  1  0  0  0  0
  7  8  1  0  0  0  0
  7  9  1  0  0  0  0
  8 15  1  0  0  0  0
  9 15  1  0  0  0  0
 10 13  1  0  0  0  0
 10 17  1  0  0  0  0
 11 14  1  0  0  0  0
 11 19  1  0  0  0  0
 12 14  1  0  0  0  0
 12 19  1  0  0  0  0
 13 16  1  6  0  0  0
 13 18  1  0  0  0  0
  1 22  1  0  0  0  0
  2 23  1  0  0  0  0
  5 24  1  0  0  0  0
  5 25  1  0  0  0  0
  6 26  1  0  0  0  0
  6 27  1  0  0  0  0
  7 28  1  0  0  0  0
  7 29  1  0  0  0  0
  8 30  1  0  0  0  0
  8 31  1  0  0  0  0
  9 32  1  0  0  0  0
  9 33  1  0  0  0  0
 10 34  1  0  0  0  0
 10 35  1  0  0  0  0
 11 36  1  0  0  0  0
 11 37  1  0  0  0  0
 12 38  1  0  0  0  0
 12 39  1  0  0  0  0
 13 40  1  0  0  0  0
 16 41  1  0  0  0  0
 16 42  1  0  0  0  0
 16 43  1  0  0  0  0
 17 44  1  0  0  0  0
 18 45  1  0  0  0  0
 19 46  1  0  0  0  0
M  END
> <id>
EN300-6733231

> <smiles>
C[C@@H]1CNC(=O)C2(CNC2)C/C=C/CC3(CCC3)C(=O)N1.OC(=O)C(F)(F)F

> <MDLNUMBER>
MFCD31745967

> <IUPAC Name>
(6E,15R)-15-methyl-2,14,17-triazadispiro[3.4.3^{9}.6^{4}]octadec-6-ene-13,18-dione; trifluoroacetic acid

> <URL>
https://www.enaminestore.com/catalog/EN300-6733231

> <Saltdate>
OC(=O)C(F)(F)F

> <ROCS_ShapeQuery>
amalgated

> <ROCS_TanimotoCombo>
0.868 

> <ROCS_ShapeTanimoto>
0.602 

> <ROCS_ColorTanimoto>
0.266 

> <ROCS_RefTversky>
0.591 

> <ROCS_RefColorTversky>
0.447 

> <ROCS_RefTverskyCombo>
1.038 

> <ROCS_FitTversky>
1.032 

> <ROCS_FitColorTversky>
0.396 

> <ROCS_FitTverskyCombo>
1.428 

> <ROCS_ColorScore>
-3.150

> <ROCS_Overlap>
975.844

> <ROCS_Rank>
120                 

$$$$
untitled-dbase-53206_23
  -OEChem-10092318153D

 35 36  0     1  0  0  0  0  0999 V2000
   -9.4639   -1.0499  -14.8233 C   0  0  0  0  0  0  0  0  0  0  0  0
   -9.4348   -2.7759  -18.1439 C   0  0  0  0  0  0  0  0  0  0  0  0
   -9.4372   -2.7615  -16.6167 C   0  0  0  0  0  0  0  0  0  0  0  0
   -8.1105   -0.0100  -18.0009 C   0  0  1  0  0  0  0  0  0  0  0  0
   -7.4351   -1.3511  -18.1069 C   0  0  1  0  0  0  0  0  0  0  0  0
   -7.8825   -0.8374  -16.7543 C   0  0  2  0  0  0  0  0  0  0  0  0
   -9.3717   -1.2285  -11.9743 C   0  0  0  0  0  0  0  0  0  0  0  0
   -7.8969    0.8022  -12.0769 C   0  0  0  0  0  0  0  0  0  0  0  0
  -10.2609    0.9297  -12.9158 C   0  0  0  0  0  0  0  0  0  0  0  0
   -7.3198    1.2306  -18.2401 C   0  0  0  0  0  0  0  0  0  0  0  0
   -9.0301    0.0380  -12.7580 C   0  0  0  0  0  0  0  0  0  0  0  0
   -8.1000   -2.5313  -18.6942 N   0  0  0  0  0  0  0  0  0  0  0  0
   -8.9777   -1.4843  -16.0635 N   0  0  0  0  0  0  0  0  0  0  0  0
  -10.5783   -1.3220  -14.3796 O   0  0  0  0  0  0  0  0  0  0  0  0
   -8.5718   -0.3423  -14.0622 O   0  0  0  0  0  0  0  0  0  0  0  0
   -7.8769    2.3019  -17.6252 F   0  0  0  0  0  0  0  0  0  0  0  0
   -6.0533    1.1110  -17.7738 F   0  0  0  0  0  0  0  0  0  0  0  0
   -7.2378    1.5212  -19.5611 F   0  0  0  0  0  0  0  0  0  0  0  0
   -9.8299   -3.7341  -18.5183 H   0  0  0  0  0  0  0  0  0  0  0  0
  -10.1165   -1.9942  -18.5105 H   0  0  0  0  0  0  0  0  0  0  0  0
  -10.4445   -2.9274  -16.2352 H   0  0  0  0  0  0  0  0  0  0  0  0
   -8.7991   -3.5550  -16.2323 H   0  0  0  0  0  0  0  0  0  0  0  0
   -9.1227    0.0834  -18.3729 H   0  0  0  0  0  0  0  0  0  0  0  0
   -6.3425   -1.3451  -18.2757 H   0  0  0  0  0  0  0  0  0  0  0  0
   -7.0800   -0.5442  -16.0839 H   0  0  0  0  0  0  0  0  0  0  0  0
  -10.1847   -1.7799  -12.4600 H   0  0  0  0  0  0  0  0  0  0  0  0
   -8.5061   -1.8929  -11.8842 H   0  0  0  0  0  0  0  0  0  0  0  0
   -9.7247   -0.9814  -10.9665 H   0  0  0  0  0  0  0  0  0  0  0  0
   -7.6486    1.7117  -12.6359 H   0  0  0  0  0  0  0  0  0  0  0  0
   -6.9823    0.1991  -12.0466 H   0  0  0  0  0  0  0  0  0  0  0  0
   -8.1594    1.0857  -11.0525 H   0  0  0  0  0  0  0  0  0  0  0  0
  -10.0161    1.8381  -13.4779 H   0  0  0  0  0  0  0  0  0  0  0  0
  -11.0718    0.4095  -13.4358 H   0  0  0  0  0  0  0  0  0  0  0  0
  -10.6299    1.2609  -11.9383 H   0  0  0  0  0  0  0  0  0  0  0  0
   -7.5156   -3.3684  -18.5468 H   0  0  0  0  0  0  0  0  0  0  0  0
  1 13  1  0  0  0  0
  1 14  2  0  0  0  0
  1 15  1  0  0  0  0
  2  3  1  0  0  0  0
  2 12  1  0  0  0  0
  3 13  1  0  0  0  0
  4  5  1  0  0  0  0
  4  6  1  0  0  0  0
  4 10  1  6  0  0  0
  5  6  1  0  0  0  0
  5 12  1  1  0  0  0
  6 13  1  1  0  0  0
  7 11  1  0  0  0  0
  8 11  1  0  0  0  0
  9 11  1  0  0  0  0
 10 16  1  0  0  0  0
 10 17  1  0  0  0  0
 10 18  1  0  0  0  0
 11 15  1  0  0  0  0
  2 19  1  0  0  0  0
  2 20  1  0  0  0  0
  3 21  1  0  0  0  0
  3 22  1  0  0  0  0
  4 23  1  0  0  0  0
  5 24  1  0  0  0  0
  6 25  1  0  0  0  0
  7 26  1  0  0  0  0
  7 27  1  0  0  0  0
  7 28  1  0  0  0  0
  8 29  1  0  0  0  0
  8 30  1  0  0  0  0
  8 31  1  0  0  0  0
  9 32  1  0  0  0  0
  9 33  1  0  0  0  0
  9 34  1  0  0  0  0
 12 35  1  0  0  0  0
M  END
> <id>
EN300-43360374

> <smiles>
CC(C)(C)OC(=O)N1CCN[C@H]2[C@@H]([C@H]21)C(F)(F)F

> <IUPAC Name>
tert-butyl (1R,6S,7S)-7-(trifluoromethyl)-2,5-diazabicyclo[4.1.0]heptane-2-carboxylate

> <URL>
https://www.enaminestore.com/catalog/EN300-43360374

> <ROCS_ShapeQuery>
amalgated

> <ROCS_TanimotoCombo>
0.868 

> <ROCS_ShapeTanimoto>
0.564 

> <ROCS_ColorTanimoto>
0.304 

> <ROCS_RefTversky>
0.546 

> <ROCS_RefColorTversky>
0.490 

> <ROCS_RefTverskyCombo>
1.036 

> <ROCS_FitTversky>
1.063 

> <ROCS_FitColorTversky>
0.444 

> <ROCS_FitTverskyCombo>
1.507 

> <ROCS_ColorScore>
-3.450

> <ROCS_Overlap>
898.289

> <ROCS_Rank>
121                 

$$$$
untitled-dbase-53205_23
  -OEChem-10092318153D

 35 36  0     1  0  0  0  0  0999 V2000
   -9.4639   -1.0499  -14.8233 C   0  0  0  0  0  0  0  0  0  0  0  0
   -9.4348   -2.7759  -18.1439 C   0  0  0  0  0  0  0  0  0  0  0  0
   -9.4372   -2.7615  -16.6167 C   0  0  0  0  0  0  0  0  0  0  0  0
   -8.1105   -0.0100  -18.0009 C   0  0  1  0  0  0  0  0  0  0  0  0
   -7.4351   -1.3511  -18.1069 C   0  0  1  0  0  0  0  0  0  0  0  0
   -7.8825   -0.8374  -16.7543 C   0  0  2  0  0  0  0  0  0  0  0  0
   -9.3717   -1.2285  -11.9743 C   0  0  0  0  0  0  0  0  0  0  0  0
   -7.8969    0.8022  -12.0769 C   0  0  0  0  0  0  0  0  0  0  0  0
  -10.2609    0.9297  -12.9158 C   0  0  0  0  0  0  0  0  0  0  0  0
   -7.3198    1.2306  -18.2401 C   0  0  0  0  0  0  0  0  0  0  0  0
   -9.0301    0.0380  -12.7580 C   0  0  0  0  0  0  0  0  0  0  0  0
   -8.1000   -2.5313  -18.6942 N   0  0  0  0  0  0  0  0  0  0  0  0
   -8.9777   -1.4843  -16.0635 N   0  0  0  0  0  0  0  0  0  0  0  0
  -10.5783   -1.3220  -14.3796 O   0  0  0  0  0  0  0  0  0  0  0  0
   -8.5718   -0.3423  -14.0622 O   0  0  0  0  0  0  0  0  0  0  0  0
   -7.8769    2.3019  -17.6252 F   0  0  0  0  0  0  0  0  0  0  0  0
   -6.0533    1.1110  -17.7738 F   0  0  0  0  0  0  0  0  0  0  0  0
   -7.2378    1.5212  -19.5611 F   0  0  0  0  0  0  0  0  0  0  0  0
   -9.8299   -3.7341  -18.5183 H   0  0  0  0  0  0  0  0  0  0  0  0
  -10.1165   -1.9942  -18.5105 H   0  0  0  0  0  0  0  0  0  0  0  0
  -10.4445   -2.9274  -16.2352 H   0  0  0  0  0  0  0  0  0  0  0  0
   -8.7991   -3.5550  -16.2323 H   0  0  0  0  0  0  0  0  0  0  0  0
   -9.1227    0.0834  -18.3729 H   0  0  0  0  0  0  0  0  0  0  0  0
   -6.3425   -1.3451  -18.2757 H   0  0  0  0  0  0  0  0  0  0  0  0
   -7.0800   -0.5442  -16.0839 H   0  0  0  0  0  0  0  0  0  0  0  0
  -10.1847   -1.7799  -12.4600 H   0  0  0  0  0  0  0  0  0  0  0  0
   -8.5061   -1.8929  -11.8842 H   0  0  0  0  0  0  0  0  0  0  0  0
   -9.7247   -0.9814  -10.9665 H   0  0  0  0  0  0  0  0  0  0  0  0
   -7.6486    1.7117  -12.6359 H   0  0  0  0  0  0  0  0  0  0  0  0
   -6.9823    0.1991  -12.0466 H   0  0  0  0  0  0  0  0  0  0  0  0
   -8.1594    1.0857  -11.0525 H   0  0  0  0  0  0  0  0  0  0  0  0
  -10.0161    1.8381  -13.4779 H   0  0  0  0  0  0  0  0  0  0  0  0
  -11.0718    0.4095  -13.4358 H   0  0  0  0  0  0  0  0  0  0  0  0
  -10.6299    1.2609  -11.9383 H   0  0  0  0  0  0  0  0  0  0  0  0
   -7.5156   -3.3684  -18.5468 H   0  0  0  0  0  0  0  0  0  0  0  0
  1 13  1  0  0  0  0
  1 14  2  0  0  0  0
  1 15  1  0  0  0  0
  2  3  1  0  0  0  0
  2 12  1  0  0  0  0
  3 13  1  0  0  0  0
  4  5  1  0  0  0  0
  4  6  1  0  0  0  0
  4 10  1  6  0  0  0
  5  6  1  0  0  0  0
  5 12  1  1  0  0  0
  6 13  1  1  0  0  0
  7 11  1  0  0  0  0
  8 11  1  0  0  0  0
  9 11  1  0  0  0  0
 10 16  1  0  0  0  0
 10 17  1  0  0  0  0
 10 18  1  0  0  0  0
 11 15  1  0  0  0  0
  2 19  1  0  0  0  0
  2 20  1  0  0  0  0
  3 21  1  0  0  0  0
  3 22  1  0  0  0  0
  4 23  1  0  0  0  0
  5 24  1  0  0  0  0
  6 25  1  0  0  0  0
  7 26  1  0  0  0  0
  7 27  1  0  0  0  0
  7 28  1  0  0  0  0
  8 29  1  0  0  0  0
  8 30  1  0  0  0  0
  8 31  1  0  0  0  0
  9 32  1  0  0  0  0
  9 33  1  0  0  0  0
  9 34  1  0  0  0  0
 12 35  1  0  0  0  0
M  END
> <id>
EN300-43360373

> <smiles>
Cl.CC(C)(C)OC(=O)N1CCN[C@H]2[C@@H]([C@H]21)C(F)(F)F

> <IUPAC Name>
tert-butyl (1R,6S,7S)-7-(trifluoromethyl)-2,5-diazabicyclo[4.1.0]heptane-2-carboxylate hydrochloride

> <Purity>
95

> <URL>
https://www.enaminestore.com/catalog/EN300-43360373

> <ROCS_ShapeQuery>
amalgated

> <ROCS_TanimotoCombo>
0.868 

> <ROCS_ShapeTanimoto>
0.564 

> <ROCS_ColorTanimoto>
0.304 

> <ROCS_RefTversky>
0.546 

> <ROCS_RefColorTversky>
0.490 

> <ROCS_RefTverskyCombo>
1.036 

> <ROCS_FitTversky>
1.063 

> <ROCS_FitColorTversky>
0.444 

> <ROCS_FitTverskyCombo>
1.507 

> <ROCS_ColorScore>
-3.450

> <ROCS_Overlap>
898.289

> <ROCS_Rank>
122                 

$$$$
untitled-dbase-22118_40
  -OEChem-10092318153D

 34 34  0     1  0  0  0  0  0999 V2000
   -8.3684   -0.3271  -14.3565 C   0  0  0  0  0  0  0  0  0  0  0  0
   -8.5173   -0.6239  -18.1187 C   0  0  0  0  0  0  0  0  0  0  0  0
   -7.7817   -0.3912  -16.8029 C   0  0  0  0  0  0  0  0  0  0  0  0
   -9.5807   -1.8659  -15.8714 C   0  0  0  0  0  0  0  0  0  0  0  0
   -8.9447   -2.0861  -18.3139 C   0  0  2  0  0  0  0  0  0  0  0  0
   -9.1596   -2.8151  -16.9820 C   0  0  2  0  0  0  0  0  0  0  0  0
   -9.3447    1.0965  -12.0750 C   0  0  0  0  0  0  0  0  0  0  0  0
  -10.1283   -1.1409  -11.2447 C   0  0  0  0  0  0  0  0  0  0  0  0
   -7.6768   -0.7284  -11.6032 C   0  0  0  0  0  0  0  0  0  0  0  0
   -9.0891   -0.4099  -12.0920 C   0  0  0  0  0  0  0  0  0  0  0  0
   -8.5694   -0.8334  -15.6444 N   0  0  0  0  0  0  0  0  0  0  0  0
   -7.9363   -2.8163  -19.0866 N   0  0  0  0  0  0  0  0  0  0  0  0
   -7.5279    0.5232  -14.0698 O   0  0  0  0  0  0  0  0  0  0  0  0
   -9.2224   -0.8796  -13.4383 O   0  0  0  0  0  0  0  0  0  0  0  0
  -10.1363   -3.7496  -17.1517 F   0  0  0  0  0  0  0  0  0  0  0  0
   -9.4122    0.0141  -18.1427 H   0  0  0  0  0  0  0  0  0  0  0  0
   -7.8871   -0.2956  -18.9565 H   0  0  0  0  0  0  0  0  0  0  0  0
   -6.8355   -0.9523  -16.7787 H   0  0  0  0  0  0  0  0  0  0  0  0
   -7.5159    0.6707  -16.7192 H   0  0  0  0  0  0  0  0  0  0  0  0
  -10.5374   -1.4002  -16.1294 H   0  0  0  0  0  0  0  0  0  0  0  0
   -9.7148   -2.4014  -14.9242 H   0  0  0  0  0  0  0  0  0  0  0  0
   -9.8849   -2.1048  -18.8852 H   0  0  0  0  0  0  0  0  0  0  0  0
   -8.2513   -3.3551  -16.6879 H   0  0  0  0  0  0  0  0  0  0  0  0
   -8.6008    1.6248  -12.6821 H   0  0  0  0  0  0  0  0  0  0  0  0
  -10.3416    1.3408  -12.4561 H   0  0  0  0  0  0  0  0  0  0  0  0
   -9.2550    1.4969  -11.0587 H   0  0  0  0  0  0  0  0  0  0  0  0
   -9.9487   -2.2220  -11.2540 H   0  0  0  0  0  0  0  0  0  0  0  0
  -11.1361   -0.9919  -11.6488 H   0  0  0  0  0  0  0  0  0  0  0  0
  -10.1169   -0.7965  -10.2055 H   0  0  0  0  0  0  0  0  0  0  0  0
   -7.4932   -1.8089  -11.6153 H   0  0  0  0  0  0  0  0  0  0  0  0
   -6.9164   -0.2417  -12.2224 H   0  0  0  0  0  0  0  0  0  0  0  0
   -7.5411   -0.4033  -10.5653 H   0  0  0  0  0  0  0  0  0  0  0  0
   -8.2576   -3.7461  -19.2112 H   0  0  0  0  0  0  0  0  0  0  0  0
   -7.8290   -2.3600  -19.9605 H   0  0  0  0  0  0  0  0  0  0  0  0
  1 11  1  0  0  0  0
  1 13  2  0  0  0  0
  1 14  1  0  0  0  0
  2  3  1  0  0  0  0
  2  5  1  0  0  0  0
  3 11  1  0  0  0  0
  4  6  1  0  0  0  0
  4 11  1  0  0  0  0
  5  6  1  0  0  0  0
  5 12  1  1  0  0  0
  6 15  1  6  0  0  0
  7 10  1  0  0  0  0
  8 10  1  0  0  0  0
  9 10  1  0  0  0  0
 10 14  1  0  0  0  0
  2 16  1  0  0  0  0
  2 17  1  0  0  0  0
  3 18  1  0  0  0  0
  3 19  1  0  0  0  0
  4 20  1  0  0  0  0
  4 21  1  0  0  0  0
  5 22  1  0  0  0  0
  6 23  1  0  0  0  0
  7 24  1  0  0  0  0
  7 25  1  0  0  0  0
  7 26  1  0  0  0  0
  8 27  1  0  0  0  0
  8 28  1  0  0  0  0
  8 29  1  0  0  0  0
  9 30  1  0  0  0  0
  9 31  1  0  0  0  0
  9 32  1  0  0  0  0
 12 33  1  0  0  0  0
 12 34  1  0  0  0  0
M  END
> <id>
EN300-7063604

> <smiles>
CC(C)(C)OC(=O)N1CC[C@@H](N)[C@H](F)C1 |&1:10,12,r|

> <MDLNUMBER>
MFCD18791211

> <IUPAC Name>
rac-tert-butyl (3R,4R)-4-amino-3-fluoropiperidine-1-carboxylate

> <CAS>
907544-16-5

> <Purity>
95

> <URL>
https://www.enaminestore.com/catalog/EN300-7063604

> <ROCS_ShapeQuery>
amalgated

> <ROCS_TanimotoCombo>
0.867 

> <ROCS_ShapeTanimoto>
0.552 

> <ROCS_ColorTanimoto>
0.315 

> <ROCS_RefTversky>
0.507 

> <ROCS_RefColorTversky>
0.417 

> <ROCS_RefTverskyCombo>
0.924 

> <ROCS_FitTversky>
1.193 

> <ROCS_FitColorTversky>
0.564 

> <ROCS_FitTverskyCombo>
1.757 

> <ROCS_ColorScore>
-2.876

> <ROCS_Overlap>
830.042

> <ROCS_Rank>
123                 

$$$$
untitled-dbase-584_7
  -OEChem-10092318153D

 40 43  0     1  0  0  0  0  0999 V2000
   -9.5399   -1.9045  -15.1849 C   0  0  0  0  0  0  0  0  0  0  0  0
   -7.7810    0.2589  -15.3025 C   0  0  0  0  0  0  0  0  0  0  0  0
   -8.9322   -1.5786  -16.4076 C   0  0  0  0  0  0  0  0  0  0  0  0
   -8.0282   -0.4876  -16.4652 C   0  0  0  0  0  0  0  0  0  0  0  0
   -9.2560   -1.1709  -14.0332 C   0  0  0  0  0  0  0  0  0  0  0  0
   -8.3993   -0.0760  -14.0976 C   0  0  0  0  0  0  0  0  0  0  0  0
   -6.5163    2.0950  -18.0543 C   0  0  0  0  0  0  0  0  0  0  0  0
   -7.5471    1.8915  -19.1469 C   0  0  0  0  0  0  0  0  0  0  0  0
   -6.0757    0.6710  -17.7478 C   0  0  0  0  0  0  0  0  0  0  0  0
   -8.3358    0.6646  -18.6966 C   0  0  0  0  0  0  0  0  0  0  0  0
   -7.0190   -1.5469  -18.4545 C   0  0  0  0  0  0  0  0  0  0  0  0
   -9.2643   -0.9782  -11.7202 C   0  0  0  0  0  0  0  0  0  0  0  0
   -9.0446    0.5050  -11.9446 C   0  0  0  0  0  0  0  0  0  0  0  0
   -9.2721   -2.2864  -17.7108 C   0  0  2  0  0  0  0  0  0  0  0  0
   -7.3730   -0.1818  -17.8154 C   0  0  0  0  0  0  0  0  0  0  0  0
  -10.0045   -3.6275  -17.5654 C   0  0  0  0  0  0  0  0  0  0  0  0
   -8.1137   -2.5078  -18.5868 N   0  0  0  0  0  0  0  0  0  0  0  0
   -9.8704   -1.5673  -12.8738 O   0  0  0  0  0  0  0  0  0  0  0  0
   -8.1152    0.7110  -13.0117 O   0  0  0  0  0  0  0  0  0  0  0  0
  -10.2570   -2.7166  -15.1242 H   0  0  0  0  0  0  0  0  0  0  0  0
   -7.1038    1.1035  -15.3129 H   0  0  0  0  0  0  0  0  0  0  0  0
   -5.6884    2.7166  -18.3801 H   0  0  0  0  0  0  0  0  0  0  0  0
   -6.9668    2.5543  -17.1787 H   0  0  0  0  0  0  0  0  0  0  0  0
   -8.1817    2.7639  -19.2638 H   0  0  0  0  0  0  0  0  0  0  0  0
   -7.0603    1.6907  -20.0978 H   0  0  0  0  0  0  0  0  0  0  0  0
   -5.3665    0.3504  -18.5212 H   0  0  0  0  0  0  0  0  0  0  0  0
   -5.5631    0.6094  -16.7819 H   0  0  0  0  0  0  0  0  0  0  0  0
   -9.2578    0.9384  -18.1791 H   0  0  0  0  0  0  0  0  0  0  0  0
   -8.6352    0.1061  -19.5896 H   0  0  0  0  0  0  0  0  0  0  0  0
   -6.5261   -1.3980  -19.4581 H   0  0  0  0  0  0  0  0  0  0  0  0
   -6.2097   -2.0428  -17.8522 H   0  0  0  0  0  0  0  0  0  0  0  0
   -8.3083   -1.4831  -11.5516 H   0  0  0  0  0  0  0  0  0  0  0  0
   -9.9087   -1.1645  -10.8523 H   0  0  0  0  0  0  0  0  0  0  0  0
   -9.9849    0.9910  -12.2233 H   0  0  0  0  0  0  0  0  0  0  0  0
   -8.6584    0.9975  -11.0434 H   0  0  0  0  0  0  0  0  0  0  0  0
   -9.9529   -1.5840  -18.2676 H   0  0  0  0  0  0  0  0  0  0  0  0
   -9.3717   -4.3302  -17.0301 H   0  0  0  0  0  0  0  0  0  0  0  0
  -10.2329   -4.0246  -18.5507 H   0  0  0  0  0  0  0  0  0  0  0  0
  -10.9279   -3.4784  -17.0123 H   0  0  0  0  0  0  0  0  0  0  0  0
   -8.4365   -2.5240  -19.5736 H   0  0  0  0  0  0  0  0  0  0  0  0
  1  3  2  0  0  0  0
  1  5  1  0  0  0  0
  2  4  2  0  0  0  0
  2  6  1  0  0  0  0
  3  4  1  0  0  0  0
  3 14  1  0  0  0  0
  4 15  1  0  0  0  0
  5  6  2  0  0  0  0
  5 18  1  0  0  0  0
  6 19  1  0  0  0  0
  7  8  1  0  0  0  0
  7  9  1  0  0  0  0
  8 10  1  0  0  0  0
  9 15  1  0  0  0  0
 10 15  1  0  0  0  0
 11 15  1  0  0  0  0
 11 17  1  0  0  0  0
 12 13  1  0  0  0  0
 12 18  1  0  0  0  0
 13 19  1  0  0  0  0
 14 16  1  0  0  0  0
 14 17  1  0  0  0  0
  1 20  1  0  0  0  0
  2 21  1  0  0  0  0
  7 22  1  0  0  0  0
  7 23  1  0  0  0  0
  8 24  1  0  0  0  0
  8 25  1  0  0  0  0
  9 26  1  0  0  0  0
  9 27  1  0  0  0  0
 10 28  1  0  0  0  0
 10 29  1  0  0  0  0
 11 30  1  0  0  0  0
 11 31  1  0  0  0  0
 12 32  1  0  0  0  0
 12 33  1  0  0  0  0
 13 34  1  0  0  0  0
 13 35  1  0  0  0  0
 14 36  1  0  0  0  0
 16 37  1  0  0  0  0
 16 38  1  0  0  0  0
 16 39  1  0  0  0  0
 17 40  1  0  0  0  0
M  END
> <id>
EN300-26291

> <smiles>
Cl.CC1NCC2(CCCC2)C=3C=C4OCCOC4=CC13

> <MDLNUMBER>
MFCD09296975

> <IUPAC Name>
6-methyl-3,6,7,8-tetrahydro-2H-spiro[[1,4]dioxino[2,3-g]isoquinoline-9,1'-cyclopentane] hydrochloride

> <CAS>
153643-98-2

> <Purity>
95

> <URL>
https://www.enaminestore.com/catalog/EN300-26291

> <Saltdate>
Cl

> <ROCS_ShapeQuery>
amalgated

> <ROCS_TanimotoCombo>
0.867 

> <ROCS_ShapeTanimoto>
0.606 

> <ROCS_ColorTanimoto>
0.262 

> <ROCS_RefTversky>
0.586 

> <ROCS_RefColorTversky>
0.442 

> <ROCS_RefTverskyCombo>
1.027 

> <ROCS_FitTversky>
1.059 

> <ROCS_FitColorTversky>
0.391 

> <ROCS_FitTverskyCombo>
1.450 

> <ROCS_ColorScore>
-3.113

> <ROCS_Overlap>
965.967

> <ROCS_Rank>
124                 

$$$$
untitled-dbase-34410_173
  -OEChem-10092318153D

 37 37  0     0  0  0  0  0  0999 V2000
   -8.4913    0.0598  -14.5318 C   0  0  0  0  0  0  0  0  0  0  0  0
   -8.8501   -2.9113  -16.8330 C   0  0  0  0  0  0  0  0  0  0  0  0
   -8.8141   -0.7109  -18.1366 C   0  0  0  0  0  0  0  0  0  0  0  0
   -9.3294   -2.0005  -15.7065 C   0  0  0  0  0  0  0  0  0  0  0  0
   -7.9814   -0.2806  -16.9340 C   0  0  0  0  0  0  0  0  0  0  0  0
   -8.9730   -2.2463  -18.2235 C   0  0  0  0  0  0  0  0  0  0  0  0
  -10.5342    0.3464  -12.5496 C   0  0  0  0  0  0  0  0  0  0  0  0
   -9.0431   -1.0392  -11.0778 C   0  0  0  0  0  0  0  0  0  0  0  0
   -8.2526    1.1948  -11.9099 C   0  0  0  0  0  0  0  0  0  0  0  0
  -10.3254   -2.5867  -18.8702 C   0  0  0  0  0  0  0  0  0  0  0  0
   -9.0905   -0.0414  -12.2329 C   0  0  0  0  0  0  0  0  0  0  0  0
   -8.5960   -0.7286  -15.6820 N   0  0  0  0  0  0  0  0  0  0  0  0
   -7.9094   -2.8014  -19.0743 N   0  0  0  0  0  0  0  0  0  0  0  0
   -8.3839    1.2846  -14.5386 O   0  0  0  0  0  0  0  0  0  0  0  0
   -8.5290   -0.6852  -13.3824 O   0  0  0  0  0  0  0  0  0  0  0  0
  -11.3223   -2.1451  -18.0928 F   0  0  0  0  0  0  0  0  0  0  0  0
  -10.4119   -2.0025  -20.0720 F   0  0  0  0  0  0  0  0  0  0  0  0
  -10.4356   -3.9132  -19.0164 F   0  0  0  0  0  0  0  0  0  0  0  0
   -7.8143   -3.2102  -16.6424 H   0  0  0  0  0  0  0  0  0  0  0  0
   -9.4474   -3.8297  -16.8157 H   0  0  0  0  0  0  0  0  0  0  0  0
   -9.8036   -0.2494  -18.0574 H   0  0  0  0  0  0  0  0  0  0  0  0
   -8.3597   -0.3214  -19.0520 H   0  0  0  0  0  0  0  0  0  0  0  0
  -10.4052   -1.8171  -15.8149 H   0  0  0  0  0  0  0  0  0  0  0  0
   -9.1877   -2.4732  -14.7259 H   0  0  0  0  0  0  0  0  0  0  0  0
   -6.9761   -0.7145  -16.9741 H   0  0  0  0  0  0  0  0  0  0  0  0
   -7.8594    0.8059  -16.9499 H   0  0  0  0  0  0  0  0  0  0  0  0
  -10.5725    1.0625  -13.3782 H   0  0  0  0  0  0  0  0  0  0  0  0
  -11.1372   -0.5275  -12.8170 H   0  0  0  0  0  0  0  0  0  0  0  0
  -11.0033    0.8412  -11.6915 H   0  0  0  0  0  0  0  0  0  0  0  0
   -8.0092   -1.3203  -10.8472 H   0  0  0  0  0  0  0  0  0  0  0  0
   -9.5636   -1.9669  -11.3417 H   0  0  0  0  0  0  0  0  0  0  0  0
   -9.5015   -0.6303  -10.1716 H   0  0  0  0  0  0  0  0  0  0  0  0
   -7.2170    0.9169  -11.6827 H   0  0  0  0  0  0  0  0  0  0  0  0
   -8.2449    1.9057  -12.7425 H   0  0  0  0  0  0  0  0  0  0  0  0
   -8.6381    1.7051  -11.0198 H   0  0  0  0  0  0  0  0  0  0  0  0
   -7.0416   -2.5881  -18.6493 H   0  0  0  0  0  0  0  0  0  0  0  0
   -8.0493   -3.7794  -19.1307 H   0  0  0  0  0  0  0  0  0  0  0  0
  1 12  1  0  0  0  0
  1 14  2  0  0  0  0
  1 15  1  0  0  0  0
  2  4  1  0  0  0  0
  2  6  1  0  0  0  0
  3  5  1  0  0  0  0
  3  6  1  0  0  0  0
  4 12  1  0  0  0  0
  5 12  1  0  0  0  0
  6 10  1  0  0  0  0
  6 13  1  0  0  0  0
  7 11  1  0  0  0  0
  8 11  1  0  0  0  0
  9 11  1  0  0  0  0
 10 16  1  0  0  0  0
 10 17  1  0  0  0  0
 10 18  1  0  0  0  0
 11 15  1  0  0  0  0
  2 19  1  0  0  0  0
  2 20  1  0  0  0  0
  3 21  1  0  0  0  0
  3 22  1  0  0  0  0
  4 23  1  0  0  0  0
  4 24  1  0  0  0  0
  5 25  1  0  0  0  0
  5 26  1  0  0  0  0
  7 27  1  0  0  0  0
  7 28  1  0  0  0  0
  7 29  1  0  0  0  0
  8 30  1  0  0  0  0
  8 31  1  0  0  0  0
  8 32  1  0  0  0  0
  9 33  1  0  0  0  0
  9 34  1  0  0  0  0
  9 35  1  0  0  0  0
 13 36  1  0  0  0  0
 13 37  1  0  0  0  0
M  END
> <id>
EN300-90508

> <smiles>
CC(C)(C)OC(=O)N1CCC(N)(CC1)C(F)(F)F

> <MDLNUMBER>
MFCD11848165

> <IUPAC Name>
tert-butyl 4-amino-4-(trifluoromethyl)piperidine-1-carboxylate

> <CAS>
1211582-61-4

> <Purity>
95

> <URL>
https://www.enaminestore.com/catalog/EN300-90508

> <ROCS_ShapeQuery>
amalgated

> <ROCS_TanimotoCombo>
0.867 

> <ROCS_ShapeTanimoto>
0.552 

> <ROCS_ColorTanimoto>
0.315 

> <ROCS_RefTversky>
0.538 

> <ROCS_RefColorTversky>
0.416 

> <ROCS_RefTverskyCombo>
0.954 

> <ROCS_FitTversky>
1.052 

> <ROCS_FitColorTversky>
0.563 

> <ROCS_FitTverskyCombo>
1.616 

> <ROCS_ColorScore>
-2.873

> <ROCS_Overlap>
884.622

> <ROCS_Rank>
125                 

$$$$
untitled-dbase-34911_3
  -OEChem-10092318153D

 35 36  0     1  0  0  0  0  0999 V2000
   -7.7940    0.3205  -18.7638 C   0  0  0  0  0  0  0  0  0  0  0  0
   -7.3559    1.5386  -18.2439 C   0  0  0  0  0  0  0  0  0  0  0  0
   -7.9000    0.8135  -15.9852 C   0  0  0  0  0  0  0  0  0  0  0  0
   -8.2693   -0.6439  -17.8854 C   0  0  0  0  0  0  0  0  0  0  0  0
   -8.3274   -0.3973  -16.5100 C   0  0  0  0  0  0  0  0  0  0  0  0
   -7.4089    1.7827  -16.8647 C   0  0  0  0  0  0  0  0  0  0  0  0
   -9.0880   -1.6365  -14.4795 C   0  0  0  0  0  0  0  0  0  0  0  0
   -9.0507   -2.6017  -16.8268 C   0  0  0  0  0  0  0  0  0  0  0  0
   -8.8446   -1.9895  -18.2241 C   0  0  2  0  0  0  0  0  0  0  0  0
   -8.1179   -1.5404  -11.7875 C   0  0  0  0  0  0  0  0  0  0  0  0
   -8.6370    0.9153  -11.8825 C   0  0  0  0  0  0  0  0  0  0  0  0
  -10.4874   -0.7647  -12.1313 C   0  0  0  0  0  0  0  0  0  0  0  0
   -9.0139   -0.4687  -12.4066 C   0  0  0  0  0  0  0  0  0  0  0  0
   -8.8502   -1.5210  -15.8416 N   0  0  0  0  0  0  0  0  0  0  0  0
   -7.9736   -2.8191  -19.0423 N   0  0  0  0  0  0  0  0  0  0  0  0
   -9.4945   -2.6413  -13.9029 O   0  0  0  0  0  0  0  0  0  0  0  0
   -8.8067   -0.4645  -13.8239 O   0  0  0  0  0  0  0  0  0  0  0  0
   -6.8654    3.2973  -16.2482 Cl  0  0  0  0  0  0  0  0  0  0  0  0
   -7.7677    0.1416  -19.8336 H   0  0  0  0  0  0  0  0  0  0  0  0
   -6.9794    2.2977  -18.9255 H   0  0  0  0  0  0  0  0  0  0  0  0
   -7.9329    1.0191  -14.9216 H   0  0  0  0  0  0  0  0  0  0  0  0
  -10.0528   -3.0309  -16.7135 H   0  0  0  0  0  0  0  0  0  0  0  0
   -8.3247   -3.3915  -16.5933 H   0  0  0  0  0  0  0  0  0  0  0  0
   -9.8147   -1.8503  -18.7159 H   0  0  0  0  0  0  0  0  0  0  0  0
   -8.3852   -2.5354  -12.1612 H   0  0  0  0  0  0  0  0  0  0  0  0
   -7.0608   -1.3588  -12.0074 H   0  0  0  0  0  0  0  0  0  0  0  0
   -8.2441   -1.5748  -10.6993 H   0  0  0  0  0  0  0  0  0  0  0  0
   -9.2774    1.6874  -12.3241 H   0  0  0  0  0  0  0  0  0  0  0  0
   -7.6083    1.1713  -12.1607 H   0  0  0  0  0  0  0  0  0  0  0  0
   -8.7260    0.9727  -10.7928 H   0  0  0  0  0  0  0  0  0  0  0  0
  -11.1303    0.0040  -12.5753 H   0  0  0  0  0  0  0  0  0  0  0  0
  -10.7851   -1.7386  -12.5332 H   0  0  0  0  0  0  0  0  0  0  0  0
  -10.6922   -0.7549  -11.0546 H   0  0  0  0  0  0  0  0  0  0  0  0
   -8.4094   -3.7033  -19.1718 H   0  0  0  0  0  0  0  0  0  0  0  0
   -7.8389   -2.3675  -19.9178 H   0  0  0  0  0  0  0  0  0  0  0  0
  1  2  1  0  0  0  0
  1  4  2  0  0  0  0
  2  6  2  0  0  0  0
  3  5  2  0  0  0  0
  3  6  1  0  0  0  0
  4  5  1  0  0  0  0
  4  9  1  0  0  0  0
  5 14  1  0  0  0  0
  6 18  1  0  0  0  0
  7 14  1  0  0  0  0
  7 16  2  0  0  0  0
  7 17  1  0  0  0  0
  8  9  1  0  0  0  0
  8 14  1  0  0  0  0
  9 15  1  0  0  0  0
 10 13  1  0  0  0  0
 11 13  1  0  0  0  0
 12 13  1  0  0  0  0
 13 17  1  0  0  0  0
  1 19  1  0  0  0  0
  2 20  1  0  0  0  0
  3 21  1  0  0  0  0
  8 22  1  0  0  0  0
  8 23  1  0  0  0  0
  9 24  1  0  0  0  0
 10 25  1  0  0  0  0
 10 26  1  0  0  0  0
 10 27  1  0  0  0  0
 11 28  1  0  0  0  0
 11 29  1  0  0  0  0
 11 30  1  0  0  0  0
 12 31  1  0  0  0  0
 12 32  1  0  0  0  0
 12 33  1  0  0  0  0
 15 34  1  0  0  0  0
 15 35  1  0  0  0  0
M  END
> <id>
EN300-6839239

> <smiles>
CC(C)(C)OC(=O)N1CC(N)C=2C=CC(Cl)=CC12

> <MDLNUMBER>
MFCD26749216

> <IUPAC Name>
tert-butyl 3-amino-6-chloro-2,3-dihydro-1H-indole-1-carboxylate

> <CAS>
1525035-31-7

> <Purity>
95

> <URL>
https://www.enaminestore.com/catalog/EN300-6839239

> <ROCS_ShapeQuery>
amalgated

> <ROCS_TanimotoCombo>
0.867 

> <ROCS_ShapeTanimoto>
0.573 

> <ROCS_ColorTanimoto>
0.294 

> <ROCS_RefTversky>
0.551 

> <ROCS_RefColorTversky>
0.425 

> <ROCS_RefTverskyCombo>
0.976 

> <ROCS_FitTversky>
1.074 

> <ROCS_FitColorTversky>
0.488 

> <ROCS_FitTverskyCombo>
1.562 

> <ROCS_ColorScore>
-2.957

> <ROCS_Overlap>
906.438

> <ROCS_Rank>
126                 

$$$$
untitled-dbase-21907_51
  -OEChem-10092318153D

 38 39  0     1  0  0  0  0  0999 V2000
   -8.7115   -1.2277  -13.9032 C   0  0  0  0  0  0  0  0  0  0  0  0
   -8.9714   -3.0430  -17.9501 C   0  0  0  0  0  0  0  0  0  0  0  0
   -9.9121   -1.5452  -16.1000 C   0  0  0  0  0  0  0  0  0  0  0  0
   -7.2131   -1.6066  -18.5798 C   0  0  0  0  0  0  0  0  0  0  0  0
   -7.5505   -1.0408  -16.1012 C   0  0  0  0  0  0  0  0  0  0  0  0
   -9.3956   -1.6446  -17.5266 C   0  0  1  0  0  0  0  0  0  0  0  0
   -8.0687   -0.8679  -17.5404 C   0  0  2  0  0  0  0  0  0  0  0  0
   -9.0146    1.1353  -12.3243 C   0  0  0  0  0  0  0  0  0  0  0  0
  -11.2813    0.2281  -11.7340 C   0  0  0  0  0  0  0  0  0  0  0  0
   -9.2166   -1.0485  -11.0895 C   0  0  0  0  0  0  0  0  0  0  0  0
   -8.2660    0.6086  -17.8832 C   0  0  0  0  0  0  0  0  0  0  0  0
   -9.8508   -0.1290  -12.1321 C   0  0  0  0  0  0  0  0  0  0  0  0
   -8.0035   -2.7677  -19.0083 N   0  0  0  0  0  0  0  0  0  0  0  0
   -8.7361   -1.2659  -15.2876 N   0  0  0  0  0  0  0  0  0  0  0  0
   -7.7300   -1.5152  -13.2217 O   0  0  0  0  0  0  0  0  0  0  0  0
   -9.9123   -0.8287  -13.3799 O   0  0  0  0  0  0  0  0  0  0  0  0
   -8.8796    0.7275  -19.0706 F   0  0  0  0  0  0  0  0  0  0  0  0
   -9.0183    1.2026  -16.9443 F   0  0  0  0  0  0  0  0  0  0  0  0
   -7.0780    1.2294  -17.9446 F   0  0  0  0  0  0  0  0  0  0  0  0
   -8.5334   -3.6282  -17.1559 H   0  0  0  0  0  0  0  0  0  0  0  0
   -9.8143   -3.5786  -18.3687 H   0  0  0  0  0  0  0  0  0  0  0  0
  -10.5856   -0.6910  -15.9874 H   0  0  0  0  0  0  0  0  0  0  0  0
  -10.4248   -2.4423  -15.7485 H   0  0  0  0  0  0  0  0  0  0  0  0
   -6.9969   -0.9670  -19.4574 H   0  0  0  0  0  0  0  0  0  0  0  0
   -6.2353   -1.9221  -18.1706 H   0  0  0  0  0  0  0  0  0  0  0  0
   -6.8847   -1.8972  -15.9638 H   0  0  0  0  0  0  0  0  0  0  0  0
   -7.0240   -0.1580  -15.7261 H   0  0  0  0  0  0  0  0  0  0  0  0
  -10.1196   -1.2508  -18.2378 H   0  0  0  0  0  0  0  0  0  0  0  0
   -7.9871    0.8832  -12.6102 H   0  0  0  0  0  0  0  0  0  0  0  0
   -9.4398    1.7870  -13.0945 H   0  0  0  0  0  0  0  0  0  0  0  0
   -8.9448    1.7038  -11.3898 H   0  0  0  0  0  0  0  0  0  0  0  0
  -11.8849   -0.6760  -11.5951 H   0  0  0  0  0  0  0  0  0  0  0  0
  -11.7725    0.8090  -12.5230 H   0  0  0  0  0  0  0  0  0  0  0  0
  -11.3094    0.8096  -10.8068 H   0  0  0  0  0  0  0  0  0  0  0  0
   -9.8162   -1.9555  -10.9515 H   0  0  0  0  0  0  0  0  0  0  0  0
   -8.2026   -1.3451  -11.3768 H   0  0  0  0  0  0  0  0  0  0  0  0
   -9.1714   -0.5559  -10.1115 H   0  0  0  0  0  0  0  0  0  0  0  0
   -7.3829   -3.5752  -19.1086 H   0  0  0  0  0  0  0  0  0  0  0  0
  1 14  1  0  0  0  0
  1 15  2  0  0  0  0
  1 16  1  0  0  0  0
  2  6  1  0  0  0  0
  2 13  1  0  0  0  0
  3  6  1  6  0  0  0
  3 14  1  0  0  0  0
  4  7  1  0  0  0  0
  4 13  1  0  0  0  0
  5  7  1  0  0  0  0
  5 14  1  0  0  0  0
  6  7  1  0  0  0  0
  7 11  1  1  0  0  0
  8 12  1  0  0  0  0
  9 12  1  0  0  0  0
 10 12  1  0  0  0  0
 11 17  1  0  0  0  0
 11 18  1  0  0  0  0
 11 19  1  0  0  0  0
 12 16  1  0  0  0  0
  2 20  1  0  0  0  0
  2 21  1  0  0  0  0
  3 22  1  0  0  0  0
  3 23  1  0  0  0  0
  4 24  1  0  0  0  0
  4 25  1  0  0  0  0
  5 26  1  0  0  0  0
  5 27  1  0  0  0  0
  6 28  1  0  0  0  0
  8 29  1  0  0  0  0
  8 30  1  0  0  0  0
  8 31  1  0  0  0  0
  9 32  1  0  0  0  0
  9 33  1  0  0  0  0
  9 34  1  0  0  0  0
 10 35  1  0  0  0  0
 10 36  1  0  0  0  0
 10 37  1  0  0  0  0
 13 38  1  0  0  0  0
M  END
> <id>
EN300-28249959

> <smiles>
Cl.CC(C)(C)OC(=O)N1C[C@@H]2CNC[C@@]2(C1)C(F)(F)F |&1:10,14,r|

> <MDLNUMBER>
MFCD34167722

> <IUPAC Name>
rac-tert-butyl (3aR,6aR)-3a-(trifluoromethyl)-octahydropyrrolo[3,4-c]pyrrole-2-carboxylate hydrochloride

> <CAS>
2648861-07-6

> <Purity>
95

> <URL>
https://www.enaminestore.com/catalog/EN300-28249959

> <ROCS_ShapeQuery>
amalgated

> <ROCS_TanimotoCombo>
0.867 

> <ROCS_ShapeTanimoto>
0.583 

> <ROCS_ColorTanimoto>
0.284 

> <ROCS_RefTversky>
0.570 

> <ROCS_RefColorTversky>
0.416 

> <ROCS_RefTverskyCombo>
0.986 

> <ROCS_FitTversky>
1.040 

> <ROCS_FitColorTversky>
0.472 

> <ROCS_FitTverskyCombo>
1.512 

> <ROCS_ColorScore>
-2.893

> <ROCS_Overlap>
939.675

> <ROCS_Rank>
127                 

$$$$
untitled-dbase-21867_51
  -OEChem-10092318153D

 38 39  0     1  0  0  0  0  0999 V2000
   -8.7115   -1.2277  -13.9032 C   0  0  0  0  0  0  0  0  0  0  0  0
   -8.9714   -3.0430  -17.9501 C   0  0  0  0  0  0  0  0  0  0  0  0
   -9.9121   -1.5452  -16.1000 C   0  0  0  0  0  0  0  0  0  0  0  0
   -7.2131   -1.6066  -18.5798 C   0  0  0  0  0  0  0  0  0  0  0  0
   -7.5505   -1.0408  -16.1012 C   0  0  0  0  0  0  0  0  0  0  0  0
   -9.3956   -1.6446  -17.5266 C   0  0  1  0  0  0  0  0  0  0  0  0
   -8.0687   -0.8679  -17.5404 C   0  0  2  0  0  0  0  0  0  0  0  0
   -9.0146    1.1353  -12.3243 C   0  0  0  0  0  0  0  0  0  0  0  0
  -11.2813    0.2281  -11.7340 C   0  0  0  0  0  0  0  0  0  0  0  0
   -9.2166   -1.0485  -11.0895 C   0  0  0  0  0  0  0  0  0  0  0  0
   -8.2660    0.6086  -17.8832 C   0  0  0  0  0  0  0  0  0  0  0  0
   -9.8508   -0.1290  -12.1321 C   0  0  0  0  0  0  0  0  0  0  0  0
   -8.0035   -2.7677  -19.0083 N   0  0  0  0  0  0  0  0  0  0  0  0
   -8.7361   -1.2659  -15.2876 N   0  0  0  0  0  0  0  0  0  0  0  0
   -7.7300   -1.5152  -13.2217 O   0  0  0  0  0  0  0  0  0  0  0  0
   -9.9123   -0.8287  -13.3799 O   0  0  0  0  0  0  0  0  0  0  0  0
   -8.8796    0.7275  -19.0706 F   0  0  0  0  0  0  0  0  0  0  0  0
   -9.0183    1.2026  -16.9443 F   0  0  0  0  0  0  0  0  0  0  0  0
   -7.0780    1.2294  -17.9446 F   0  0  0  0  0  0  0  0  0  0  0  0
   -8.5334   -3.6282  -17.1559 H   0  0  0  0  0  0  0  0  0  0  0  0
   -9.8143   -3.5786  -18.3687 H   0  0  0  0  0  0  0  0  0  0  0  0
  -10.5856   -0.6910  -15.9874 H   0  0  0  0  0  0  0  0  0  0  0  0
  -10.4248   -2.4423  -15.7485 H   0  0  0  0  0  0  0  0  0  0  0  0
   -6.9969   -0.9670  -19.4574 H   0  0  0  0  0  0  0  0  0  0  0  0
   -6.2353   -1.9221  -18.1706 H   0  0  0  0  0  0  0  0  0  0  0  0
   -6.8847   -1.8972  -15.9638 H   0  0  0  0  0  0  0  0  0  0  0  0
   -7.0240   -0.1580  -15.7261 H   0  0  0  0  0  0  0  0  0  0  0  0
  -10.1196   -1.2508  -18.2378 H   0  0  0  0  0  0  0  0  0  0  0  0
   -7.9871    0.8832  -12.6102 H   0  0  0  0  0  0  0  0  0  0  0  0
   -9.4398    1.7870  -13.0945 H   0  0  0  0  0  0  0  0  0  0  0  0
   -8.9448    1.7038  -11.3898 H   0  0  0  0  0  0  0  0  0  0  0  0
  -11.8849   -0.6760  -11.5951 H   0  0  0  0  0  0  0  0  0  0  0  0
  -11.7725    0.8090  -12.5230 H   0  0  0  0  0  0  0  0  0  0  0  0
  -11.3094    0.8096  -10.8068 H   0  0  0  0  0  0  0  0  0  0  0  0
   -9.8162   -1.9555  -10.9515 H   0  0  0  0  0  0  0  0  0  0  0  0
   -8.2026   -1.3451  -11.3768 H   0  0  0  0  0  0  0  0  0  0  0  0
   -9.1714   -0.5559  -10.1115 H   0  0  0  0  0  0  0  0  0  0  0  0
   -7.3829   -3.5752  -19.1086 H   0  0  0  0  0  0  0  0  0  0  0  0
  1 14  1  0  0  0  0
  1 15  2  0  0  0  0
  1 16  1  0  0  0  0
  2  6  1  0  0  0  0
  2 13  1  0  0  0  0
  3  6  1  6  0  0  0
  3 14  1  0  0  0  0
  4  7  1  0  0  0  0
  4 13  1  0  0  0  0
  5  7  1  0  0  0  0
  5 14  1  0  0  0  0
  6  7  1  0  0  0  0
  7 11  1  1  0  0  0
  8 12  1  0  0  0  0
  9 12  1  0  0  0  0
 10 12  1  0  0  0  0
 11 17  1  0  0  0  0
 11 18  1  0  0  0  0
 11 19  1  0  0  0  0
 12 16  1  0  0  0  0
  2 20  1  0  0  0  0
  2 21  1  0  0  0  0
  3 22  1  0  0  0  0
  3 23  1  0  0  0  0
  4 24  1  0  0  0  0
  4 25  1  0  0  0  0
  5 26  1  0  0  0  0
  5 27  1  0  0  0  0
  6 28  1  0  0  0  0
  8 29  1  0  0  0  0
  8 30  1  0  0  0  0
  8 31  1  0  0  0  0
  9 32  1  0  0  0  0
  9 33  1  0  0  0  0
  9 34  1  0  0  0  0
 10 35  1  0  0  0  0
 10 36  1  0  0  0  0
 10 37  1  0  0  0  0
 13 38  1  0  0  0  0
M  END
> <id>
EN300-24453836

> <smiles>
CC(C)(C)OC(=O)N1C[C@@H]2CNC[C@@]2(C1)C(F)(F)F |&1:9,13,r|

> <MDLNUMBER>
MFCD12198715

> <IUPAC Name>
rac-tert-butyl (3aR,6aR)-3a-(trifluoromethyl)-octahydropyrrolo[3,4-c]pyrrole-2-carboxylate

> <CAS>
2381341-20-2

> <URL>
https://www.enaminestore.com/catalog/EN300-24453836

> <ROCS_ShapeQuery>
amalgated

> <ROCS_TanimotoCombo>
0.867 

> <ROCS_ShapeTanimoto>
0.583 

> <ROCS_ColorTanimoto>
0.284 

> <ROCS_RefTversky>
0.570 

> <ROCS_RefColorTversky>
0.416 

> <ROCS_RefTverskyCombo>
0.986 

> <ROCS_FitTversky>
1.040 

> <ROCS_FitColorTversky>
0.472 

> <ROCS_FitTverskyCombo>
1.512 

> <ROCS_ColorScore>
-2.893

> <ROCS_Overlap>
939.675

> <ROCS_Rank>
128                 

$$$$
untitled-dbase-34547_11
  -OEChem-10092318153D

 37 37  0     0  0  0  0  0  0999 V2000
   -8.4461   -0.2024  -14.3907 C   0  0  0  0  0  0  0  0  0  0  0  0
   -9.0874   -2.9016  -16.9508 C   0  0  0  0  0  0  0  0  0  0  0  0
   -8.5686   -0.6564  -18.0610 C   0  0  0  0  0  0  0  0  0  0  0  0
   -9.5072   -2.0011  -15.7927 C   0  0  0  0  0  0  0  0  0  0  0  0
   -7.7870   -0.4602  -16.7667 C   0  0  0  0  0  0  0  0  0  0  0  0
   -8.9727   -2.1315  -18.2868 C   0  0  0  0  0  0  0  0  0  0  0  0
  -10.2995   -2.1876  -19.0611 C   0  0  0  0  0  0  0  0  0  0  0  0
   -9.5812    1.4161  -12.3226 C   0  0  0  0  0  0  0  0  0  0  0  0
  -10.2168   -0.7534  -11.2278 C   0  0  0  0  0  0  0  0  0  0  0  0
   -7.7947   -0.2021  -11.5986 C   0  0  0  0  0  0  0  0  0  0  0  0
   -9.2142   -0.0565  -12.1450 C   0  0  0  0  0  0  0  0  0  0  0  0
   -8.5773   -0.8800  -15.6068 N   0  0  0  0  0  0  0  0  0  0  0  0
   -7.9447   -2.8025  -19.0967 N   0  0  0  0  0  0  0  0  0  0  0  0
   -7.6783    0.7391  -14.2012 O   0  0  0  0  0  0  0  0  0  0  0  0
   -9.2791   -0.6997  -13.4229 O   0  0  0  0  0  0  0  0  0  0  0  0
   -8.1372   -3.3875  -16.7070 H   0  0  0  0  0  0  0  0  0  0  0  0
   -9.8285   -3.7017  -17.0555 H   0  0  0  0  0  0  0  0  0  0  0  0
   -9.4705   -0.0371  -18.0198 H   0  0  0  0  0  0  0  0  0  0  0  0
   -7.9755   -0.2895  -18.9035 H   0  0  0  0  0  0  0  0  0  0  0  0
  -10.5233   -1.6273  -15.9677 H   0  0  0  0  0  0  0  0  0  0  0  0
   -9.5347   -2.5573  -14.8468 H   0  0  0  0  0  0  0  0  0  0  0  0
   -6.8686   -1.0577  -16.7655 H   0  0  0  0  0  0  0  0  0  0  0  0
   -7.4847    0.5873  -16.6831 H   0  0  0  0  0  0  0  0  0  0  0  0
  -10.1969   -1.6415  -19.9945 H   0  0  0  0  0  0  0  0  0  0  0  0
  -11.0867   -1.7378  -18.4627 H   0  0  0  0  0  0  0  0  0  0  0  0
  -10.5513   -3.2229  -19.2726 H   0  0  0  0  0  0  0  0  0  0  0  0
   -8.8639    1.9199  -12.9804 H   0  0  0  0  0  0  0  0  0  0  0  0
  -10.5838    1.5336  -12.7466 H   0  0  0  0  0  0  0  0  0  0  0  0
   -9.5466    1.9461  -11.3639 H   0  0  0  0  0  0  0  0  0  0  0  0
   -9.9574   -1.8102  -11.0975 H   0  0  0  0  0  0  0  0  0  0  0  0
  -11.2227   -0.7338  -11.6626 H   0  0  0  0  0  0  0  0  0  0  0  0
  -10.2567   -0.2819  -10.2405 H   0  0  0  0  0  0  0  0  0  0  0  0
   -7.5312   -1.2583  -11.4711 H   0  0  0  0  0  0  0  0  0  0  0  0
   -7.0574    0.2602  -12.2629 H   0  0  0  0  0  0  0  0  0  0  0  0
   -7.7091    0.2596  -10.6083 H   0  0  0  0  0  0  0  0  0  0  0  0
   -7.0950   -2.7722  -18.5903 H   0  0  0  0  0  0  0  0  0  0  0  0
   -8.2399   -3.7354  -19.2445 H   0  0  0  0  0  0  0  0  0  0  0  0
  1 12  1  0  0  0  0
  1 14  2  0  0  0  0
  1 15  1  0  0  0  0
  2  4  1  0  0  0  0
  2  6  1  0  0  0  0
  3  5  1  0  0  0  0
  3  6  1  0  0  0  0
  4 12  1  0  0  0  0
  5 12  1  0  0  0  0
  6  7  1  0  0  0  0
  6 13  1  0  0  0  0
  8 11  1  0  0  0  0
  9 11  1  0  0  0  0
 10 11  1  0  0  0  0
 11 15  1  0  0  0  0
  2 16  1  0  0  0  0
  2 17  1  0  0  0  0
  3 18  1  0  0  0  0
  3 19  1  0  0  0  0
  4 20  1  0  0  0  0
  4 21  1  0  0  0  0
  5 22  1  0  0  0  0
  5 23  1  0  0  0  0
  7 24  1  0  0  0  0
  7 25  1  0  0  0  0
  7 26  1  0  0  0  0
  8 27  1  0  0  0  0
  8 28  1  0  0  0  0
  8 29  1  0  0  0  0
  9 30  1  0  0  0  0
  9 31  1  0  0  0  0
  9 32  1  0  0  0  0
 10 33  1  0  0  0  0
 10 34  1  0  0  0  0
 10 35  1  0  0  0  0
 13 36  1  0  0  0  0
 13 37  1  0  0  0  0
M  END
> <id>
EN300-108299

> <smiles>
CC(C)(C)OC(=O)N1CCC(C)(N)CC1

> <MDLNUMBER>
MFCD03265497

> <IUPAC Name>
tert-butyl 4-amino-4-methylpiperidine-1-carboxylate

> <CAS>
343788-69-2

> <Purity>
95

> <URL>
https://www.enaminestore.com/catalog/EN300-108299

> <ROCS_ShapeQuery>
amalgated

> <ROCS_TanimotoCombo>
0.866 

> <ROCS_ShapeTanimoto>
0.551 

> <ROCS_ColorTanimoto>
0.315 

> <ROCS_RefTversky>
0.505 

> <ROCS_RefColorTversky>
0.417 

> <ROCS_RefTverskyCombo>
0.922 

> <ROCS_FitTversky>
1.199 

> <ROCS_FitColorTversky>
0.564 

> <ROCS_FitTverskyCombo>
1.763 

> <ROCS_ColorScore>
-2.876

> <ROCS_Overlap>
826.774

> <ROCS_Rank>
129                 

$$$$
untitled-dbase-42359_103
  -OEChem-10092318153D

 35 36  0     1  0  0  0  0  0999 V2000
   -8.0411   -0.5998  -14.3516 C   0  0  0  0  0  0  0  0  0  0  0  0
   -9.1869   -3.0384  -16.7245 C   0  0  0  0  0  0  0  0  0  0  0  0
   -8.2537   -0.3208  -18.1367 C   0  0  0  0  0  0  0  0  0  0  0  0
   -9.5410   -1.7933  -15.9186 C   0  0  0  0  0  0  0  0  0  0  0  0
   -7.5313   -0.5308  -16.8094 C   0  0  0  0  0  0  0  0  0  0  0  0
   -9.2273   -2.8027  -18.1997 C   0  0  1  0  0  0  0  0  0  0  0  0
   -8.7584   -1.5272  -18.8606 C   0  0  2  0  0  0  0  0  0  0  0  0
   -9.6647    0.9574  -12.5808 C   0  0  0  0  0  0  0  0  0  0  0  0
  -10.0723   -1.1977  -11.3566 C   0  0  0  0  0  0  0  0  0  0  0  0
   -7.7432   -0.2715  -11.5169 C   0  0  0  0  0  0  0  0  0  0  0  0
   -9.0904   -0.4128  -12.2238 C   0  0  0  0  0  0  0  0  0  0  0  0
   -7.9766   -2.7510  -18.9604 N   0  0  0  0  0  0  0  0  0  0  0  0
   -8.3799   -0.9301  -15.6763 N   0  0  0  0  0  0  0  0  0  0  0  0
   -7.0915    0.1137  -14.0330 O   0  0  0  0  0  0  0  0  0  0  0  0
   -8.8951   -1.1543  -13.4336 O   0  0  0  0  0  0  0  0  0  0  0  0
   -8.2147   -3.4404  -16.3952 H   0  0  0  0  0  0  0  0  0  0  0  0
   -9.9204   -3.8265  -16.4915 H   0  0  0  0  0  0  0  0  0  0  0  0
   -9.1386    0.3446  -17.9480 H   0  0  0  0  0  0  0  0  0  0  0  0
   -7.6143    0.3189  -18.8097 H   0  0  0  0  0  0  0  0  0  0  0  0
  -10.3168   -1.1928  -16.4207 H   0  0  0  0  0  0  0  0  0  0  0  0
   -9.9706   -2.1045  -14.9550 H   0  0  0  0  0  0  0  0  0  0  0  0
   -6.7533   -1.3138  -16.9531 H   0  0  0  0  0  0  0  0  0  0  0  0
   -6.9657    0.3805  -16.5053 H   0  0  0  0  0  0  0  0  0  0  0  0
  -10.0508   -3.3293  -18.6861 H   0  0  0  0  0  0  0  0  0  0  0  0
   -9.3010   -1.2455  -19.7893 H   0  0  0  0  0  0  0  0  0  0  0  0
   -8.9629    1.5239  -13.2033 H   0  0  0  0  0  0  0  0  0  0  0  0
  -10.6140    0.8691  -13.1192 H   0  0  0  0  0  0  0  0  0  0  0  0
   -9.8327    1.5579  -11.6794 H   0  0  0  0  0  0  0  0  0  0  0  0
   -9.6643   -2.1815  -11.0980 H   0  0  0  0  0  0  0  0  0  0  0  0
  -11.0077   -1.3836  -11.8966 H   0  0  0  0  0  0  0  0  0  0  0  0
  -10.3073   -0.6652  -10.4293 H   0  0  0  0  0  0  0  0  0  0  0  0
   -7.3310   -1.2543  -11.2607 H   0  0  0  0  0  0  0  0  0  0  0  0
   -7.0144    0.2572  -12.1397 H   0  0  0  0  0  0  0  0  0  0  0  0
   -7.8541    0.2730  -10.5722 H   0  0  0  0  0  0  0  0  0  0  0  0
   -7.1748   -2.7243  -18.3333 H   0  0  0  0  0  0  0  0  0  0  0  0
  1 13  1  0  0  0  0
  1 14  2  0  0  0  0
  1 15  1  0  0  0  0
  2  4  1  0  0  0  0
  2  6  1  0  0  0  0
  3  5  1  0  0  0  0
  3  7  1  0  0  0  0
  4 13  1  0  0  0  0
  5 13  1  0  0  0  0
  6  7  1  0  0  0  0
  6 12  1  0  0  0  0
  7 12  1  0  0  0  0
  8 11  1  0  0  0  0
  9 11  1  0  0  0  0
 10 11  1  0  0  0  0
 11 15  1  0  0  0  0
  2 16  1  0  0  0  0
  2 17  1  0  0  0  0
  3 18  1  0  0  0  0
  3 19  1  0  0  0  0
  4 20  1  0  0  0  0
  4 21  1  0  0  0  0
  5 22  1  0  0  0  0
  5 23  1  0  0  0  0
  6 24  1  0  0  0  0
  7 25  1  0  0  0  0
  8 26  1  0  0  0  0
  8 27  1  0  0  0  0
  8 28  1  0  0  0  0
  9 29  1  0  0  0  0
  9 30  1  0  0  0  0
  9 31  1  0  0  0  0
 10 32  1  0  0  0  0
 10 33  1  0  0  0  0
 10 34  1  0  0  0  0
 12 35  1  0  0  0  0
M  END
> <id>
EN300-27702061

> <smiles>
CC(C)(C)OC(=O)N1CCC2NC2CC1

> <MDLNUMBER>
MFCD33020103

> <IUPAC Name>
tert-butyl 4,8-diazabicyclo[5.1.0]octane-4-carboxylate

> <CAS>
2580210-06-4

> <Purity>
95

> <URL>
https://www.enaminestore.com/catalog/EN300-27702061

> <ROCS_ShapeQuery>
amalgated

> <ROCS_TanimotoCombo>
0.866 

> <ROCS_ShapeTanimoto>
0.534 

> <ROCS_ColorTanimoto>
0.332 

> <ROCS_RefTversky>
0.497 

> <ROCS_RefColorTversky>
0.433 

> <ROCS_RefTverskyCombo>
0.930 

> <ROCS_FitTversky>
1.162 

> <ROCS_FitColorTversky>
0.586 

> <ROCS_FitTverskyCombo>
1.749 

> <ROCS_ColorScore>
-2.991

> <ROCS_Overlap>
814.044

> <ROCS_Rank>
130                 

$$$$
untitled-dbase-31543_34
  -OEChem-10092318153D

 37 37  0     1  0  0  0  0  0999 V2000
   -8.5792   -0.5693  -13.8707 C   0  0  0  0  0  0  0  0  0  0  0  0
   -8.7470   -0.8429  -15.0278 C   0  0  0  0  0  0  0  0  0  0  0  0
   -8.3769   -0.2421  -12.4835 C   0  0  0  0  0  0  0  0  0  0  0  0
   -9.0996   -2.6999  -16.5981 C   0  0  0  0  0  0  0  0  0  0  0  0
   -9.1941   -3.1156  -18.0629 C   0  0  0  0  0  0  0  0  0  0  0  0
   -7.9338   -1.1839  -18.7700 C   0  0  0  0  0  0  0  0  0  0  0  0
   -8.9536   -1.1786  -16.4489 C   0  0  2  0  0  0  0  0  0  0  0  0
   -7.7912   -0.6653  -17.3278 C   0  0  2  0  0  0  0  0  0  0  0  0
   -7.7162    0.8661  -17.3419 C   0  0  0  0  0  0  0  0  0  0  0  0
   -9.4838   -1.4319  -10.5703 C   0  0  0  0  0  0  0  0  0  0  0  0
   -9.9623    0.8740   -9.6970 C   0  0  0  0  0  0  0  0  0  0  0  0
  -11.5744   -0.2234  -11.2796 C   0  0  0  0  0  0  0  0  0  0  0  0
  -10.1055   -0.0725  -10.8868 C   0  0  0  0  0  0  0  0  0  0  0  0
   -8.0369   -2.6422  -18.8189 N   0  0  0  0  0  0  0  0  0  0  0  0
   -7.3822   -0.6265  -11.8870 O   0  0  0  0  0  0  0  0  0  0  0  0
   -9.3968    0.5074  -11.9870 O   0  0  0  0  0  0  0  0  0  0  0  0
   -9.9942   -3.0451  -16.0645 H   0  0  0  0  0  0  0  0  0  0  0  0
   -8.2460   -3.2096  -16.1298 H   0  0  0  0  0  0  0  0  0  0  0  0
   -9.2398   -4.2081  -18.1304 H   0  0  0  0  0  0  0  0  0  0  0  0
  -10.1190   -2.7342  -18.5122 H   0  0  0  0  0  0  0  0  0  0  0  0
   -8.8089   -0.7367  -19.2582 H   0  0  0  0  0  0  0  0  0  0  0  0
   -7.0608   -0.8803  -19.3594 H   0  0  0  0  0  0  0  0  0  0  0  0
   -9.8874   -0.7080  -16.7849 H   0  0  0  0  0  0  0  0  0  0  0  0
   -6.8410   -1.0389  -16.9191 H   0  0  0  0  0  0  0  0  0  0  0  0
   -8.6421    1.2714  -17.7413 H   0  0  0  0  0  0  0  0  0  0  0  0
   -6.8845    1.1832  -17.9653 H   0  0  0  0  0  0  0  0  0  0  0  0
   -7.5689    1.2318  -16.3291 H   0  0  0  0  0  0  0  0  0  0  0  0
   -9.5845   -2.1143  -11.4219 H   0  0  0  0  0  0  0  0  0  0  0  0
   -8.4215   -1.3415  -10.3210 H   0  0  0  0  0  0  0  0  0  0  0  0
   -9.9973   -1.9103   -9.7285 H   0  0  0  0  0  0  0  0  0  0  0  0
  -10.4070    1.8507   -9.9197 H   0  0  0  0  0  0  0  0  0  0  0  0
   -8.9060    1.0602   -9.4713 H   0  0  0  0  0  0  0  0  0  0  0  0
  -10.4427    0.4708   -8.7998 H   0  0  0  0  0  0  0  0  0  0  0  0
  -12.0206    0.7516  -11.5067 H   0  0  0  0  0  0  0  0  0  0  0  0
  -11.6935   -0.8702  -12.1549 H   0  0  0  0  0  0  0  0  0  0  0  0
  -12.1575   -0.6453  -10.4530 H   0  0  0  0  0  0  0  0  0  0  0  0
   -7.1899   -3.0481  -18.4205 H   0  0  0  0  0  0  0  0  0  0  0  0
  1  2  3  0  0  0  0
  1  3  1  0  0  0  0
  2  7  1  0  0  0  0
  3 15  2  0  0  0  0
  3 16  1  0  0  0  0
  4  5  1  0  0  0  0
  4  7  1  0  0  0  0
  5 14  1  0  0  0  0
  6  8  1  0  0  0  0
  6 14  1  0  0  0  0
  7  8  1  0  0  0  0
  8  9  1  0  0  0  0
 10 13  1  0  0  0  0
 11 13  1  0  0  0  0
 12 13  1  0  0  0  0
 13 16  1  0  0  0  0
  4 17  1  0  0  0  0
  4 18  1  0  0  0  0
  5 19  1  0  0  0  0
  5 20  1  0  0  0  0
  6 21  1  0  0  0  0
  6 22  1  0  0  0  0
  7 23  1  0  0  0  0
  8 24  1  0  0  0  0
  9 25  1  0  0  0  0
  9 26  1  0  0  0  0
  9 27  1  0  0  0  0
 10 28  1  0  0  0  0
 10 29  1  0  0  0  0
 10 30  1  0  0  0  0
 11 31  1  0  0  0  0
 11 32  1  0  0  0  0
 11 33  1  0  0  0  0
 12 34  1  0  0  0  0
 12 35  1  0  0  0  0
 12 36  1  0  0  0  0
 14 37  1  0  0  0  0
M  END
> <id>
EN300-786905

> <smiles>
CC1CNCCC1C#CC(=O)OC(C)(C)C

> <MDLNUMBER>
MFCD31463339

> <IUPAC Name>
tert-butyl 3-(3-methylpiperidin-4-yl)prop-2-ynoate

> <CAS>
2138312-80-6

> <URL>
https://www.enaminestore.com/catalog/EN300-786905

> <ROCS_ShapeQuery>
amalgated

> <ROCS_TanimotoCombo>
0.866 

> <ROCS_ShapeTanimoto>
0.587 

> <ROCS_ColorTanimoto>
0.279 

> <ROCS_RefTversky>
0.533 

> <ROCS_RefColorTversky>
0.379 

> <ROCS_RefTverskyCombo>
0.912 

> <ROCS_FitTversky>
1.211 

> <ROCS_FitColorTversky>
0.513 

> <ROCS_FitTverskyCombo>
1.724 

> <ROCS_ColorScore>
-2.616

> <ROCS_Overlap>
872.896

> <ROCS_Rank>
131                 

$$$$
untitled-dbase-51998_146
  -OEChem-10092318153D

 45 46  0     1  0  0  0  0  0999 V2000
   -8.0798    0.6456  -14.8196 C   0  0  0  0  0  0  0  0  0  0  0  0
   -9.4914   -1.4413  -17.6588 C   0  0  0  0  0  0  0  0  0  0  0  0
   -8.2961    1.6703  -18.1457 C   0  0  0  0  0  0  0  0  0  0  0  0
   -6.1336    1.2971  -16.9887 C   0  0  0  0  0  0  0  0  0  0  0  0
   -7.1721   -0.6571  -18.2025 C   0  0  0  0  0  0  0  0  0  0  0  0
   -9.5513   -0.5579  -16.4174 C   0  0  0  0  0  0  0  0  0  0  0  0
   -7.5030    2.3076  -19.2891 C   0  0  0  0  0  0  0  0  0  0  0  0
   -5.4378    1.8590  -18.2273 C   0  0  0  0  0  0  0  0  0  0  0  0
   -8.0580   -1.8782  -17.9146 C   0  0  2  0  0  0  0  0  0  0  0  0
   -7.4880    0.6118  -17.3338 C   0  0  0  0  0  0  0  0  0  0  0  0
   -8.1170    1.3528  -12.0382 C   0  0  0  0  0  0  0  0  0  0  0  0
   -9.9738   -0.3255  -11.8253 C   0  0  0  0  0  0  0  0  0  0  0  0
   -7.6878   -1.0743  -12.5477 C   0  0  0  0  0  0  0  0  0  0  0  0
   -8.7113    0.0593  -12.5937 C   0  0  0  0  0  0  0  0  0  0  0  0
   -8.3159    0.2029  -16.1397 N   0  0  0  0  0  0  0  0  0  0  0  0
   -7.9806   -2.8272  -19.0246 N   0  0  0  0  0  0  0  0  0  0  0  0
   -7.1057    1.2846  -14.4335 O   0  0  0  0  0  0  0  0  0  0  0  0
   -6.2647    2.8466  -18.8380 O   0  0  0  0  0  0  0  0  0  0  0  0
   -9.0871    0.2796  -13.9587 O   0  0  0  0  0  0  0  0  0  0  0  0
  -10.1351   -2.3125  -17.5063 H   0  0  0  0  0  0  0  0  0  0  0  0
   -9.8925   -0.8892  -18.5148 H   0  0  0  0  0  0  0  0  0  0  0  0
   -8.6006    2.5121  -17.5119 H   0  0  0  0  0  0  0  0  0  0  0  0
   -9.2309    1.2340  -18.5370 H   0  0  0  0  0  0  0  0  0  0  0  0
   -5.4638    0.6103  -16.4694 H   0  0  0  0  0  0  0  0  0  0  0  0
   -6.3246    2.1383  -16.3167 H   0  0  0  0  0  0  0  0  0  0  0  0
   -6.1249   -0.9608  -18.0887 H   0  0  0  0  0  0  0  0  0  0  0  0
   -7.2863   -0.3937  -19.2658 H   0  0  0  0  0  0  0  0  0  0  0  0
  -10.4009    0.1146  -16.5306 H   0  0  0  0  0  0  0  0  0  0  0  0
   -9.7398   -1.1733  -15.5347 H   0  0  0  0  0  0  0  0  0  0  0  0
   -7.3225    1.6052  -20.1178 H   0  0  0  0  0  0  0  0  0  0  0  0
   -8.0858    3.1381  -19.7159 H   0  0  0  0  0  0  0  0  0  0  0  0
   -4.5089    2.3449  -17.9320 H   0  0  0  0  0  0  0  0  0  0  0  0
   -5.1909    1.0849  -18.9511 H   0  0  0  0  0  0  0  0  0  0  0  0
   -7.6638   -2.4046  -17.0096 H   0  0  0  0  0  0  0  0  0  0  0  0
   -7.2107    1.6324  -12.5871 H   0  0  0  0  0  0  0  0  0  0  0  0
   -8.8294    2.1821  -12.0977 H   0  0  0  0  0  0  0  0  0  0  0  0
   -7.8181    1.2277  -10.9912 H   0  0  0  0  0  0  0  0  0  0  0  0
  -10.4035   -1.2530  -12.2206 H   0  0  0  0  0  0  0  0  0  0  0  0
  -10.7467    0.4438  -11.9343 H   0  0  0  0  0  0  0  0  0  0  0  0
   -9.7709   -0.4644  -10.7585 H   0  0  0  0  0  0  0  0  0  0  0  0
   -8.1138   -2.0022  -12.9461 H   0  0  0  0  0  0  0  0  0  0  0  0
   -6.7899   -0.8307  -13.1248 H   0  0  0  0  0  0  0  0  0  0  0  0
   -7.3904   -1.2891  -11.5149 H   0  0  0  0  0  0  0  0  0  0  0  0
   -7.0308   -3.0876  -19.1423 H   0  0  0  0  0  0  0  0  0  0  0  0
   -8.5363   -3.6160  -18.7947 H   0  0  0  0  0  0  0  0  0  0  0  0
  1 15  1  0  0  0  0
  1 17  2  0  0  0  0
  1 19  1  0  0  0  0
  2  6  1  0  0  0  0
  2  9  1  0  0  0  0
  3  7  1  0  0  0  0
  3 10  1  0  0  0  0
  4  8  1  0  0  0  0
  4 10  1  0  0  0  0
  5  9  1  0  0  0  0
  5 10  1  0  0  0  0
  6 15  1  0  0  0  0
  7 18  1  0  0  0  0
  8 18  1  0  0  0  0
  9 16  1  0  0  0  0
 10 15  1  0  0  0  0
 11 14  1  0  0  0  0
 12 14  1  0  0  0  0
 13 14  1  0  0  0  0
 14 19  1  0  0  0  0
  2 20  1  0  0  0  0
  2 21  1  0  0  0  0
  3 22  1  0  0  0  0
  3 23  1  0  0  0  0
  4 24  1  0  0  0  0
  4 25  1  0  0  0  0
  5 26  1  0  0  0  0
  5 27  1  0  0  0  0
  6 28  1  0  0  0  0
  6 29  1  0  0  0  0
  7 30  1  0  0  0  0
  7 31  1  0  0  0  0
  8 32  1  0  0  0  0
  8 33  1  0  0  0  0
  9 34  1  0  0  0  0
 11 35  1  0  0  0  0
 11 36  1  0  0  0  0
 11 37  1  0  0  0  0
 12 38  1  0  0  0  0
 12 39  1  0  0  0  0
 12 40  1  0  0  0  0
 13 41  1  0  0  0  0
 13 42  1  0  0  0  0
 13 43  1  0  0  0  0
 16 44  1  0  0  0  0
 16 45  1  0  0  0  0
M  END
> <id>
EN300-1603763

> <smiles>
CC(C)(C)OC(=O)N1CCC(N)CC21CCOCC2

> <MDLNUMBER>
MFCD22394496

> <IUPAC Name>
tert-butyl 4-amino-9-oxa-1-azaspiro[5.5]undecane-1-carboxylate

> <CAS>
1824341-74-3

> <Purity>
95

> <URL>
https://www.enaminestore.com/catalog/EN300-1603763

> <ROCS_ShapeQuery>
amalgated

> <ROCS_TanimotoCombo>
0.865 

> <ROCS_ShapeTanimoto>
0.567 

> <ROCS_ColorTanimoto>
0.298 

> <ROCS_RefTversky>
0.552 

> <ROCS_RefColorTversky>
0.460 

> <ROCS_RefTverskyCombo>
1.012 

> <ROCS_FitTversky>
1.050 

> <ROCS_FitColorTversky>
0.460 

> <ROCS_FitTverskyCombo>
1.509 

> <ROCS_ColorScore>
-3.218

> <ROCS_Overlap>
909.352

> <ROCS_Rank>
132                 

$$$$
untitled-dbase-42519_7
  -OEChem-10092318153D

 33 35  0     0  0  0  0  0  0999 V2000
   -9.1625   -2.7102  -17.7731 C   0  0  0  0  0  0  0  0  0  0  0  0
   -7.9648   -2.1399  -18.1932 C   0  0  0  0  0  0  0  0  0  0  0  0
   -9.8197   -2.1999  -16.6558 C   0  0  0  0  0  0  0  0  0  0  0  0
   -7.4276   -1.0537  -17.5005 C   0  0  0  0  0  0  0  0  0  0  0  0
   -9.2782   -1.1173  -15.9480 C   0  0  0  0  0  0  0  0  0  0  0  0
   -8.0818   -0.5177  -16.3818 C   0  0  0  0  0  0  0  0  0  0  0  0
  -10.0115   -0.5637  -14.7499 C   0  0  0  0  0  0  0  0  0  0  0  0
   -9.9398    1.0314  -12.7767 C   0  0  0  0  0  0  0  0  0  0  0  0
   -8.1628   -0.7724  -13.0040 C   0  0  0  0  0  0  0  0  0  0  0  0
  -10.2768    0.2212  -11.5276 C   0  0  0  0  0  0  0  0  0  0  0  0
   -7.8777   -0.2899  -11.5829 C   0  0  0  0  0  0  0  0  0  0  0  0
   -8.2469    1.2113  -14.6270 C   0  0  0  0  0  0  0  0  0  0  0  0
   -9.0803    0.2172  -13.7830 C   0  0  0  0  0  0  0  0  0  0  0  0
   -7.5196    0.5482  -15.6944 N   0  0  0  0  0  0  0  0  0  0  0  0
   -9.0932   -0.1920  -10.7740 N   0  0  0  0  0  0  0  0  0  0  0  0
   -9.5856   -3.5498  -18.3165 H   0  0  0  0  0  0  0  0  0  0  0  0
   -7.4465   -2.5403  -19.0596 H   0  0  0  0  0  0  0  0  0  0  0  0
  -10.7597   -2.6463  -16.3418 H   0  0  0  0  0  0  0  0  0  0  0  0
   -6.4849   -0.6289  -17.8390 H   0  0  0  0  0  0  0  0  0  0  0  0
  -10.8378    0.0682  -15.0900 H   0  0  0  0  0  0  0  0  0  0  0  0
  -10.4567   -1.4178  -14.2236 H   0  0  0  0  0  0  0  0  0  0  0  0
  -10.8675    1.3765  -13.2351 H   0  0  0  0  0  0  0  0  0  0  0  0
   -9.3863    1.9249  -12.4733 H   0  0  0  0  0  0  0  0  0  0  0  0
   -7.2137   -0.8811  -13.5372 H   0  0  0  0  0  0  0  0  0  0  0  0
   -8.6202   -1.7635  -12.9674 H   0  0  0  0  0  0  0  0  0  0  0  0
  -10.9147    0.8288  -10.8653 H   0  0  0  0  0  0  0  0  0  0  0  0
  -10.8836   -0.6632  -11.7818 H   0  0  0  0  0  0  0  0  0  0  0  0
   -7.1465   -0.9440  -11.0840 H   0  0  0  0  0  0  0  0  0  0  0  0
   -7.4069    0.7035  -11.6262 H   0  0  0  0  0  0  0  0  0  0  0  0
   -8.8928    1.9820  -15.0669 H   0  0  0  0  0  0  0  0  0  0  0  0
   -7.5257    1.7376  -13.9864 H   0  0  0  0  0  0  0  0  0  0  0  0
   -6.5172    0.7027  -15.7692 H   0  0  0  0  0  0  0  0  0  0  0  0
   -8.9308    0.4880  -10.0182 H   0  0  0  0  0  0  0  0  0  0  0  0
  1  2  2  0  0  0  0
  1  3  1  0  0  0  0
  2  4  1  0  0  0  0
  3  5  2  0  0  0  0
  4  6  2  0  0  0  0
  5  6  1  0  0  0  0
  5  7  1  0  0  0  0
  6 14  1  0  0  0  0
  7 13  1  0  0  0  0
  8 10  1  0  0  0  0
  8 13  1  0  0  0  0
  9 11  1  0  0  0  0
  9 13  1  0  0  0  0
 10 15  1  0  0  0  0
 11 15  1  0  0  0  0
 12 13  1  0  0  0  0
 12 14  1  0  0  0  0
  1 16  1  0  0  0  0
  2 17  1  0  0  0  0
  3 18  1  0  0  0  0
  4 19  1  0  0  0  0
  7 20  1  0  0  0  0
  7 21  1  0  0  0  0
  8 22  1  0  0  0  0
  8 23  1  0  0  0  0
  9 24  1  0  0  0  0
  9 25  1  0  0  0  0
 10 26  1  0  0  0  0
 10 27  1  0  0  0  0
 11 28  1  0  0  0  0
 11 29  1  0  0  0  0
 12 30  1  0  0  0  0
 12 31  1  0  0  0  0
 14 32  1  0  0  0  0
 15 33  1  0  0  0  0
M  END
> <id>
EN300-7455835

> <smiles>
C1CC2(CCN1)CNC=3C=CC=CC3C2

> <MDLNUMBER>
MFCD22377085

> <IUPAC Name>
2',4'-dihydro-1'H-spiro[piperidine-4,3'-quinoline]

> <CAS>
1780579-21-6

> <URL>
https://www.enaminestore.com/catalog/EN300-7455835

> <ROCS_ShapeQuery>
amalgated

> <ROCS_TanimotoCombo>
0.865 

> <ROCS_ShapeTanimoto>
0.531 

> <ROCS_ColorTanimoto>
0.334 

> <ROCS_RefTversky>
0.500 

> <ROCS_RefColorTversky>
0.468 

> <ROCS_RefTverskyCombo>
0.968 

> <ROCS_FitTversky>
1.137 

> <ROCS_FitColorTversky>
0.537 

> <ROCS_FitTverskyCombo>
1.674 

> <ROCS_ColorScore>
-3.254

> <ROCS_Overlap>
818.775

> <ROCS_Rank>
133                 

$$$$
untitled-dbase-51486_7
  -OEChem-10092318153D

 33 35  0     0  0  0  0  0  0999 V2000
   -9.1625   -2.7102  -17.7731 C   0  0  0  0  0  0  0  0  0  0  0  0
   -7.9648   -2.1399  -18.1932 C   0  0  0  0  0  0  0  0  0  0  0  0
   -9.8197   -2.1999  -16.6558 C   0  0  0  0  0  0  0  0  0  0  0  0
   -7.4276   -1.0537  -17.5005 C   0  0  0  0  0  0  0  0  0  0  0  0
   -9.2782   -1.1173  -15.9480 C   0  0  0  0  0  0  0  0  0  0  0  0
   -8.0818   -0.5177  -16.3818 C   0  0  0  0  0  0  0  0  0  0  0  0
  -10.0115   -0.5637  -14.7499 C   0  0  0  0  0  0  0  0  0  0  0  0
   -9.9398    1.0314  -12.7767 C   0  0  0  0  0  0  0  0  0  0  0  0
   -8.1628   -0.7724  -13.0040 C   0  0  0  0  0  0  0  0  0  0  0  0
  -10.2768    0.2212  -11.5276 C   0  0  0  0  0  0  0  0  0  0  0  0
   -7.8777   -0.2899  -11.5829 C   0  0  0  0  0  0  0  0  0  0  0  0
   -8.2469    1.2113  -14.6270 C   0  0  0  0  0  0  0  0  0  0  0  0
   -9.0803    0.2172  -13.7830 C   0  0  0  0  0  0  0  0  0  0  0  0
   -7.5196    0.5482  -15.6944 N   0  0  0  0  0  0  0  0  0  0  0  0
   -9.0932   -0.1920  -10.7740 N   0  0  0  0  0  0  0  0  0  0  0  0
   -9.5856   -3.5498  -18.3165 H   0  0  0  0  0  0  0  0  0  0  0  0
   -7.4465   -2.5403  -19.0596 H   0  0  0  0  0  0  0  0  0  0  0  0
  -10.7597   -2.6463  -16.3418 H   0  0  0  0  0  0  0  0  0  0  0  0
   -6.4849   -0.6289  -17.8390 H   0  0  0  0  0  0  0  0  0  0  0  0
  -10.8378    0.0682  -15.0900 H   0  0  0  0  0  0  0  0  0  0  0  0
  -10.4567   -1.4178  -14.2236 H   0  0  0  0  0  0  0  0  0  0  0  0
  -10.8675    1.3765  -13.2351 H   0  0  0  0  0  0  0  0  0  0  0  0
   -9.3863    1.9249  -12.4733 H   0  0  0  0  0  0  0  0  0  0  0  0
   -7.2137   -0.8811  -13.5372 H   0  0  0  0  0  0  0  0  0  0  0  0
   -8.6202   -1.7635  -12.9674 H   0  0  0  0  0  0  0  0  0  0  0  0
  -10.9147    0.8288  -10.8653 H   0  0  0  0  0  0  0  0  0  0  0  0
  -10.8836   -0.6632  -11.7818 H   0  0  0  0  0  0  0  0  0  0  0  0
   -7.1465   -0.9440  -11.0840 H   0  0  0  0  0  0  0  0  0  0  0  0
   -7.4069    0.7035  -11.6262 H   0  0  0  0  0  0  0  0  0  0  0  0
   -8.8928    1.9820  -15.0669 H   0  0  0  0  0  0  0  0  0  0  0  0
   -7.5257    1.7376  -13.9864 H   0  0  0  0  0  0  0  0  0  0  0  0
   -6.5172    0.7027  -15.7692 H   0  0  0  0  0  0  0  0  0  0  0  0
   -8.9308    0.4880  -10.0182 H   0  0  0  0  0  0  0  0  0  0  0  0
  1  2  2  0  0  0  0
  1  3  1  0  0  0  0
  2  4  1  0  0  0  0
  3  5  2  0  0  0  0
  4  6  2  0  0  0  0
  5  6  1  0  0  0  0
  5  7  1  0  0  0  0
  6 14  1  0  0  0  0
  7 13  1  0  0  0  0
  8 10  1  0  0  0  0
  8 13  1  0  0  0  0
  9 11  1  0  0  0  0
  9 13  1  0  0  0  0
 10 15  1  0  0  0  0
 11 15  1  0  0  0  0
 12 13  1  0  0  0  0
 12 14  1  0  0  0  0
  1 16  1  0  0  0  0
  2 17  1  0  0  0  0
  3 18  1  0  0  0  0
  4 19  1  0  0  0  0
  7 20  1  0  0  0  0
  7 21  1  0  0  0  0
  8 22  1  0  0  0  0
  8 23  1  0  0  0  0
  9 24  1  0  0  0  0
  9 25  1  0  0  0  0
 10 26  1  0  0  0  0
 10 27  1  0  0  0  0
 11 28  1  0  0  0  0
 11 29  1  0  0  0  0
 12 30  1  0  0  0  0
 12 31  1  0  0  0  0
 14 32  1  0  0  0  0
 15 33  1  0  0  0  0
M  END
> <id>
EN300-39926511

> <smiles>
Cl.Cl.C1CC2(CCN1)CNC=3C=CC=CC3C2

> <IUPAC Name>
2',4'-dihydro-1'H-spiro[piperidine-4,3'-quinoline] dihydrochloride

> <CAS>
2901081-87-4

> <Purity>
95

> <URL>
https://www.enaminestore.com/catalog/EN300-39926511

> <Saltdate>
Cl

> <ROCS_ShapeQuery>
amalgated

> <ROCS_TanimotoCombo>
0.865 

> <ROCS_ShapeTanimoto>
0.531 

> <ROCS_ColorTanimoto>
0.334 

> <ROCS_RefTversky>
0.500 

> <ROCS_RefColorTversky>
0.468 

> <ROCS_RefTverskyCombo>
0.968 

> <ROCS_FitTversky>
1.137 

> <ROCS_FitColorTversky>
0.537 

> <ROCS_FitTverskyCombo>
1.674 

> <ROCS_ColorScore>
-3.254

> <ROCS_Overlap>
818.775

> <ROCS_Rank>
134                 

$$$$
untitled-dbase-7921_98
  -OEChem-10092318153D

 27 28  0     0  0  0  0  0  0999 V2000
   -8.7292   -0.6632  -14.0417 C   0  0  0  0  0  0  0  0  0  0  0  0
   -9.6296   -2.4436  -17.1369 C   0  0  0  0  0  0  0  0  0  0  0  0
   -7.8416   -0.6942  -17.6223 C   0  0  0  0  0  0  0  0  0  0  0  0
   -8.2516   -0.4348  -11.8312 C   0  0  0  0  0  0  0  0  0  0  0  0
   -8.9813   -2.4006  -15.7566 C   0  0  0  0  0  0  0  0  0  0  0  0
   -8.4562   -0.0282  -16.3957 C   0  0  0  0  0  0  0  0  0  0  0  0
   -9.6783    0.0826  -11.8339 C   0  0  0  0  0  0  0  0  0  0  0  0
   -8.7691   -1.7662  -18.2128 C   0  0  0  0  0  0  0  0  0  0  0  0
   -7.9651   -1.1256  -13.1035 N   0  0  0  0  0  0  0  0  0  0  0  0
   -8.7231   -1.0175  -15.3489 N   0  0  0  0  0  0  0  0  0  0  0  0
   -7.9770   -2.7565  -18.9447 N   0  0  0  0  0  0  0  0  0  0  0  0
   -9.9201    0.5358  -13.5584 S   0  0  0  0  0  0  0  0  0  0  0  0
   -9.8221   -3.4958  -17.4108 H   0  0  0  0  0  0  0  0  0  0  0  0
  -10.6183   -1.9574  -17.0876 H   0  0  0  0  0  0  0  0  0  0  0  0
   -7.6241    0.0722  -18.3799 H   0  0  0  0  0  0  0  0  0  0  0  0
   -6.8745   -1.1402  -17.3441 H   0  0  0  0  0  0  0  0  0  0  0  0
   -7.5331    0.3842  -11.7005 H   0  0  0  0  0  0  0  0  0  0  0  0
   -8.1059   -1.1282  -10.9960 H   0  0  0  0  0  0  0  0  0  0  0  0
   -9.6363   -2.8765  -15.0135 H   0  0  0  0  0  0  0  0  0  0  0  0
   -8.0511   -2.9848  -15.7770 H   0  0  0  0  0  0  0  0  0  0  0  0
   -7.7772    0.7553  -16.0324 H   0  0  0  0  0  0  0  0  0  0  0  0
   -9.3977    0.4706  -16.6649 H   0  0  0  0  0  0  0  0  0  0  0  0
  -10.3837   -0.7119  -11.5711 H   0  0  0  0  0  0  0  0  0  0  0  0
   -9.8180    0.9287  -11.1566 H   0  0  0  0  0  0  0  0  0  0  0  0
   -9.4392   -1.2797  -18.9461 H   0  0  0  0  0  0  0  0  0  0  0  0
   -7.0186   -2.5200  -18.8463 H   0  0  0  0  0  0  0  0  0  0  0  0
   -8.1609   -3.6494  -18.5533 H   0  0  0  0  0  0  0  0  0  0  0  0
  1  9  2  0  0  0  0
  1 10  1  0  0  0  0
  1 12  1  0  0  0  0
  2  5  1  0  0  0  0
  2  8  1  0  0  0  0
  3  6  1  0  0  0  0
  3  8  1  0  0  0  0
  4  7  1  0  0  0  0
  4  9  1  0  0  0  0
  5 10  1  0  0  0  0
  6 10  1  0  0  0  0
  7 12  1  0  0  0  0
  8 11  1  0  0  0  0
  2 13  1  0  0  0  0
  2 14  1  0  0  0  0
  3 15  1  0  0  0  0
  3 16  1  0  0  0  0
  4 17  1  0  0  0  0
  4 18  1  0  0  0  0
  5 19  1  0  0  0  0
  5 20  1  0  0  0  0
  6 21  1  0  0  0  0
  6 22  1  0  0  0  0
  7 23  1  0  0  0  0
  7 24  1  0  0  0  0
  8 25  1  0  0  0  0
 11 26  1  0  0  0  0
 11 27  1  0  0  0  0
M  END
> <id>
EN300-265664

> <smiles>
NC1CCN(CC1)C2=NCCS2

> <MDLNUMBER>
MFCD23697243

> <IUPAC Name>
1-(4,5-dihydro-1,3-thiazol-2-yl)piperidin-4-amine

> <CAS>
1546990-93-5

> <URL>
https://www.enaminestore.com/catalog/EN300-265664

> <ROCS_ShapeQuery>
amalgated

> <ROCS_TanimotoCombo>
0.865 

> <ROCS_ShapeTanimoto>
0.460 

> <ROCS_ColorTanimoto>
0.405 

> <ROCS_RefTversky>
0.423 

> <ROCS_RefColorTversky>
0.501 

> <ROCS_RefTverskyCombo>
0.924 

> <ROCS_FitTversky>
1.233 

> <ROCS_FitColorTversky>
0.678 

> <ROCS_FitTverskyCombo>
1.910 

> <ROCS_ColorScore>
-3.457

> <ROCS_Overlap>
690.415

> <ROCS_Rank>
135                 

$$$$
untitled-dbase-18649_79
  -OEChem-10092318153D

 37 37  0     1  0  0  0  0  0999 V2000
   -8.2364   -0.4090  -14.0395 C   0  0  0  0  0  0  0  0  0  0  0  0
   -7.9371   -0.7933  -17.8387 C   0  0  0  0  0  0  0  0  0  0  0  0
  -10.1135   -2.3030  -16.0777 C   0  0  0  0  0  0  0  0  0  0  0  0
   -7.6516   -0.1841  -16.4652 C   0  0  0  0  0  0  0  0  0  0  0  0
   -9.9793   -0.8243  -15.7417 C   0  0  0  0  0  0  0  0  0  0  0  0
   -8.1862   -2.3080  -17.8177 C   0  0  1  0  0  0  0  0  0  0  0  0
   -9.6315   -2.6791  -17.4700 C   0  0  0  0  0  0  0  0  0  0  0  0
   -9.3274    1.4120  -12.1202 C   0  0  0  0  0  0  0  0  0  0  0  0
  -10.4829   -0.5946  -11.1469 C   0  0  0  0  0  0  0  0  0  0  0  0
   -7.9737   -0.4924  -11.1847 C   0  0  0  0  0  0  0  0  0  0  0  0
   -9.2582   -0.1004  -11.9136 C   0  0  0  0  0  0  0  0  0  0  0  0
   -8.6014   -0.4854  -15.3937 N   0  0  0  0  0  0  0  0  0  0  0  0
   -7.9047   -2.8355  -19.1608 N   0  0  0  0  0  0  0  0  0  0  0  0
   -7.1177   -0.0913  -13.6391 O   0  0  0  0  0  0  0  0  0  0  0  0
   -9.2666   -0.7365  -13.1967 O   0  0  0  0  0  0  0  0  0  0  0  0
   -9.7820   -4.0296  -17.5966 F   0  0  0  0  0  0  0  0  0  0  0  0
  -10.4761   -2.1214  -18.3814 F   0  0  0  0  0  0  0  0  0  0  0  0
   -8.8186   -0.2994  -18.2390 H   0  0  0  0  0  0  0  0  0  0  0  0
   -7.1155   -0.5699  -18.5112 H   0  0  0  0  0  0  0  0  0  0  0  0
   -9.5137   -2.8713  -15.3530 H   0  0  0  0  0  0  0  0  0  0  0  0
  -11.1474   -2.6427  -15.9281 H   0  0  0  0  0  0  0  0  0  0  0  0
   -6.6642   -0.5229  -16.1161 H   0  0  0  0  0  0  0  0  0  0  0  0
   -7.5694    0.9082  -16.5703 H   0  0  0  0  0  0  0  0  0  0  0  0
  -10.2840   -0.2336  -16.6139 H   0  0  0  0  0  0  0  0  0  0  0  0
  -10.6451   -0.5285  -14.9216 H   0  0  0  0  0  0  0  0  0  0  0  0
   -7.5415   -2.7643  -17.1424 H   0  0  0  0  0  0  0  0  0  0  0  0
   -8.4500    1.7708  -12.6702 H   0  0  0  0  0  0  0  0  0  0  0  0
  -10.2269    1.7029  -12.6726 H   0  0  0  0  0  0  0  0  0  0  0  0
   -9.3262    1.9385  -11.1589 H   0  0  0  0  0  0  0  0  0  0  0  0
  -10.4374   -1.6793  -10.9964 H   0  0  0  0  0  0  0  0  0  0  0  0
  -11.4018   -0.3997  -11.7117 H   0  0  0  0  0  0  0  0  0  0  0  0
  -10.5687   -0.1121  -10.1680 H   0  0  0  0  0  0  0  0  0  0  0  0
   -7.9238   -1.5772  -11.0364 H   0  0  0  0  0  0  0  0  0  0  0  0
   -7.0834   -0.1781  -11.7390 H   0  0  0  0  0  0  0  0  0  0  0  0
   -7.9393   -0.0419  -10.1862 H   0  0  0  0  0  0  0  0  0  0  0  0
   -6.9609   -2.6265  -19.3829 H   0  0  0  0  0  0  0  0  0  0  0  0
   -8.0539   -3.8160  -19.1441 H   0  0  0  0  0  0  0  0  0  0  0  0
  1 12  1  0  0  0  0
  1 14  2  0  0  0  0
  1 15  1  0  0  0  0
  2  4  1  0  0  0  0
  2  6  1  0  0  0  0
  3  5  1  0  0  0  0
  3  7  1  0  0  0  0
  4 12  1  0  0  0  0
  5 12  1  0  0  0  0
  6  7  1  0  0  0  0
  6 13  1  0  0  0  0
  7 16  1  0  0  0  0
  7 17  1  0  0  0  0
  8 11  1  0  0  0  0
  9 11  1  0  0  0  0
 10 11  1  0  0  0  0
 11 15  1  0  0  0  0
  2 18  1  0  0  0  0
  2 19  1  0  0  0  0
  3 20  1  0  0  0  0
  3 21  1  0  0  0  0
  4 22  1  0  0  0  0
  4 23  1  0  0  0  0
  5 24  1  0  0  0  0
  5 25  1  0  0  0  0
  6 26  1  0  0  0  0
  8 27  1  0  0  0  0
  8 28  1  0  0  0  0
  8 29  1  0  0  0  0
  9 30  1  0  0  0  0
  9 31  1  0  0  0  0
  9 32  1  0  0  0  0
 10 33  1  0  0  0  0
 10 34  1  0  0  0  0
 10 35  1  0  0  0  0
 13 36  1  0  0  0  0
 13 37  1  0  0  0  0
M  END
> <id>
EN300-1608720

> <smiles>
CC(C)(C)OC(=O)N1CCC(N)C(F)(F)CC1

> <MDLNUMBER>
MFCD31616158

> <IUPAC Name>
tert-butyl 5-amino-4,4-difluoroazepane-1-carboxylate

> <CAS>
2172518-29-3

> <Purity>
95

> <URL>
https://www.enaminestore.com/catalog/EN300-1608720

> <ROCS_ShapeQuery>
amalgated

> <ROCS_TanimotoCombo>
0.865 

> <ROCS_ShapeTanimoto>
0.586 

> <ROCS_ColorTanimoto>
0.279 

> <ROCS_RefTversky>
0.546 

> <ROCS_RefColorTversky>
0.379 

> <ROCS_RefTverskyCombo>
0.925 

> <ROCS_FitTversky>
1.144 

> <ROCS_FitColorTversky>
0.513 

> <ROCS_FitTverskyCombo>
1.656 

> <ROCS_ColorScore>
-2.614

> <ROCS_Overlap>
896.520

> <ROCS_Rank>
136                 

$$$$
untitled-dbase-46815_50
  -OEChem-10092318153D

 38 39  0     1  0  0  0  0  0999 V2000
   -8.8316   -1.4476  -13.7423 C   0  0  0  0  0  0  0  0  0  0  0  0
   -9.2911   -3.0966  -18.4083 C   0  0  0  0  0  0  0  0  0  0  0  0
   -7.6778   -1.3825  -18.7232 C   0  0  0  0  0  0  0  0  0  0  0  0
   -8.6635   -2.5662  -16.0044 C   0  0  0  0  0  0  0  0  0  0  0  0
   -7.7324   -0.3029  -15.6524 C   0  0  0  0  0  0  0  0  0  0  0  0
   -9.4317   -2.1087  -17.2568 C   0  0  1  0  0  0  0  0  0  0  0  0
   -8.8390   -0.8473  -17.8864 C   0  0  1  0  0  0  0  0  0  0  0  0
   -8.4777    0.2213  -16.8663 C   0  0  0  0  0  0  0  0  0  0  0  0
   -8.4102   -0.6419  -11.0285 C   0  0  0  0  0  0  0  0  0  0  0  0
   -9.8019    1.3684  -11.6039 C   0  0  0  0  0  0  0  0  0  0  0  0
  -10.8098   -0.9285  -11.7314 C   0  0  0  0  0  0  0  0  0  0  0  0
   -9.5360   -0.1039  -11.9104 C   0  0  0  0  0  0  0  0  0  0  0  0
   -7.9908   -2.7882  -19.0133 N   0  0  0  0  0  0  0  0  0  0  0  0
   -8.4378   -1.4495  -15.0832 N   0  0  0  0  0  0  0  0  0  0  0  0
   -8.9104   -2.4552  -13.0418 O   0  0  0  0  0  0  0  0  0  0  0  0
   -9.1243   -0.1921  -13.2794 O   0  0  0  0  0  0  0  0  0  0  0  0
   -9.6300    0.8063  -16.4323 F   0  0  0  0  0  0  0  0  0  0  0  0
   -7.7582    1.2041  -17.4613 F   0  0  0  0  0  0  0  0  0  0  0  0
   -9.3024   -4.1426  -18.0559 H   0  0  0  0  0  0  0  0  0  0  0  0
  -10.1048   -2.9881  -19.1426 H   0  0  0  0  0  0  0  0  0  0  0  0
   -7.5524   -0.8088  -19.6585 H   0  0  0  0  0  0  0  0  0  0  0  0
   -6.7153   -1.3222  -18.1815 H   0  0  0  0  0  0  0  0  0  0  0  0
   -9.2112   -3.3742  -15.5099 H   0  0  0  0  0  0  0  0  0  0  0  0
   -7.6782   -2.9652  -16.2690 H   0  0  0  0  0  0  0  0  0  0  0  0
   -6.7340   -0.6213  -15.9313 H   0  0  0  0  0  0  0  0  0  0  0  0
   -7.6550    0.4651  -14.8905 H   0  0  0  0  0  0  0  0  0  0  0  0
  -10.4542   -1.9481  -17.0285 H   0  0  0  0  0  0  0  0  0  0  0  0
   -9.5930   -0.4324  -18.5781 H   0  0  0  0  0  0  0  0  0  0  0  0
   -8.2163   -1.6985  -11.2455 H   0  0  0  0  0  0  0  0  0  0  0  0
   -7.4811   -0.0810  -11.1734 H   0  0  0  0  0  0  0  0  0  0  0  0
   -8.6845   -0.5893   -9.9687 H   0  0  0  0  0  0  0  0  0  0  0  0
  -10.6090    1.7586  -12.2345 H   0  0  0  0  0  0  0  0  0  0  0  0
   -8.9177    1.9783  -11.8218 H   0  0  0  0  0  0  0  0  0  0  0  0
  -10.0774    1.5194  -10.5552 H   0  0  0  0  0  0  0  0  0  0  0  0
  -11.6175   -0.5428  -12.3639 H   0  0  0  0  0  0  0  0  0  0  0  0
  -10.6472   -1.9817  -11.9826 H   0  0  0  0  0  0  0  0  0  0  0  0
  -11.1708   -0.8687  -10.6983 H   0  0  0  0  0  0  0  0  0  0  0  0
   -7.2599   -3.4041  -18.6283 H   0  0  0  0  0  0  0  0  0  0  0  0
  1 14  1  0  0  0  0
  1 15  2  0  0  0  0
  1 16  1  0  0  0  0
  2  6  1  0  0  0  0
  2 13  1  0  0  0  0
  3  7  1  6  0  0  0
  3 13  1  0  0  0  0
  4  6  1  6  0  0  0
  4 14  1  0  0  0  0
  5  8  1  0  0  0  0
  5 14  1  0  0  0  0
  6  7  1  0  0  0  0
  7  8  1  0  0  0  0
  8 17  1  0  0  0  0
  8 18  1  0  0  0  0
  9 12  1  0  0  0  0
 10 12  1  0  0  0  0
 11 12  1  0  0  0  0
 12 16  1  0  0  0  0
  2 19  1  0  0  0  0
  2 20  1  0  0  0  0
  3 21  1  0  0  0  0
  3 22  1  0  0  0  0
  4 23  1  0  0  0  0
  4 24  1  0  0  0  0
  5 25  1  0  0  0  0
  5 26  1  0  0  0  0
  6 27  1  0  0  0  0
  7 28  1  0  0  0  0
  9 29  1  0  0  0  0
  9 30  1  0  0  0  0
  9 31  1  0  0  0  0
 10 32  1  0  0  0  0
 10 33  1  0  0  0  0
 10 34  1  0  0  0  0
 11 35  1  0  0  0  0
 11 36  1  0  0  0  0
 11 37  1  0  0  0  0
 13 38  1  0  0  0  0
M  END
> <id>
EN300-23000721

> <smiles>
CC(C)(C)OC(=O)N1C[C@@H]2CNC[C@@H]2C(F)(F)C1 |&1:9,13,r|

> <MDLNUMBER>
MFCD31942833

> <IUPAC Name>
rac-tert-butyl (3aR,7aS)-7,7-difluoro-octahydro-1H-pyrrolo[3,4-c]pyridine-5-carboxylate

> <CAS>
2489250-60-2

> <Purity>
95

> <URL>
https://www.enaminestore.com/catalog/EN300-23000721

> <ROCS_ShapeQuery>
amalgated

> <ROCS_TanimotoCombo>
0.864 

> <ROCS_ShapeTanimoto>
0.597 

> <ROCS_ColorTanimoto>
0.268 

> <ROCS_RefTversky>
0.566 

> <ROCS_RefColorTversky>
0.395 

> <ROCS_RefTverskyCombo>
0.962 

> <ROCS_FitTversky>
1.099 

> <ROCS_FitColorTversky>
0.453 

> <ROCS_FitTverskyCombo>
1.552 

> <ROCS_ColorScore>
-2.749

> <ROCS_Overlap>
932.071

> <ROCS_Rank>
137                 

$$$$
untitled-dbase-34781_13
  -OEChem-10092318153D

 45 47  0     1  0  0  0  0  0999 V2000
   -9.3091   -0.6583  -13.9654 C   0  0  0  0  0  0  0  0  0  0  0  0
   -9.9722   -4.0703  -15.7273 C   0  0  0  0  0  0  0  0  0  0  0  0
   -7.6185    1.2532  -16.5774 C   0  0  0  0  0  0  0  0  0  0  0  0
   -7.6599    0.4758  -17.8827 C   0  0  0  0  0  0  0  0  0  0  0  0
  -10.0666   -3.4694  -17.1511 C   0  0  0  0  0  0  0  0  0  0  0  0
   -8.5277   -3.5186  -15.6472 C   0  0  0  0  0  0  0  0  0  0  0  0
   -7.4753    0.3309  -15.3763 C   0  0  0  0  0  0  0  0  0  0  0  0
   -8.5894   -0.7296  -17.7945 C   0  0  2  0  0  0  0  0  0  0  0  0
   -9.2896   -1.1038  -16.4344 C   0  0  1  0  0  0  0  0  0  0  0  0
   -7.8563   -2.1086  -17.7220 C   0  0  1  0  0  0  0  0  0  0  0  0
   -8.9169   -2.5536  -16.7480 C   0  0  0  0  0  0  0  0  0  0  0  0
   -9.2596   -1.5997  -11.2647 C   0  0  0  0  0  0  0  0  0  0  0  0
   -8.4107    0.6903  -10.6775 C   0  0  0  0  0  0  0  0  0  0  0  0
  -10.6899    0.4253  -11.6990 C   0  0  0  0  0  0  0  0  0  0  0  0
   -9.2637   -0.1211  -11.6503 C   0  0  0  0  0  0  0  0  0  0  0  0
   -8.6788   -0.4922  -15.2084 N   0  0  0  0  0  0  0  0  0  0  0  0
   -7.9789   -2.7582  -19.0199 N   0  0  0  0  0  0  0  0  0  0  0  0
  -10.3175   -1.3416  -13.7967 O   0  0  0  0  0  0  0  0  0  0  0  0
   -8.6797    0.0123  -12.9510 O   0  0  0  0  0  0  0  0  0  0  0  0
  -10.6576   -3.6188  -15.0054 H   0  0  0  0  0  0  0  0  0  0  0  0
  -10.0622   -5.1566  -15.6694 H   0  0  0  0  0  0  0  0  0  0  0  0
   -6.7711    1.9567  -16.5971 H   0  0  0  0  0  0  0  0  0  0  0  0
   -8.5291    1.8659  -16.4687 H   0  0  0  0  0  0  0  0  0  0  0  0
   -7.9893    1.1409  -18.7104 H   0  0  0  0  0  0  0  0  0  0  0  0
   -6.6262    0.1687  -18.1581 H   0  0  0  0  0  0  0  0  0  0  0  0
   -9.8206   -4.1954  -17.9293 H   0  0  0  0  0  0  0  0  0  0  0  0
  -11.0142   -2.9904  -17.3934 H   0  0  0  0  0  0  0  0  0  0  0  0
   -8.2434   -3.1166  -14.6738 H   0  0  0  0  0  0  0  0  0  0  0  0
   -7.7764   -4.2615  -15.9413 H   0  0  0  0  0  0  0  0  0  0  0  0
   -6.6416   -0.3419  -15.5073 H   0  0  0  0  0  0  0  0  0  0  0  0
   -7.3153    0.9190  -14.4863 H   0  0  0  0  0  0  0  0  0  0  0  0
   -9.3318   -0.6689  -18.6298 H   0  0  0  0  0  0  0  0  0  0  0  0
  -10.3453   -0.9036  -16.4772 H   0  0  0  0  0  0  0  0  0  0  0  0
   -6.8164   -2.0698  -17.3499 H   0  0  0  0  0  0  0  0  0  0  0  0
   -9.8708   -2.1855  -11.9605 H   0  0  0  0  0  0  0  0  0  0  0  0
   -8.2456   -2.0125  -11.2602 H   0  0  0  0  0  0  0  0  0  0  0  0
   -9.6972   -1.7457  -10.2705 H   0  0  0  0  0  0  0  0  0  0  0  0
   -8.4108    1.7518  -10.9504 H   0  0  0  0  0  0  0  0  0  0  0  0
   -7.3650    0.3636  -10.7093 H   0  0  0  0  0  0  0  0  0  0  0  0
   -8.7721    0.5968   -9.6484 H   0  0  0  0  0  0  0  0  0  0  0  0
  -10.6931    1.4858  -11.9755 H   0  0  0  0  0  0  0  0  0  0  0  0
  -11.3069   -0.1216  -12.4193 H   0  0  0  0  0  0  0  0  0  0  0  0
  -11.1656    0.3612  -10.7136 H   0  0  0  0  0  0  0  0  0  0  0  0
   -7.4329   -2.2473  -19.6703 H   0  0  0  0  0  0  0  0  0  0  0  0
   -7.6450   -3.6868  -18.9292 H   0  0  0  0  0  0  0  0  0  0  0  0
  1 16  1  0  0  0  0
  1 18  2  0  0  0  0
  1 19  1  0  0  0  0
  2  5  1  0  0  0  0
  2  6  1  0  0  0  0
  3  4  1  0  0  0  0
  3  7  1  0  0  0  0
  4  8  1  0  0  0  0
  5 11  1  0  0  0  0
  6 11  1  0  0  0  0
  7 16  1  0  0  0  0
  8  9  1  0  0  0  0
  8 10  1  0  0  0  0
  9 11  1  0  0  0  0
  9 16  1  0  0  0  0
 10 11  1  0  0  0  0
 10 17  1  0  0  0  0
 12 15  1  0  0  0  0
 13 15  1  0  0  0  0
 14 15  1  0  0  0  0
 15 19  1  0  0  0  0
  2 20  1  0  0  0  0
  2 21  1  0  0  0  0
  3 22  1  0  0  0  0
  3 23  1  0  0  0  0
  4 24  1  0  0  0  0
  4 25  1  0  0  0  0
  5 26  1  0  0  0  0
  5 27  1  0  0  0  0
  6 28  1  0  0  0  0
  6 29  1  0  0  0  0
  7 30  1  0  0  0  0
  7 31  1  0  0  0  0
  8 32  1  0  0  0  0
  9 33  1  0  0  0  0
 10 34  1  0  0  0  0
 12 35  1  0  0  0  0
 12 36  1  0  0  0  0
 12 37  1  0  0  0  0
 13 38  1  0  0  0  0
 13 39  1  0  0  0  0
 13 40  1  0  0  0  0
 14 41  1  0  0  0  0
 14 42  1  0  0  0  0
 14 43  1  0  0  0  0
 17 44  1  0  0  0  0
 17 45  1  0  0  0  0
M  END
> <id>
EN300-701133

> <smiles>
CC(C)(C)OC(=O)N1CCCC2C(N)C3(CCC3)C21

> <IUPAC Name>
tert-butyl 8-amino-5-azaspiro[bicyclo[4.2.0]octane-7,1'-cyclobutane]-5-carboxylate

> <CAS>
2137623-46-0

> <URL>
https://www.enaminestore.com/catalog/EN300-701133

> <ROCS_ShapeQuery>
amalgated

> <ROCS_TanimotoCombo>
0.864 

> <ROCS_ShapeTanimoto>
0.587 

> <ROCS_ColorTanimoto>
0.277 

> <ROCS_RefTversky>
0.569 

> <ROCS_RefColorTversky>
0.436 

> <ROCS_RefTverskyCombo>
1.005 

> <ROCS_FitTversky>
1.058 

> <ROCS_FitColorTversky>
0.431 

> <ROCS_FitTverskyCombo>
1.489 

> <ROCS_ColorScore>
-3.057

> <ROCS_Overlap>
937.139

> <ROCS_Rank>
138                 

$$$$
untitled-dbase-47797_7
  -OEChem-10092318153D

 32 34  0     0  0  0  0  0  0999 V2000
   -9.7264   -2.2609  -16.4583 C   0  0  0  0  0  0  0  0  0  0  0  0
   -9.2060   -2.7130  -17.6699 C   0  0  0  0  0  0  0  0  0  0  0  0
   -7.5500   -0.9581  -17.6079 C   0  0  0  0  0  0  0  0  0  0  0  0
   -8.0727   -0.4893  -16.3946 C   0  0  0  0  0  0  0  0  0  0  0  0
   -9.1541   -1.1598  -15.8145 C   0  0  0  0  0  0  0  0  0  0  0  0
   -8.1155   -2.0640  -18.2431 C   0  0  0  0  0  0  0  0  0  0  0  0
   -7.4516    0.7013  -15.7290 C   0  0  0  0  0  0  0  0  0  0  0  0
   -8.3731    1.2542  -14.6499 C   0  0  0  0  0  0  0  0  0  0  0  0
   -7.9860   -0.6674  -12.9562 C   0  0  0  0  0  0  0  0  0  0  0  0
  -10.0646    0.7868  -12.8663 C   0  0  0  0  0  0  0  0  0  0  0  0
   -7.8381   -0.1068  -11.5446 C   0  0  0  0  0  0  0  0  0  0  0  0
  -10.2901   -0.0507  -11.6083 C   0  0  0  0  0  0  0  0  0  0  0  0
   -9.0080    0.1386  -13.7979 C   0  0  0  0  0  0  0  0  0  0  0  0
   -9.0856   -0.1468  -10.7814 N   0  0  0  0  0  0  0  0  0  0  0  0
   -9.7352   -0.7916  -14.6309 O   0  0  0  0  0  0  0  0  0  0  0  0
   -7.3994   -2.6829  -19.8786 Br  0  0  0  0  0  0  0  0  0  0  0  0
  -10.5842   -2.7674  -16.0229 H   0  0  0  0  0  0  0  0  0  0  0  0
   -9.6643   -3.5706  -18.1552 H   0  0  0  0  0  0  0  0  0  0  0  0
   -6.6931   -0.4530  -18.0495 H   0  0  0  0  0  0  0  0  0  0  0  0
   -6.4914    0.4257  -15.2728 H   0  0  0  0  0  0  0  0  0  0  0  0
   -7.2465    1.4691  -16.4866 H   0  0  0  0  0  0  0  0  0  0  0  0
   -7.7769    1.9086  -13.9933 H   0  0  0  0  0  0  0  0  0  0  0  0
   -9.1437    1.8899  -15.1101 H   0  0  0  0  0  0  0  0  0  0  0  0
   -7.0083   -0.6604  -13.4529 H   0  0  0  0  0  0  0  0  0  0  0  0
   -8.3094   -1.7118  -12.8808 H   0  0  0  0  0  0  0  0  0  0  0  0
  -11.0255    0.8879  -13.3768 H   0  0  0  0  0  0  0  0  0  0  0  0
   -9.7356    1.7913  -12.5809 H   0  0  0  0  0  0  0  0  0  0  0  0
   -7.0446   -0.6434  -10.9955 H   0  0  0  0  0  0  0  0  0  0  0  0
   -7.5019    0.9412  -11.6096 H   0  0  0  0  0  0  0  0  0  0  0  0
  -11.0878    0.4117  -11.0102 H   0  0  0  0  0  0  0  0  0  0  0  0
  -10.6465   -1.0576  -11.8729 H   0  0  0  0  0  0  0  0  0  0  0  0
   -9.1200   -1.0222  -10.2403 H   0  0  0  0  0  0  0  0  0  0  0  0
  1  2  1  0  0  0  0
  1  5  2  0  0  0  0
  2  6  2  0  0  0  0
  3  4  2  0  0  0  0
  3  6  1  0  0  0  0
  4  5  1  0  0  0  0
  4  7  1  0  0  0  0
  5 15  1  0  0  0  0
  6 16  1  0  0  0  0
  7  8  1  0  0  0  0
  8 13  1  0  0  0  0
  9 11  1  0  0  0  0
  9 13  1  0  0  0  0
 10 12  1  0  0  0  0
 10 13  1  0  0  0  0
 11 14  1  0  0  0  0
 12 14  1  0  0  0  0
 13 15  1  0  0  0  0
  1 17  1  0  0  0  0
  2 18  1  0  0  0  0
  3 19  1  0  0  0  0
  7 20  1  0  0  0  0
  7 21  1  0  0  0  0
  8 22  1  0  0  0  0
  8 23  1  0  0  0  0
  9 24  1  0  0  0  0
  9 25  1  0  0  0  0
 10 26  1  0  0  0  0
 10 27  1  0  0  0  0
 11 28  1  0  0  0  0
 11 29  1  0  0  0  0
 12 30  1  0  0  0  0
 12 31  1  0  0  0  0
 14 32  1  0  0  0  0
M  END
> <id>
EN300-299768

> <smiles>
Cl.BrC=1C=CC=2OC3(CCNCC3)CCC2C1

> <MDLNUMBER>
MFCD29991965

> <IUPAC Name>
6-bromo-3,4-dihydrospiro[1-benzopyran-2,4'-piperidine] hydrochloride

> <CAS>
1955532-03-2

> <Purity>
95

> <URL>
https://www.enaminestore.com/catalog/EN300-299768

> <Saltdate>
Cl

> <ROCS_ShapeQuery>
amalgated

> <ROCS_TanimotoCombo>
0.863 

> <ROCS_ShapeTanimoto>
0.559 

> <ROCS_ColorTanimoto>
0.304 

> <ROCS_RefTversky>
0.524 

> <ROCS_RefColorTversky>
0.467 

> <ROCS_RefTverskyCombo>
0.991 

> <ROCS_FitTversky>
1.135 

> <ROCS_FitColorTversky>
0.466 

> <ROCS_FitTverskyCombo>
1.602 

> <ROCS_ColorScore>
-3.268

> <ROCS_Overlap>
859.991

> <ROCS_Rank>
139                 

$$$$
untitled-dbase-33285_7
  -OEChem-10092318153D

 32 34  0     0  0  0  0  0  0999 V2000
   -9.7264   -2.2609  -16.4583 C   0  0  0  0  0  0  0  0  0  0  0  0
   -9.2060   -2.7130  -17.6699 C   0  0  0  0  0  0  0  0  0  0  0  0
   -7.5500   -0.9581  -17.6079 C   0  0  0  0  0  0  0  0  0  0  0  0
   -8.0727   -0.4893  -16.3946 C   0  0  0  0  0  0  0  0  0  0  0  0
   -9.1541   -1.1598  -15.8145 C   0  0  0  0  0  0  0  0  0  0  0  0
   -8.1155   -2.0640  -18.2431 C   0  0  0  0  0  0  0  0  0  0  0  0
   -7.4516    0.7013  -15.7290 C   0  0  0  0  0  0  0  0  0  0  0  0
   -8.3731    1.2542  -14.6499 C   0  0  0  0  0  0  0  0  0  0  0  0
   -7.9860   -0.6674  -12.9562 C   0  0  0  0  0  0  0  0  0  0  0  0
  -10.0646    0.7868  -12.8663 C   0  0  0  0  0  0  0  0  0  0  0  0
   -7.8381   -0.1068  -11.5446 C   0  0  0  0  0  0  0  0  0  0  0  0
  -10.2901   -0.0507  -11.6083 C   0  0  0  0  0  0  0  0  0  0  0  0
   -9.0080    0.1386  -13.7979 C   0  0  0  0  0  0  0  0  0  0  0  0
   -9.0856   -0.1468  -10.7814 N   0  0  0  0  0  0  0  0  0  0  0  0
   -9.7352   -0.7916  -14.6309 O   0  0  0  0  0  0  0  0  0  0  0  0
   -7.3994   -2.6829  -19.8786 Br  0  0  0  0  0  0  0  0  0  0  0  0
  -10.5842   -2.7674  -16.0229 H   0  0  0  0  0  0  0  0  0  0  0  0
   -9.6643   -3.5706  -18.1552 H   0  0  0  0  0  0  0  0  0  0  0  0
   -6.6931   -0.4530  -18.0495 H   0  0  0  0  0  0  0  0  0  0  0  0
   -6.4914    0.4257  -15.2728 H   0  0  0  0  0  0  0  0  0  0  0  0
   -7.2465    1.4691  -16.4866 H   0  0  0  0  0  0  0  0  0  0  0  0
   -7.7769    1.9086  -13.9933 H   0  0  0  0  0  0  0  0  0  0  0  0
   -9.1437    1.8899  -15.1101 H   0  0  0  0  0  0  0  0  0  0  0  0
   -7.0083   -0.6604  -13.4529 H   0  0  0  0  0  0  0  0  0  0  0  0
   -8.3094   -1.7118  -12.8808 H   0  0  0  0  0  0  0  0  0  0  0  0
  -11.0255    0.8879  -13.3768 H   0  0  0  0  0  0  0  0  0  0  0  0
   -9.7356    1.7913  -12.5809 H   0  0  0  0  0  0  0  0  0  0  0  0
   -7.0446   -0.6434  -10.9955 H   0  0  0  0  0  0  0  0  0  0  0  0
   -7.5019    0.9412  -11.6096 H   0  0  0  0  0  0  0  0  0  0  0  0
  -11.0878    0.4117  -11.0102 H   0  0  0  0  0  0  0  0  0  0  0  0
  -10.6465   -1.0576  -11.8729 H   0  0  0  0  0  0  0  0  0  0  0  0
   -9.1200   -1.0222  -10.2403 H   0  0  0  0  0  0  0  0  0  0  0  0
  1  2  1  0  0  0  0
  1  5  2  0  0  0  0
  2  6  2  0  0  0  0
  3  4  2  0  0  0  0
  3  6  1  0  0  0  0
  4  5  1  0  0  0  0
  4  7  1  0  0  0  0
  5 15  1  0  0  0  0
  6 16  1  0  0  0  0
  7  8  1  0  0  0  0
  8 13  1  0  0  0  0
  9 11  1  0  0  0  0
  9 13  1  0  0  0  0
 10 12  1  0  0  0  0
 10 13  1  0  0  0  0
 11 14  1  0  0  0  0
 12 14  1  0  0  0  0
 13 15  1  0  0  0  0
  1 17  1  0  0  0  0
  2 18  1  0  0  0  0
  3 19  1  0  0  0  0
  7 20  1  0  0  0  0
  7 21  1  0  0  0  0
  8 22  1  0  0  0  0
  8 23  1  0  0  0  0
  9 24  1  0  0  0  0
  9 25  1  0  0  0  0
 10 26  1  0  0  0  0
 10 27  1  0  0  0  0
 11 28  1  0  0  0  0
 11 29  1  0  0  0  0
 12 30  1  0  0  0  0
 12 31  1  0  0  0  0
 14 32  1  0  0  0  0
M  END
> <id>
EN300-299403

> <smiles>
BrC=1C=CC=2OC3(CCNCC3)CCC2C1

> <MDLNUMBER>
MFCD09751462

> <IUPAC Name>
6-bromo-3,4-dihydrospiro[1-benzopyran-2,4'-piperidine]

> <CAS>
945722-86-1

> <URL>
https://www.enaminestore.com/catalog/EN300-299403

> <ROCS_ShapeQuery>
amalgated

> <ROCS_TanimotoCombo>
0.863 

> <ROCS_ShapeTanimoto>
0.559 

> <ROCS_ColorTanimoto>
0.304 

> <ROCS_RefTversky>
0.524 

> <ROCS_RefColorTversky>
0.467 

> <ROCS_RefTverskyCombo>
0.991 

> <ROCS_FitTversky>
1.135 

> <ROCS_FitColorTversky>
0.466 

> <ROCS_FitTverskyCombo>
1.602 

> <ROCS_ColorScore>
-3.268

> <ROCS_Overlap>
859.991

> <ROCS_Rank>
140                 

$$$$
untitled-dbase-17145_59
  -OEChem-10092318153D

 40 42  0     0  0  0  0  0  0999 V2000
   -9.3525    0.0453  -10.9998 C   0  0  0  0  0  0  0  0  0  0  0  0
  -10.2888    0.4406  -12.1368 C   0  0  0  0  0  0  0  0  0  0  0  0
   -7.8912    0.0466  -11.4353 C   0  0  0  0  0  0  0  0  0  0  0  0
  -10.0618   -0.4220  -13.3792 C   0  0  0  0  0  0  0  0  0  0  0  0
   -7.6735   -0.8054  -12.6868 C   0  0  0  0  0  0  0  0  0  0  0  0
   -7.4295   -0.8792  -17.1040 C   0  0  0  0  0  0  0  0  0  0  0  0
   -9.6690   -2.0525  -16.9361 C   0  0  0  0  0  0  0  0  0  0  0  0
   -8.1654    0.9698  -14.4272 C   0  0  0  0  0  0  0  0  0  0  0  0
   -7.6469   -1.2414  -18.5732 C   0  0  0  0  0  0  0  0  0  0  0  0
   -8.8759   -3.1503  -17.6369 C   0  0  0  0  0  0  0  0  0  0  0  0
   -8.9354    1.3521  -15.6854 C   0  0  0  0  0  0  0  0  0  0  0  0
   -8.5906   -0.4003  -13.8670 C   0  0  0  0  0  0  0  0  0  0  0  0
   -8.7453   -0.9872  -16.2878 C   0  0  0  0  0  0  0  0  0  0  0  0
   -8.0896   -2.6254  -18.7567 N   0  0  0  0  0  0  0  0  0  0  0  0
   -8.3904   -1.4087  -14.9209 N   0  0  0  0  0  0  0  0  0  0  0  0
   -9.4996    0.2327  -16.3574 O   0  0  0  0  0  0  0  0  0  0  0  0
   -9.4812    0.7466  -10.1657 H   0  0  0  0  0  0  0  0  0  0  0  0
   -9.6255   -0.9474  -10.6239 H   0  0  0  0  0  0  0  0  0  0  0  0
  -11.3304    0.3480  -11.8057 H   0  0  0  0  0  0  0  0  0  0  0  0
  -10.1308    1.4958  -12.3893 H   0  0  0  0  0  0  0  0  0  0  0  0
   -7.5710    1.0761  -11.6336 H   0  0  0  0  0  0  0  0  0  0  0  0
   -7.2641   -0.3244  -10.6158 H   0  0  0  0  0  0  0  0  0  0  0  0
  -10.4106   -1.4325  -13.1775 H   0  0  0  0  0  0  0  0  0  0  0  0
  -10.7066   -0.0398  -14.1783 H   0  0  0  0  0  0  0  0  0  0  0  0
   -6.6248   -0.7029  -12.9932 H   0  0  0  0  0  0  0  0  0  0  0  0
   -7.8096   -1.8619  -12.4270 H   0  0  0  0  0  0  0  0  0  0  0  0
   -6.6649   -1.5420  -16.6838 H   0  0  0  0  0  0  0  0  0  0  0  0
   -7.0429    0.1444  -17.0638 H   0  0  0  0  0  0  0  0  0  0  0  0
  -10.3295   -1.6056  -17.6828 H   0  0  0  0  0  0  0  0  0  0  0  0
  -10.3121   -2.5014  -16.1665 H   0  0  0  0  0  0  0  0  0  0  0  0
   -7.0946    0.9391  -14.6853 H   0  0  0  0  0  0  0  0  0  0  0  0
   -8.2810    1.7586  -13.6698 H   0  0  0  0  0  0  0  0  0  0  0  0
   -8.3688   -0.5507  -19.0416 H   0  0  0  0  0  0  0  0  0  0  0  0
   -6.6998   -1.1032  -19.1194 H   0  0  0  0  0  0  0  0  0  0  0  0
   -8.1883   -3.6117  -16.9172 H   0  0  0  0  0  0  0  0  0  0  0  0
   -9.5434   -3.9486  -17.9885 H   0  0  0  0  0  0  0  0  0  0  0  0
   -9.7241    2.1065  -15.4760 H   0  0  0  0  0  0  0  0  0  0  0  0
   -8.2479    1.8503  -16.4004 H   0  0  0  0  0  0  0  0  0  0  0  0
   -8.6497   -2.6875  -19.6179 H   0  0  0  0  0  0  0  0  0  0  0  0
   -7.4180   -1.6827  -14.9155 H   0  0  0  0  0  0  0  0  0  0  0  0
  1  2  1  0  0  0  0
  1  3  1  0  0  0  0
  2  4  1  0  0  0  0
  3  5  1  0  0  0  0
  4 12  1  0  0  0  0
  5 12  1  0  0  0  0
  6  9  1  0  0  0  0
  6 13  1  0  0  0  0
  7 10  1  0  0  0  0
  7 13  1  0  0  0  0
  8 11  1  0  0  0  0
  8 12  1  0  0  0  0
  9 14  1  0  0  0  0
 10 14  1  0  0  0  0
 11 16  1  0  0  0  0
 12 15  1  0  0  0  0
 13 15  1  0  0  0  0
 13 16  1  0  0  0  0
  1 17  1  0  0  0  0
  1 18  1  0  0  0  0
  2 19  1  0  0  0  0
  2 20  1  0  0  0  0
  3 21  1  0  0  0  0
  3 22  1  0  0  0  0
  4 23  1  0  0  0  0
  4 24  1  0  0  0  0
  5 25  1  0  0  0  0
  5 26  1  0  0  0  0
  6 27  1  0  0  0  0
  6 28  1  0  0  0  0
  7 29  1  0  0  0  0
  7 30  1  0  0  0  0
  8 31  1  0  0  0  0
  8 32  1  0  0  0  0
  9 33  1  0  0  0  0
  9 34  1  0  0  0  0
 10 35  1  0  0  0  0
 10 36  1  0  0  0  0
 11 37  1  0  0  0  0
 11 38  1  0  0  0  0
 14 39  1  0  0  0  0
 15 40  1  0  0  0  0
M  END
> <id>
EN300-1279197

> <smiles>
C1CCC2(CC1)CCOC3(CCNCC3)N2

> <IUPAC Name>
16-oxa-3,7-diazadispiro[5.1.5^{8}.3^{6}]hexadecane

> <CAS>
2172440-11-6

> <URL>
https://www.enaminestore.com/catalog/EN300-1279197

> <ROCS_ShapeQuery>
amalgated

> <ROCS_TanimotoCombo>
0.863 

> <ROCS_ShapeTanimoto>
0.545 

> <ROCS_ColorTanimoto>
0.318 

> <ROCS_RefTversky>
0.514 

> <ROCS_RefColorTversky>
0.513 

> <ROCS_RefTverskyCombo>
1.027 

> <ROCS_FitTversky>
1.127 

> <ROCS_FitColorTversky>
0.455 

> <ROCS_FitTverskyCombo>
1.582 

> <ROCS_ColorScore>
-3.619

> <ROCS_Overlap>
842.940

> <ROCS_Rank>
141                 

$$$$
untitled-dbase-44155_41
  -OEChem-10092318153D

 35 36  0     1  0  0  0  0  0999 V2000
   -8.2081   -0.3913  -14.0994 C   0  0  0  0  0  0  0  0  0  0  0  0
   -9.8335   -1.4223  -17.8002 C   0  0  0  0  0  0  0  0  0  0  0  0
   -8.9588   -2.2370  -15.5520 C   0  0  0  0  0  0  0  0  0  0  0  0
   -8.0643   -0.0560  -16.5797 C   0  0  0  0  0  0  0  0  0  0  0  0
   -9.1329   -2.5750  -17.0276 C   0  0  2  0  0  0  0  0  0  0  0  0
   -8.4077   -0.8060  -17.8615 C   0  0  1  0  0  0  0  0  0  0  0  0
   -7.8456   -2.2530  -17.8336 C   0  0  0  0  0  0  0  0  0  0  0  0
  -10.0695    1.2078  -12.6302 C   0  0  0  0  0  0  0  0  0  0  0  0
  -10.4446   -0.8434  -11.2298 C   0  0  0  0  0  0  0  0  0  0  0  0
   -8.1724    0.2244  -11.3003 C   0  0  0  0  0  0  0  0  0  0  0  0
   -9.4434   -0.0782  -12.0925 C   0  0  0  0  0  0  0  0  0  0  0  0
   -8.4090   -0.8772  -15.3995 N   0  0  0  0  0  0  0  0  0  0  0  0
   -7.9266   -2.8486  -19.1673 N   0  0  0  0  0  0  0  0  0  0  0  0
   -7.3323    0.4153  -13.7920 O   0  0  0  0  0  0  0  0  0  0  0  0
   -9.1005   -0.9165  -13.2019 O   0  0  0  0  0  0  0  0  0  0  0  0
  -10.2561   -1.7070  -18.7704 H   0  0  0  0  0  0  0  0  0  0  0  0
  -10.5942   -0.8555  -17.2557 H   0  0  0  0  0  0  0  0  0  0  0  0
   -9.9174   -2.2806  -15.0198 H   0  0  0  0  0  0  0  0  0  0  0  0
   -8.2736   -2.9445  -15.0685 H   0  0  0  0  0  0  0  0  0  0  0  0
   -6.9952    0.1783  -16.5328 H   0  0  0  0  0  0  0  0  0  0  0  0
   -8.6178    0.8868  -16.5092 H   0  0  0  0  0  0  0  0  0  0  0  0
   -9.5684   -3.5689  -17.1766 H   0  0  0  0  0  0  0  0  0  0  0  0
   -8.1927   -0.2145  -18.7579 H   0  0  0  0  0  0  0  0  0  0  0  0
   -6.8849   -2.4123  -17.3352 H   0  0  0  0  0  0  0  0  0  0  0  0
   -9.3540    1.7600  -13.2500 H   0  0  0  0  0  0  0  0  0  0  0  0
  -10.9623    1.0019  -13.2295 H   0  0  0  0  0  0  0  0  0  0  0  0
  -10.3502    1.8786  -11.8102 H   0  0  0  0  0  0  0  0  0  0  0  0
   -9.9997   -1.7669  -10.8419 H   0  0  0  0  0  0  0  0  0  0  0  0
  -11.3175   -1.1455  -11.8198 H   0  0  0  0  0  0  0  0  0  0  0  0
  -10.7900   -0.2424  -10.3824 H   0  0  0  0  0  0  0  0  0  0  0  0
   -7.7232   -0.6979  -10.9145 H   0  0  0  0  0  0  0  0  0  0  0  0
   -7.4277    0.7409  -11.9145 H   0  0  0  0  0  0  0  0  0  0  0  0
   -8.3966    0.8478  -10.4272 H   0  0  0  0  0  0  0  0  0  0  0  0
   -8.6692   -3.5059  -19.1667 H   0  0  0  0  0  0  0  0  0  0  0  0
   -8.1000   -2.1214  -19.8190 H   0  0  0  0  0  0  0  0  0  0  0  0
  1 12  1  0  0  0  0
  1 14  2  0  0  0  0
  1 15  1  0  0  0  0
  2  5  1  0  0  0  0
  2  6  1  0  0  0  0
  3  5  1  0  0  0  0
  3 12  1  0  0  0  0
  4  6  1  0  0  0  0
  4 12  1  0  0  0  0
  5  7  1  0  0  0  0
  6  7  1  0  0  0  0
  7 13  1  0  0  0  0
  8 11  1  0  0  0  0
  9 11  1  0  0  0  0
 10 11  1  0  0  0  0
 11 15  1  0  0  0  0
  2 16  1  0  0  0  0
  2 17  1  0  0  0  0
  3 18  1  0  0  0  0
  3 19  1  0  0  0  0
  4 20  1  0  0  0  0
  4 21  1  0  0  0  0
  5 22  1  0  0  0  0
  6 23  1  0  0  0  0
  7 24  1  0  0  0  0
  8 25  1  0  0  0  0
  8 26  1  0  0  0  0
  8 27  1  0  0  0  0
  9 28  1  0  0  0  0
  9 29  1  0  0  0  0
  9 30  1  0  0  0  0
 10 31  1  0  0  0  0
 10 32  1  0  0  0  0
 10 33  1  0  0  0  0
 13 34  1  0  0  0  0
 13 35  1  0  0  0  0
M  END
> <id>
EN300-1229127

> <smiles>
CC(C)(C)OC(=O)N1CC2CC(C1)C2N

> <MDLNUMBER>
MFCD17168422

> <IUPAC Name>
tert-butyl 6-amino-3-azabicyclo[3.1.1]heptane-3-carboxylate

> <CAS>
1427359-44-1

> <URL>
https://www.enaminestore.com/catalog/EN300-1229127

> <ROCS_ShapeQuery>
amalgated

> <ROCS_TanimotoCombo>
0.862 

> <ROCS_ShapeTanimoto>
0.541 

> <ROCS_ColorTanimoto>
0.321 

> <ROCS_RefTversky>
0.504 

> <ROCS_RefColorTversky>
0.582 

> <ROCS_RefTverskyCombo>
1.086 

> <ROCS_FitTversky>
1.160 

> <ROCS_FitColorTversky>
0.417 

> <ROCS_FitTverskyCombo>
1.577 

> <ROCS_ColorScore>
-4.168

> <ROCS_Overlap>
825.547

> <ROCS_Rank>
142                 

$$$$
untitled-dbase-22514_41
  -OEChem-10092318153D

 35 36  0     1  0  0  0  0  0999 V2000
   -8.2081   -0.3913  -14.0994 C   0  0  0  0  0  0  0  0  0  0  0  0
   -9.8335   -1.4223  -17.8002 C   0  0  0  0  0  0  0  0  0  0  0  0
   -8.9588   -2.2370  -15.5520 C   0  0  0  0  0  0  0  0  0  0  0  0
   -8.0643   -0.0560  -16.5797 C   0  0  0  0  0  0  0  0  0  0  0  0
   -9.1329   -2.5750  -17.0276 C   0  0  2  0  0  0  0  0  0  0  0  0
   -8.4077   -0.8060  -17.8615 C   0  0  1  0  0  0  0  0  0  0  0  0
   -7.8456   -2.2530  -17.8336 C   0  0  0  0  0  0  0  0  0  0  0  0
  -10.0695    1.2078  -12.6302 C   0  0  0  0  0  0  0  0  0  0  0  0
  -10.4446   -0.8434  -11.2298 C   0  0  0  0  0  0  0  0  0  0  0  0
   -8.1724    0.2244  -11.3003 C   0  0  0  0  0  0  0  0  0  0  0  0
   -9.4434   -0.0782  -12.0925 C   0  0  0  0  0  0  0  0  0  0  0  0
   -8.4090   -0.8772  -15.3995 N   0  0  0  0  0  0  0  0  0  0  0  0
   -7.9266   -2.8486  -19.1673 N   0  0  0  0  0  0  0  0  0  0  0  0
   -7.3323    0.4153  -13.7920 O   0  0  0  0  0  0  0  0  0  0  0  0
   -9.1005   -0.9165  -13.2019 O   0  0  0  0  0  0  0  0  0  0  0  0
  -10.2561   -1.7070  -18.7704 H   0  0  0  0  0  0  0  0  0  0  0  0
  -10.5942   -0.8555  -17.2557 H   0  0  0  0  0  0  0  0  0  0  0  0
   -9.9174   -2.2806  -15.0198 H   0  0  0  0  0  0  0  0  0  0  0  0
   -8.2736   -2.9445  -15.0685 H   0  0  0  0  0  0  0  0  0  0  0  0
   -6.9952    0.1783  -16.5328 H   0  0  0  0  0  0  0  0  0  0  0  0
   -8.6178    0.8868  -16.5092 H   0  0  0  0  0  0  0  0  0  0  0  0
   -9.5684   -3.5689  -17.1766 H   0  0  0  0  0  0  0  0  0  0  0  0
   -8.1927   -0.2145  -18.7579 H   0  0  0  0  0  0  0  0  0  0  0  0
   -6.8849   -2.4123  -17.3352 H   0  0  0  0  0  0  0  0  0  0  0  0
   -9.3540    1.7600  -13.2500 H   0  0  0  0  0  0  0  0  0  0  0  0
  -10.9623    1.0019  -13.2295 H   0  0  0  0  0  0  0  0  0  0  0  0
  -10.3502    1.8786  -11.8102 H   0  0  0  0  0  0  0  0  0  0  0  0
   -9.9997   -1.7669  -10.8419 H   0  0  0  0  0  0  0  0  0  0  0  0
  -11.3175   -1.1455  -11.8198 H   0  0  0  0  0  0  0  0  0  0  0  0
  -10.7900   -0.2424  -10.3824 H   0  0  0  0  0  0  0  0  0  0  0  0
   -7.7232   -0.6979  -10.9145 H   0  0  0  0  0  0  0  0  0  0  0  0
   -7.4277    0.7409  -11.9145 H   0  0  0  0  0  0  0  0  0  0  0  0
   -8.3966    0.8478  -10.4272 H   0  0  0  0  0  0  0  0  0  0  0  0
   -8.6692   -3.5059  -19.1667 H   0  0  0  0  0  0  0  0  0  0  0  0
   -8.1000   -2.1214  -19.8190 H   0  0  0  0  0  0  0  0  0  0  0  0
  1 12  1  0  0  0  0
  1 14  2  0  0  0  0
  1 15  1  0  0  0  0
  2  5  1  0  0  0  0
  2  6  1  0  0  0  0
  3  5  1  0  0  0  0
  3 12  1  0  0  0  0
  4  6  1  0  0  0  0
  4 12  1  0  0  0  0
  5  7  1  0  0  0  0
  6  7  1  0  0  0  0
  7 13  1  0  0  0  0
  8 11  1  0  0  0  0
  9 11  1  0  0  0  0
 10 11  1  0  0  0  0
 11 15  1  0  0  0  0
  2 16  1  0  0  0  0
  2 17  1  0  0  0  0
  3 18  1  0  0  0  0
  3 19  1  0  0  0  0
  4 20  1  0  0  0  0
  4 21  1  0  0  0  0
  5 22  1  0  0  0  0
  6 23  1  0  0  0  0
  7 24  1  0  0  0  0
  8 25  1  0  0  0  0
  8 26  1  0  0  0  0
  8 27  1  0  0  0  0
  9 28  1  0  0  0  0
  9 29  1  0  0  0  0
  9 30  1  0  0  0  0
 10 31  1  0  0  0  0
 10 32  1  0  0  0  0
 10 33  1  0  0  0  0
 13 34  1  0  0  0  0
 13 35  1  0  0  0  0
M  END
> <id>
EN300-28227898

> <smiles>
CC(C)(C)OC(=O)N1CC2CC(C1)C2N.OC(=O)C(=O)O

> <MDLNUMBER>
MFCD34167928

> <IUPAC Name>
oxalic acid; tert-butyl 6-amino-3-azabicyclo[3.1.1]heptane-3-carboxylate

> <CAS>
2648947-54-8

> <Purity>
95

> <URL>
https://www.enaminestore.com/catalog/EN300-28227898

> <Saltdate>
OC(=O)C(=O)O

> <ROCS_ShapeQuery>
amalgated

> <ROCS_TanimotoCombo>
0.862 

> <ROCS_ShapeTanimoto>
0.541 

> <ROCS_ColorTanimoto>
0.321 

> <ROCS_RefTversky>
0.504 

> <ROCS_RefColorTversky>
0.582 

> <ROCS_RefTverskyCombo>
1.086 

> <ROCS_FitTversky>
1.160 

> <ROCS_FitColorTversky>
0.417 

> <ROCS_FitTverskyCombo>
1.577 

> <ROCS_ColorScore>
-4.168

> <ROCS_Overlap>
825.547

> <ROCS_Rank>
143                 

$$$$
untitled-dbase-34136_31
  -OEChem-10092318153D

 41 42  0     1  0  0  0  0  0999 V2000
   -8.6188   -0.2249  -14.2781 C   0  0  0  0  0  0  0  0  0  0  0  0
   -9.7077   -4.5045  -18.7137 C   0  0  0  0  0  0  0  0  0  0  0  0
   -9.9339   -3.9664  -17.3044 C   0  0  0  0  0  0  0  0  0  0  0  0
   -7.7475   -0.7767  -17.7778 C   0  0  0  0  0  0  0  0  0  0  0  0
   -8.2774   -4.2438  -19.1791 C   0  0  0  0  0  0  0  0  0  0  0  0
   -8.5164    0.0439  -16.7405 C   0  0  0  0  0  0  0  0  0  0  0  0
   -9.6019   -1.9854  -15.7715 C   0  0  0  0  0  0  0  0  0  0  0  0
   -9.5260   -2.4910  -17.2199 C   0  0  1  0  0  0  0  0  0  0  0  0
   -8.1062   -2.2745  -17.7705 C   0  0  1  0  0  0  0  0  0  0  0  0
   -9.4515    1.3238  -12.0210 C   0  0  0  0  0  0  0  0  0  0  0  0
  -10.4564   -0.8109  -11.1594 C   0  0  0  0  0  0  0  0  0  0  0  0
   -7.9755   -0.6514  -11.5166 C   0  0  0  0  0  0  0  0  0  0  0  0
   -9.3480   -0.2007  -12.0144 C   0  0  0  0  0  0  0  0  0  0  0  0
   -7.9471   -2.8209  -19.1228 N   0  0  0  0  0  0  0  0  0  0  0  0
   -8.8685   -0.7326  -15.5575 N   0  0  0  0  0  0  0  0  0  0  0  0
   -7.6984    0.5412  -14.0003 O   0  0  0  0  0  0  0  0  0  0  0  0
   -9.5256   -0.6753  -13.3539 O   0  0  0  0  0  0  0  0  0  0  0  0
   -9.9156   -5.5787  -18.7375 H   0  0  0  0  0  0  0  0  0  0  0  0
  -10.4110   -4.0244  -19.4038 H   0  0  0  0  0  0  0  0  0  0  0  0
  -10.9894   -4.0859  -17.0271 H   0  0  0  0  0  0  0  0  0  0  0  0
   -9.3480   -4.5602  -16.5886 H   0  0  0  0  0  0  0  0  0  0  0  0
   -7.9325   -0.3488  -18.7842 H   0  0  0  0  0  0  0  0  0  0  0  0
   -6.6609   -0.6510  -17.6007 H   0  0  0  0  0  0  0  0  0  0  0  0
   -7.5706   -4.8190  -18.5698 H   0  0  0  0  0  0  0  0  0  0  0  0
   -8.1680   -4.5918  -20.2114 H   0  0  0  0  0  0  0  0  0  0  0  0
   -7.9029    0.8927  -16.3998 H   0  0  0  0  0  0  0  0  0  0  0  0
   -9.4159    0.4732  -17.2062 H   0  0  0  0  0  0  0  0  0  0  0  0
  -10.6605   -1.8791  -15.4742 H   0  0  0  0  0  0  0  0  0  0  0  0
   -9.1680   -2.7301  -15.0769 H   0  0  0  0  0  0  0  0  0  0  0  0
  -10.2386   -1.9047  -17.8125 H   0  0  0  0  0  0  0  0  0  0  0  0
   -7.3735   -2.7783  -17.1071 H   0  0  0  0  0  0  0  0  0  0  0  0
   -8.6576    1.7656  -12.6338 H   0  0  0  0  0  0  0  0  0  0  0  0
  -10.4184    1.6608  -12.4089 H   0  0  0  0  0  0  0  0  0  0  0  0
   -9.3238    1.7288  -11.0106 H   0  0  0  0  0  0  0  0  0  0  0  0
  -10.3860   -1.9046  -11.1518 H   0  0  0  0  0  0  0  0  0  0  0  0
  -11.4437   -0.5680  -11.5687 H   0  0  0  0  0  0  0  0  0  0  0  0
  -10.4123   -0.4534  -10.1255 H   0  0  0  0  0  0  0  0  0  0  0  0
   -7.9010   -1.7448  -11.5117 H   0  0  0  0  0  0  0  0  0  0  0  0
   -7.1692   -0.2528  -12.1408 H   0  0  0  0  0  0  0  0  0  0  0  0
   -7.8095   -0.3256  -10.4833 H   0  0  0  0  0  0  0  0  0  0  0  0
   -6.9821   -2.6859  -19.4337 H   0  0  0  0  0  0  0  0  0  0  0  0
  1 15  1  0  0  0  0
  1 16  2  0  0  0  0
  1 17  1  0  0  0  0
  2  3  1  0  0  0  0
  2  5  1  0  0  0  0
  3  8  1  0  0  0  0
  4  6  1  0  0  0  0
  4  9  1  0  0  0  0
  5 14  1  0  0  0  0
  6 15  1  0  0  0  0
  7  8  1  0  0  0  0
  7 15  1  0  0  0  0
  8  9  1  0  0  0  0
  9 14  1  0  0  0  0
 10 13  1  0  0  0  0
 11 13  1  0  0  0  0
 12 13  1  0  0  0  0
 13 17  1  0  0  0  0
  2 18  1  0  0  0  0
  2 19  1  0  0  0  0
  3 20  1  0  0  0  0
  3 21  1  0  0  0  0
  4 22  1  0  0  0  0
  4 23  1  0  0  0  0
  5 24  1  0  0  0  0
  5 25  1  0  0  0  0
  6 26  1  0  0  0  0
  6 27  1  0  0  0  0
  7 28  1  0  0  0  0
  7 29  1  0  0  0  0
  8 30  1  0  0  0  0
  9 31  1  0  0  0  0
 10 32  1  0  0  0  0
 10 33  1  0  0  0  0
 10 34  1  0  0  0  0
 11 35  1  0  0  0  0
 11 36  1  0  0  0  0
 11 37  1  0  0  0  0
 12 38  1  0  0  0  0
 12 39  1  0  0  0  0
 12 40  1  0  0  0  0
 14 41  1  0  0  0  0
M  END
> <id>
EN300-53449

> <smiles>
CC(C)(C)OC(=O)N1CCC2NCCCC2C1

> <MDLNUMBER>
MFCD11616071

> <IUPAC Name>
tert-butyl decahydro-1,6-naphthyridine-6-carboxylate

> <CAS>
1221818-15-0

> <Purity>
95

> <URL>
https://www.enaminestore.com/catalog/EN300-53449

> <ROCS_ShapeQuery>
amalgated

> <ROCS_TanimotoCombo>
0.862 

> <ROCS_ShapeTanimoto>
0.590 

> <ROCS_ColorTanimoto>
0.272 

> <ROCS_RefTversky>
0.548 

> <ROCS_RefColorTversky>
0.400 

> <ROCS_RefTverskyCombo>
0.948 

> <ROCS_FitTversky>
1.149 

> <ROCS_FitColorTversky>
0.459 

> <ROCS_FitTverskyCombo>
1.608 

> <ROCS_ColorScore>
-2.782

> <ROCS_Overlap>
900.350

> <ROCS_Rank>
144                 

$$$$
untitled-dbase-31188_54
  -OEChem-10092318153D

 35 36  0     1  0  0  0  0  0999 V2000
   -8.9312   -0.0707  -14.3128 C   0  0  0  0  0  0  0  0  0  0  0  0
   -8.2280   -2.8903  -16.7584 C   0  0  0  0  0  0  0  0  0  0  0  0
   -9.8844   -1.4851  -18.2448 C   0  0  0  0  0  0  0  0  0  0  0  0
   -8.8283   -2.1931  -15.5442 C   0  0  0  0  0  0  0  0  0  0  0  0
   -8.2911   -0.0196  -16.7488 C   0  0  0  0  0  0  0  0  0  0  0  0
   -8.6049   -0.7217  -18.0298 C   0  0  1  0  0  0  0  0  0  0  0  0
   -8.5673   -2.2255  -18.0697 C   0  0  1  0  0  0  0  0  0  0  0  0
  -10.6040    0.7865  -12.1794 C   0  0  0  0  0  0  0  0  0  0  0  0
   -9.8052   -1.2621  -10.9652 C   0  0  0  0  0  0  0  0  0  0  0  0
   -8.1622    0.5165  -11.6325 C   0  0  0  0  0  0  0  0  0  0  0  0
   -9.4544   -0.2058  -12.0109 C   0  0  0  0  0  0  0  0  0  0  0  0
   -8.6699   -0.7374  -15.5223 N   0  0  0  0  0  0  0  0  0  0  0  0
   -7.9832   -2.8916  -19.2547 N   0  0  0  0  0  0  0  0  0  0  0  0
   -8.8377    1.1456  -14.1549 O   0  0  0  0  0  0  0  0  0  0  0  0
   -9.2502   -0.8837  -13.2580 O   0  0  0  0  0  0  0  0  0  0  0  0
   -7.1314   -2.9398  -16.6229 H   0  0  0  0  0  0  0  0  0  0  0  0
   -8.5600   -3.9456  -16.7800 H   0  0  0  0  0  0  0  0  0  0  0  0
  -10.6070   -1.5139  -17.4414 H   0  0  0  0  0  0  0  0  0  0  0  0
  -10.3273   -1.4469  -19.2306 H   0  0  0  0  0  0  0  0  0  0  0  0
   -9.9063   -2.4633  -15.4589 H   0  0  0  0  0  0  0  0  0  0  0  0
   -8.3625   -2.5796  -14.6071 H   0  0  0  0  0  0  0  0  0  0  0  0
   -7.1970    0.1436  -16.6806 H   0  0  0  0  0  0  0  0  0  0  0  0
   -8.7423    0.9916  -16.7654 H   0  0  0  0  0  0  0  0  0  0  0  0
   -8.2205   -0.1680  -18.8822 H   0  0  0  0  0  0  0  0  0  0  0  0
  -10.3561    1.5463  -12.9292 H   0  0  0  0  0  0  0  0  0  0  0  0
  -11.5282    0.2851  -12.4848 H   0  0  0  0  0  0  0  0  0  0  0  0
  -10.7954    1.3257  -11.2446 H   0  0  0  0  0  0  0  0  0  0  0  0
   -8.9832   -1.9762  -10.8410 H   0  0  0  0  0  0  0  0  0  0  0  0
  -10.6775   -1.8470  -11.2786 H   0  0  0  0  0  0  0  0  0  0  0  0
  -10.0222   -0.8104   -9.9917 H   0  0  0  0  0  0  0  0  0  0  0  0
   -7.3374   -0.1951  -11.5115 H   0  0  0  0  0  0  0  0  0  0  0  0
   -7.8750    1.2528  -12.3902 H   0  0  0  0  0  0  0  0  0  0  0  0
   -8.2705    1.0307  -10.6707 H   0  0  0  0  0  0  0  0  0  0  0  0
   -7.0026   -2.8783  -19.1438 H   0  0  0  0  0  0  0  0  0  0  0  0
   -8.3348   -3.8136  -19.2740 H   0  0  0  0  0  0  0  0  0  0  0  0
  1 12  1  0  0  0  0
  1 14  2  0  0  0  0
  1 15  1  0  0  0  0
  2  4  1  0  0  0  0
  2  7  1  0  0  0  0
  3  6  1  0  0  0  0
  3  7  1  0  0  0  0
  4 12  1  0  0  0  0
  5  6  1  0  0  0  0
  5 12  1  0  0  0  0
  6  7  1  0  0  0  0
  7 13  1  0  0  0  0
  8 11  1  0  0  0  0
  9 11  1  0  0  0  0
 10 11  1  0  0  0  0
 11 15  1  0  0  0  0
  2 16  1  0  0  0  0
  2 17  1  0  0  0  0
  3 18  1  0  0  0  0
  3 19  1  0  0  0  0
  4 20  1  0  0  0  0
  4 21  1  0  0  0  0
  5 22  1  0  0  0  0
  5 23  1  0  0  0  0
  6 24  1  0  0  0  0
  8 25  1  0  0  0  0
  8 26  1  0  0  0  0
  8 27  1  0  0  0  0
  9 28  1  0  0  0  0
  9 29  1  0  0  0  0
  9 30  1  0  0  0  0
 10 31  1  0  0  0  0
 10 32  1  0  0  0  0
 10 33  1  0  0  0  0
 13 34  1  0  0  0  0
 13 35  1  0  0  0  0
M  END
> <id>
EN300-7122574

> <smiles>
CC(C)(C)OC(=O)N1CCC2(N)CC2C1

> <MDLNUMBER>
MFCD23106289

> <IUPAC Name>
tert-butyl 6-amino-3-azabicyclo[4.1.0]heptane-3-carboxylate

> <CAS>
1403767-24-7

> <Purity>
95

> <URL>
https://www.enaminestore.com/catalog/EN300-7122574

> <ROCS_ShapeQuery>
amalgated

> <ROCS_TanimotoCombo>
0.862 

> <ROCS_ShapeTanimoto>
0.542 

> <ROCS_ColorTanimoto>
0.320 

> <ROCS_RefTversky>
0.502 

> <ROCS_RefColorTversky>
0.511 

> <ROCS_RefTverskyCombo>
1.013 

> <ROCS_FitTversky>
1.170 

> <ROCS_FitColorTversky>
0.462 

> <ROCS_FitTverskyCombo>
1.631 

> <ROCS_ColorScore>
-3.597

> <ROCS_Overlap>
822.687

> <ROCS_Rank>
145                 

$$$$
untitled-dbase-34614_154
  -OEChem-10092318153D

 42 44  0     1  0  0  0  0  0999 V2000
   -8.4075    0.3243  -12.8790 C   0  0  0  0  0  0  0  0  0  0  0  0
   -9.7797   -2.1316  -16.1367 C   0  0  0  0  0  0  0  0  0  0  0  0
   -7.5917   -0.6905  -17.7184 C   0  0  0  0  0  0  0  0  0  0  0  0
   -9.4282   -2.7348  -18.7269 C   0  0  0  0  0  0  0  0  0  0  0  0
   -9.9692    0.0197  -14.8518 C   0  0  0  0  0  0  0  0  0  0  0  0
   -7.5830   -0.1660  -15.1849 C   0  0  0  0  0  0  0  0  0  0  0  0
   -9.0268   -2.8458  -17.2405 C   0  0  1  0  0  0  0  0  0  0  0  0
   -9.7015   -0.6002  -16.2301 C   0  0  1  0  0  0  0  0  0  0  0  0
   -8.2934   -0.0513  -16.5303 C   0  0  2  0  0  0  0  0  0  0  0  0
   -7.6885   -2.2143  -17.6962 C   0  0  1  0  0  0  0  0  0  0  0  0
   -8.6583   -1.3793  -11.0294 C   0  0  0  0  0  0  0  0  0  0  0  0
   -9.8976    0.4372   -9.8155 C   0  0  0  0  0  0  0  0  0  0  0  0
  -11.1370   -1.1011  -11.3664 C   0  0  0  0  0  0  0  0  0  0  0  0
   -9.8146   -0.3830  -11.1010 C   0  0  0  0  0  0  0  0  0  0  0  0
   -7.9778   -2.7721  -19.0497 N   0  0  0  0  0  0  0  0  0  0  0  0
   -8.6496    0.0739  -14.2183 N   0  0  0  0  0  0  0  0  0  0  0  0
   -7.2870    0.3635  -12.3758 O   0  0  0  0  0  0  0  0  0  0  0  0
   -9.5659    0.5272  -12.1781 O   0  0  0  0  0  0  0  0  0  0  0  0
  -10.8310   -2.4439  -16.1354 H   0  0  0  0  0  0  0  0  0  0  0  0
   -9.3702   -2.4683  -15.1751 H   0  0  0  0  0  0  0  0  0  0  0  0
   -8.0521   -0.2857  -18.6298 H   0  0  0  0  0  0  0  0  0  0  0  0
   -6.5397   -0.3826  -17.7512 H   0  0  0  0  0  0  0  0  0  0  0  0
  -10.0057   -3.5746  -19.1239 H   0  0  0  0  0  0  0  0  0  0  0  0
   -9.9238   -1.8018  -19.0174 H   0  0  0  0  0  0  0  0  0  0  0  0
  -10.3274    1.0515  -14.9432 H   0  0  0  0  0  0  0  0  0  0  0  0
  -10.6772   -0.5442  -14.2367 H   0  0  0  0  0  0  0  0  0  0  0  0
   -7.1754   -1.1651  -14.9979 H   0  0  0  0  0  0  0  0  0  0  0  0
   -6.7823    0.5693  -15.0587 H   0  0  0  0  0  0  0  0  0  0  0  0
   -8.9059   -3.9035  -16.9536 H   0  0  0  0  0  0  0  0  0  0  0  0
  -10.4202   -0.2404  -16.9752 H   0  0  0  0  0  0  0  0  0  0  0  0
   -8.3872    1.0227  -16.7524 H   0  0  0  0  0  0  0  0  0  0  0  0
   -6.8135   -2.6606  -17.2084 H   0  0  0  0  0  0  0  0  0  0  0  0
   -8.5954   -1.9700  -11.9503 H   0  0  0  0  0  0  0  0  0  0  0  0
   -7.6995   -0.8740  -10.8742 H   0  0  0  0  0  0  0  0  0  0  0  0
   -8.8086   -2.0948  -10.2129 H   0  0  0  0  0  0  0  0  0  0  0  0
  -10.7259    1.1534   -9.8624 H   0  0  0  0  0  0  0  0  0  0  0  0
   -8.9862    1.0285   -9.6702 H   0  0  0  0  0  0  0  0  0  0  0  0
  -10.0404   -0.2010   -8.9375 H   0  0  0  0  0  0  0  0  0  0  0  0
  -11.9665   -0.3867  -11.4178 H   0  0  0  0  0  0  0  0  0  0  0  0
  -11.1083   -1.6654  -12.3042 H   0  0  0  0  0  0  0  0  0  0  0  0
  -11.3751   -1.7933  -10.5507 H   0  0  0  0  0  0  0  0  0  0  0  0
   -7.6234   -3.7215  -19.1716 H   0  0  0  0  0  0  0  0  0  0  0  0
  1 16  1  0  0  0  0
  1 17  2  0  0  0  0
  1 18  1  0  0  0  0
  2  7  1  1  0  0  0
  2  8  1  0  0  0  0
  3  9  1  6  0  0  0
  3 10  1  1  0  0  0
  4  7  1  0  0  0  0
  4 15  1  0  0  0  0
  5  8  1  6  0  0  0
  5 16  1  0  0  0  0
  6  9  1  0  0  0  0
  6 16  1  0  0  0  0
  7 10  1  0  0  0  0
  8  9  1  0  0  0  0
 10 15  1  0  0  0  0
 11 14  1  0  0  0  0
 12 14  1  0  0  0  0
 13 14  1  0  0  0  0
 14 18  1  0  0  0  0
  2 19  1  0  0  0  0
  2 20  1  0  0  0  0
  3 21  1  0  0  0  0
  3 22  1  0  0  0  0
  4 23  1  0  0  0  0
  4 24  1  0  0  0  0
  5 25  1  0  0  0  0
  5 26  1  0  0  0  0
  6 27  1  0  0  0  0
  6 28  1  0  0  0  0
  7 29  1  0  0  0  0
  8 30  1  0  0  0  0
  9 31  1  0  0  0  0
 10 32  1  0  0  0  0
 11 33  1  0  0  0  0
 11 34  1  0  0  0  0
 11 35  1  0  0  0  0
 12 36  1  0  0  0  0
 12 37  1  0  0  0  0
 12 38  1  0  0  0  0
 13 39  1  0  0  0  0
 13 40  1  0  0  0  0
 13 41  1  0  0  0  0
 15 42  1  0  0  0  0
M  END
> <id>
EN300-90574

> <smiles>
CC(C)(C)OC(=O)N1C[C@@H]2C[C@H]3CN[C@H]3C[C@@H]2C1

> <MDLNUMBER>
MFCD20441699

> <IUPAC Name>
tert-butyl (2aS,3aR,6aS,7aS)-decahydro-1H-azeto[2,3-f]isoindole-5-carboxylate

> <CAS>
1486470-57-8

> <URL>
https://www.enaminestore.com/catalog/EN300-90574

> <ROCS_ShapeQuery>
amalgated

> <ROCS_TanimotoCombo>
0.862 

> <ROCS_ShapeTanimoto>
0.589 

> <ROCS_ColorTanimoto>
0.273 

> <ROCS_RefTversky>
0.561 

> <ROCS_RefColorTversky>
0.432 

> <ROCS_RefTverskyCombo>
0.993 

> <ROCS_FitTversky>
1.092 

> <ROCS_FitColorTversky>
0.425 

> <ROCS_FitTverskyCombo>
1.517 

> <ROCS_ColorScore>
-3.026

> <ROCS_Overlap>
923.462

> <ROCS_Rank>
146                 

$$$$
untitled-dbase-51933_138
  -OEChem-10092318153D

 41 42  0     0  0  0  0  0  0999 V2000
   -8.4026    0.1273  -12.6684 C   0  0  0  0  0  0  0  0  0  0  0  0
   -9.3027   -2.8413  -16.9318 C   0  0  0  0  0  0  0  0  0  0  0  0
   -9.1013   -0.7161  -18.2766 C   0  0  0  0  0  0  0  0  0  0  0  0
   -8.2160   -2.3459  -15.9740 C   0  0  0  0  0  0  0  0  0  0  0  0
   -8.0063   -0.2129  -17.3333 C   0  0  0  0  0  0  0  0  0  0  0  0
   -7.1984   -0.2467  -14.8925 C   0  0  0  0  0  0  0  0  0  0  0  0
   -9.3289   -0.1621  -15.0894 C   0  0  0  0  0  0  0  0  0  0  0  0
   -9.1690   -2.2486  -18.3419 C   0  0  0  0  0  0  0  0  0  0  0  0
   -8.1975   -0.8091  -15.9343 C   0  0  0  0  0  0  0  0  0  0  0  0
   -9.0052   -1.3600  -10.4841 C   0  0  0  0  0  0  0  0  0  0  0  0
  -11.0845    0.0247  -10.2226 C   0  0  0  0  0  0  0  0  0  0  0  0
  -10.9609   -1.7174  -12.0276 C   0  0  0  0  0  0  0  0  0  0  0  0
  -10.1710   -0.6937  -11.2133 C   0  0  0  0  0  0  0  0  0  0  0  0
   -8.3459    0.0038  -14.0360 N   0  0  0  0  0  0  0  0  0  0  0  0
   -7.9808   -2.7837  -19.0095 N   0  0  0  0  0  0  0  0  0  0  0  0
   -7.4102    0.0333  -11.9464 O   0  0  0  0  0  0  0  0  0  0  0  0
   -9.6429    0.2960  -12.1114 O   0  0  0  0  0  0  0  0  0  0  0  0
   -9.2665   -3.9436  -16.9837 H   0  0  0  0  0  0  0  0  0  0  0  0
  -10.2912   -2.5899  -16.5114 H   0  0  0  0  0  0  0  0  0  0  0  0
  -10.0726   -0.3104  -17.9459 H   0  0  0  0  0  0  0  0  0  0  0  0
   -8.9280   -0.3047  -19.2864 H   0  0  0  0  0  0  0  0  0  0  0  0
   -8.4078   -2.7420  -14.9694 H   0  0  0  0  0  0  0  0  0  0  0  0
   -7.2448   -2.7421  -16.2925 H   0  0  0  0  0  0  0  0  0  0  0  0
   -7.0250   -0.4796  -17.7424 H   0  0  0  0  0  0  0  0  0  0  0  0
   -8.0429    0.8819  -17.2815 H   0  0  0  0  0  0  0  0  0  0  0  0
   -6.4870   -0.9579  -14.4638 H   0  0  0  0  0  0  0  0  0  0  0  0
   -6.6793    0.6778  -15.1646 H   0  0  0  0  0  0  0  0  0  0  0  0
   -9.7148    0.7961  -15.4493 H   0  0  0  0  0  0  0  0  0  0  0  0
  -10.1593   -0.8185  -14.8169 H   0  0  0  0  0  0  0  0  0  0  0  0
  -10.0476   -2.5388  -18.9313 H   0  0  0  0  0  0  0  0  0  0  0  0
   -8.3472   -1.8768  -11.1918 H   0  0  0  0  0  0  0  0  0  0  0  0
   -8.4100   -0.6312   -9.9244 H   0  0  0  0  0  0  0  0  0  0  0  0
   -9.3662   -2.1225   -9.7844 H   0  0  0  0  0  0  0  0  0  0  0  0
  -11.9224    0.5043  -10.7415 H   0  0  0  0  0  0  0  0  0  0  0  0
  -10.5446    0.8247   -9.7032 H   0  0  0  0  0  0  0  0  0  0  0  0
  -11.4889   -0.6637   -9.4735 H   0  0  0  0  0  0  0  0  0  0  0  0
  -11.7972   -1.2396  -12.5508 H   0  0  0  0  0  0  0  0  0  0  0  0
  -10.3292   -2.2168  -12.7694 H   0  0  0  0  0  0  0  0  0  0  0  0
  -11.4000   -2.4799  -11.3742 H   0  0  0  0  0  0  0  0  0  0  0  0
   -8.0686   -3.7708  -19.0510 H   0  0  0  0  0  0  0  0  0  0  0  0
   -7.9385   -2.3950  -19.9209 H   0  0  0  0  0  0  0  0  0  0  0  0
  1 14  1  0  0  0  0
  1 16  2  0  0  0  0
  1 17  1  0  0  0  0
  2  4  1  0  0  0  0
  2  8  1  0  0  0  0
  3  5  1  0  0  0  0
  3  8  1  0  0  0  0
  4  9  1  0  0  0  0
  5  9  1  0  0  0  0
  6  9  1  0  0  0  0
  6 14  1  0  0  0  0
  7  9  1  0  0  0  0
  7 14  1  0  0  0  0
  8 15  1  0  0  0  0
 10 13  1  0  0  0  0
 11 13  1  0  0  0  0
 12 13  1  0  0  0  0
 13 17  1  0  0  0  0
  2 18  1  0  0  0  0
  2 19  1  0  0  0  0
  3 20  1  0  0  0  0
  3 21  1  0  0  0  0
  4 22  1  0  0  0  0
  4 23  1  0  0  0  0
  5 24  1  0  0  0  0
  5 25  1  0  0  0  0
  6 26  1  0  0  0  0
  6 27  1  0  0  0  0
  7 28  1  0  0  0  0
  7 29  1  0  0  0  0
  8 30  1  0  0  0  0
 10 31  1  0  0  0  0
 10 32  1  0  0  0  0
 10 33  1  0  0  0  0
 11 34  1  0  0  0  0
 11 35  1  0  0  0  0
 11 36  1  0  0  0  0
 12 37  1  0  0  0  0
 12 38  1  0  0  0  0
 12 39  1  0  0  0  0
 15 40  1  0  0  0  0
 15 41  1  0  0  0  0
M  END
> <id>
EN300-3145074

> <smiles>
CC(C)(C)OC(=O)N1CC2(C1)CCC(N)CC2

> <MDLNUMBER>
MFCD21648502

> <IUPAC Name>
tert-butyl 7-amino-2-azaspiro[3.5]nonane-2-carboxylate

> <CAS>
1408075-19-3

> <URL>
https://www.enaminestore.com/catalog/EN300-3145074

> <ROCS_ShapeQuery>
amalgated

> <ROCS_TanimotoCombo>
0.861 

> <ROCS_ShapeTanimoto>
0.563 

> <ROCS_ColorTanimoto>
0.298 

> <ROCS_RefTversky>
0.532 

> <ROCS_RefColorTversky>
0.430 

> <ROCS_RefTverskyCombo>
0.962 

> <ROCS_FitTversky>
1.114 

> <ROCS_FitColorTversky>
0.494 

> <ROCS_FitTverskyCombo>
1.608 

> <ROCS_ColorScore>
-2.989

> <ROCS_Overlap>
873.559

> <ROCS_Rank>
147                 

$$$$
untitled-dbase-23556_138
  -OEChem-10092318153D

 41 42  0     0  0  0  0  0  0999 V2000
   -8.4026    0.1273  -12.6684 C   0  0  0  0  0  0  0  0  0  0  0  0
   -9.3027   -2.8413  -16.9318 C   0  0  0  0  0  0  0  0  0  0  0  0
   -9.1013   -0.7161  -18.2766 C   0  0  0  0  0  0  0  0  0  0  0  0
   -8.2160   -2.3459  -15.9740 C   0  0  0  0  0  0  0  0  0  0  0  0
   -8.0063   -0.2129  -17.3333 C   0  0  0  0  0  0  0  0  0  0  0  0
   -7.1984   -0.2467  -14.8925 C   0  0  0  0  0  0  0  0  0  0  0  0
   -9.3289   -0.1621  -15.0894 C   0  0  0  0  0  0  0  0  0  0  0  0
   -9.1690   -2.2486  -18.3419 C   0  0  0  0  0  0  0  0  0  0  0  0
   -8.1975   -0.8091  -15.9343 C   0  0  0  0  0  0  0  0  0  0  0  0
   -9.0052   -1.3600  -10.4841 C   0  0  0  0  0  0  0  0  0  0  0  0
  -11.0845    0.0247  -10.2226 C   0  0  0  0  0  0  0  0  0  0  0  0
  -10.9609   -1.7174  -12.0276 C   0  0  0  0  0  0  0  0  0  0  0  0
  -10.1710   -0.6937  -11.2133 C   0  0  0  0  0  0  0  0  0  0  0  0
   -8.3459    0.0038  -14.0360 N   0  0  0  0  0  0  0  0  0  0  0  0
   -7.9808   -2.7837  -19.0095 N   0  0  0  0  0  0  0  0  0  0  0  0
   -7.4102    0.0333  -11.9464 O   0  0  0  0  0  0  0  0  0  0  0  0
   -9.6429    0.2960  -12.1114 O   0  0  0  0  0  0  0  0  0  0  0  0
   -9.2665   -3.9436  -16.9837 H   0  0  0  0  0  0  0  0  0  0  0  0
  -10.2912   -2.5899  -16.5114 H   0  0  0  0  0  0  0  0  0  0  0  0
  -10.0726   -0.3104  -17.9459 H   0  0  0  0  0  0  0  0  0  0  0  0
   -8.9280   -0.3047  -19.2864 H   0  0  0  0  0  0  0  0  0  0  0  0
   -8.4078   -2.7420  -14.9694 H   0  0  0  0  0  0  0  0  0  0  0  0
   -7.2448   -2.7421  -16.2925 H   0  0  0  0  0  0  0  0  0  0  0  0
   -7.0250   -0.4796  -17.7424 H   0  0  0  0  0  0  0  0  0  0  0  0
   -8.0429    0.8819  -17.2815 H   0  0  0  0  0  0  0  0  0  0  0  0
   -6.4870   -0.9579  -14.4638 H   0  0  0  0  0  0  0  0  0  0  0  0
   -6.6793    0.6778  -15.1646 H   0  0  0  0  0  0  0  0  0  0  0  0
   -9.7148    0.7961  -15.4493 H   0  0  0  0  0  0  0  0  0  0  0  0
  -10.1593   -0.8185  -14.8169 H   0  0  0  0  0  0  0  0  0  0  0  0
  -10.0476   -2.5388  -18.9313 H   0  0  0  0  0  0  0  0  0  0  0  0
   -8.3472   -1.8768  -11.1918 H   0  0  0  0  0  0  0  0  0  0  0  0
   -8.4100   -0.6312   -9.9244 H   0  0  0  0  0  0  0  0  0  0  0  0
   -9.3662   -2.1225   -9.7844 H   0  0  0  0  0  0  0  0  0  0  0  0
  -11.9224    0.5043  -10.7415 H   0  0  0  0  0  0  0  0  0  0  0  0
  -10.5446    0.8247   -9.7032 H   0  0  0  0  0  0  0  0  0  0  0  0
  -11.4889   -0.6637   -9.4735 H   0  0  0  0  0  0  0  0  0  0  0  0
  -11.7972   -1.2396  -12.5508 H   0  0  0  0  0  0  0  0  0  0  0  0
  -10.3292   -2.2168  -12.7694 H   0  0  0  0  0  0  0  0  0  0  0  0
  -11.4000   -2.4799  -11.3742 H   0  0  0  0  0  0  0  0  0  0  0  0
   -8.0686   -3.7708  -19.0510 H   0  0  0  0  0  0  0  0  0  0  0  0
   -7.9385   -2.3950  -19.9209 H   0  0  0  0  0  0  0  0  0  0  0  0
  1 14  1  0  0  0  0
  1 16  2  0  0  0  0
  1 17  1  0  0  0  0
  2  4  1  0  0  0  0
  2  8  1  0  0  0  0
  3  5  1  0  0  0  0
  3  8  1  0  0  0  0
  4  9  1  0  0  0  0
  5  9  1  0  0  0  0
  6  9  1  0  0  0  0
  6 14  1  0  0  0  0
  7  9  1  0  0  0  0
  7 14  1  0  0  0  0
  8 15  1  0  0  0  0
 10 13  1  0  0  0  0
 11 13  1  0  0  0  0
 12 13  1  0  0  0  0
 13 17  1  0  0  0  0
  2 18  1  0  0  0  0
  2 19  1  0  0  0  0
  3 20  1  0  0  0  0
  3 21  1  0  0  0  0
  4 22  1  0  0  0  0
  4 23  1  0  0  0  0
  5 24  1  0  0  0  0
  5 25  1  0  0  0  0
  6 26  1  0  0  0  0
  6 27  1  0  0  0  0
  7 28  1  0  0  0  0
  7 29  1  0  0  0  0
  8 30  1  0  0  0  0
 10 31  1  0  0  0  0
 10 32  1  0  0  0  0
 10 33  1  0  0  0  0
 11 34  1  0  0  0  0
 11 35  1  0  0  0  0
 11 36  1  0  0  0  0
 12 37  1  0  0  0  0
 12 38  1  0  0  0  0
 12 39  1  0  0  0  0
 15 40  1  0  0  0  0
 15 41  1  0  0  0  0
M  END
> <id>
EN300-6478932

> <smiles>
Cl.CC(C)(C)OC(=O)N1CC2(C1)CCC(N)CC2

> <MDLNUMBER>
MFCD31667827

> <IUPAC Name>
tert-butyl 7-amino-2-azaspiro[3.5]nonane-2-carboxylate hydrochloride

> <CAS>
2241139-81-9

> <Purity>
95

> <URL>
https://www.enaminestore.com/catalog/EN300-6478932

> <Saltdate>
Cl

> <ROCS_ShapeQuery>
amalgated

> <ROCS_TanimotoCombo>
0.861 

> <ROCS_ShapeTanimoto>
0.563 

> <ROCS_ColorTanimoto>
0.298 

> <ROCS_RefTversky>
0.532 

> <ROCS_RefColorTversky>
0.430 

> <ROCS_RefTverskyCombo>
0.962 

> <ROCS_FitTversky>
1.114 

> <ROCS_FitColorTversky>
0.494 

> <ROCS_FitTverskyCombo>
1.608 

> <ROCS_ColorScore>
-2.989

> <ROCS_Overlap>
873.559

> <ROCS_Rank>
148                 

$$$$
untitled-dbase-40354_33
  -OEChem-10092318153D

 41 42  0     1  0  0  0  0  0999 V2000
   -8.5723   -0.2732  -14.2794 C   0  0  0  0  0  0  0  0  0  0  0  0
   -9.6914   -4.5211  -18.6642 C   0  0  0  0  0  0  0  0  0  0  0  0
   -9.9219   -3.9527  -17.2677 C   0  0  0  0  0  0  0  0  0  0  0  0
   -7.7780   -0.7489  -17.8242 C   0  0  0  0  0  0  0  0  0  0  0  0
   -8.2646   -4.2559  -19.1374 C   0  0  0  0  0  0  0  0  0  0  0  0
   -8.5282    0.0798  -16.7785 C   0  0  0  0  0  0  0  0  0  0  0  0
   -9.6145   -1.9310  -15.7825 C   0  0  0  0  0  0  0  0  0  0  0  0
   -9.5303   -2.4714  -17.2181 C   0  0  1  0  0  0  0  0  0  0  0  0
   -8.1143   -2.2512  -17.7770 C   0  0  1  0  0  0  0  0  0  0  0  0
   -9.3121    1.1651  -11.9194 C   0  0  0  0  0  0  0  0  0  0  0  0
  -10.3542   -0.9894  -11.1568 C   0  0  0  0  0  0  0  0  0  0  0  0
   -7.8783   -0.8725  -11.5627 C   0  0  0  0  0  0  0  0  0  0  0  0
   -9.2490   -0.3594  -12.0017 C   0  0  0  0  0  0  0  0  0  0  0  0
   -7.9501   -2.8286  -19.1156 N   0  0  0  0  0  0  0  0  0  0  0  0
   -8.8518   -0.6972  -15.5830 N   0  0  0  0  0  0  0  0  0  0  0  0
   -7.6253    0.4526  -13.9806 O   0  0  0  0  0  0  0  0  0  0  0  0
   -9.4687   -0.7518  -13.3615 O   0  0  0  0  0  0  0  0  0  0  0  0
   -9.8876   -5.5977  -18.6626 H   0  0  0  0  0  0  0  0  0  0  0  0
  -10.4005   -4.0650  -19.3643 H   0  0  0  0  0  0  0  0  0  0  0  0
  -10.9758   -4.0772  -16.9862 H   0  0  0  0  0  0  0  0  0  0  0  0
   -9.3285   -4.5230  -16.5391 H   0  0  0  0  0  0  0  0  0  0  0  0
   -8.0004   -0.3429  -18.8318 H   0  0  0  0  0  0  0  0  0  0  0  0
   -6.6891   -0.6040  -17.6824 H   0  0  0  0  0  0  0  0  0  0  0  0
   -7.5511   -4.8081  -18.5146 H   0  0  0  0  0  0  0  0  0  0  0  0
   -8.1518   -4.6278  -20.1608 H   0  0  0  0  0  0  0  0  0  0  0  0
   -7.9096    0.9285  -16.4536 H   0  0  0  0  0  0  0  0  0  0  0  0
   -9.4379    0.5006  -17.2262 H   0  0  0  0  0  0  0  0  0  0  0  0
  -10.6754   -1.7905  -15.5052 H   0  0  0  0  0  0  0  0  0  0  0  0
   -9.2143   -2.6738  -15.0648 H   0  0  0  0  0  0  0  0  0  0  0  0
  -10.2514   -1.9081  -17.8253 H   0  0  0  0  0  0  0  0  0  0  0  0
   -7.3738   -2.7262  -17.1025 H   0  0  0  0  0  0  0  0  0  0  0  0
   -8.5204    1.6211  -12.5245 H   0  0  0  0  0  0  0  0  0  0  0  0
  -10.2780    1.5481  -12.2646 H   0  0  0  0  0  0  0  0  0  0  0  0
   -9.1514    1.5081  -10.8909 H   0  0  0  0  0  0  0  0  0  0  0  0
  -10.3127   -2.0832  -11.2130 H   0  0  0  0  0  0  0  0  0  0  0  0
  -11.3434   -0.6986  -11.5284 H   0  0  0  0  0  0  0  0  0  0  0  0
  -10.2777   -0.6931  -10.1057 H   0  0  0  0  0  0  0  0  0  0  0  0
   -7.8328   -1.9660  -11.6217 H   0  0  0  0  0  0  0  0  0  0  0  0
   -7.0757   -0.4593  -12.1821 H   0  0  0  0  0  0  0  0  0  0  0  0
   -7.6810   -0.6108  -10.5168 H   0  0  0  0  0  0  0  0  0  0  0  0
   -6.9867   -2.6906  -19.4307 H   0  0  0  0  0  0  0  0  0  0  0  0
  1 15  1  0  0  0  0
  1 16  2  0  0  0  0
  1 17  1  0  0  0  0
  2  3  1  0  0  0  0
  2  5  1  0  0  0  0
  3  8  1  1  0  0  0
  4  6  1  0  0  0  0
  4  9  1  6  0  0  0
  5 14  1  0  0  0  0
  6 15  1  0  0  0  0
  7  8  1  0  0  0  0
  7 15  1  0  0  0  0
  8  9  1  0  0  0  0
  9 14  1  0  0  0  0
 10 13  1  0  0  0  0
 11 13  1  0  0  0  0
 12 13  1  0  0  0  0
 13 17  1  0  0  0  0
  2 18  1  0  0  0  0
  2 19  1  0  0  0  0
  3 20  1  0  0  0  0
  3 21  1  0  0  0  0
  4 22  1  0  0  0  0
  4 23  1  0  0  0  0
  5 24  1  0  0  0  0
  5 25  1  0  0  0  0
  6 26  1  0  0  0  0
  6 27  1  0  0  0  0
  7 28  1  0  0  0  0
  7 29  1  0  0  0  0
  8 30  1  0  0  0  0
  9 31  1  0  0  0  0
 10 32  1  0  0  0  0
 10 33  1  0  0  0  0
 10 34  1  0  0  0  0
 11 35  1  0  0  0  0
 11 36  1  0  0  0  0
 11 37  1  0  0  0  0
 12 38  1  0  0  0  0
 12 39  1  0  0  0  0
 12 40  1  0  0  0  0
 14 41  1  0  0  0  0
M  END
> <id>
EN300-7009939

> <smiles>
CC(C)(C)OC(=O)N1CC[C@@H]2NCCC[C@H]2C1 |&1:10,15,r|

> <MDLNUMBER>
MFCD17016451

> <IUPAC Name>
rac-tert-butyl (4aR,8aR)-decahydro-1,6-naphthyridine-6-carboxylate

> <CAS>
616875-91-3

> <URL>
https://www.enaminestore.com/catalog/EN300-7009939

> <ROCS_ShapeQuery>
amalgated

> <ROCS_TanimotoCombo>
0.860 

> <ROCS_ShapeTanimoto>
0.588 

> <ROCS_ColorTanimoto>
0.272 

> <ROCS_RefTversky>
0.547 

> <ROCS_RefColorTversky>
0.400 

> <ROCS_RefTverskyCombo>
0.947 

> <ROCS_FitTversky>
1.146 

> <ROCS_FitColorTversky>
0.459 

> <ROCS_FitTverskyCombo>
1.606 

> <ROCS_ColorScore>
-2.781

> <ROCS_Overlap>
898.547

> <ROCS_Rank>
149                 

$$$$
untitled-dbase-40501_33
  -OEChem-10092318153D

 41 42  0     1  0  0  0  0  0999 V2000
   -8.5723   -0.2732  -14.2794 C   0  0  0  0  0  0  0  0  0  0  0  0
   -9.6914   -4.5211  -18.6642 C   0  0  0  0  0  0  0  0  0  0  0  0
   -9.9219   -3.9527  -17.2677 C   0  0  0  0  0  0  0  0  0  0  0  0
   -7.7780   -0.7489  -17.8242 C   0  0  0  0  0  0  0  0  0  0  0  0
   -8.2646   -4.2559  -19.1374 C   0  0  0  0  0  0  0  0  0  0  0  0
   -8.5282    0.0798  -16.7785 C   0  0  0  0  0  0  0  0  0  0  0  0
   -9.6145   -1.9310  -15.7825 C   0  0  0  0  0  0  0  0  0  0  0  0
   -9.5303   -2.4714  -17.2181 C   0  0  1  0  0  0  0  0  0  0  0  0
   -8.1143   -2.2512  -17.7770 C   0  0  1  0  0  0  0  0  0  0  0  0
   -9.3121    1.1651  -11.9194 C   0  0  0  0  0  0  0  0  0  0  0  0
  -10.3542   -0.9894  -11.1568 C   0  0  0  0  0  0  0  0  0  0  0  0
   -7.8783   -0.8725  -11.5627 C   0  0  0  0  0  0  0  0  0  0  0  0
   -9.2490   -0.3594  -12.0017 C   0  0  0  0  0  0  0  0  0  0  0  0
   -7.9501   -2.8286  -19.1156 N   0  0  0  0  0  0  0  0  0  0  0  0
   -8.8518   -0.6972  -15.5830 N   0  0  0  0  0  0  0  0  0  0  0  0
   -7.6253    0.4526  -13.9806 O   0  0  0  0  0  0  0  0  0  0  0  0
   -9.4687   -0.7518  -13.3615 O   0  0  0  0  0  0  0  0  0  0  0  0
   -9.8876   -5.5977  -18.6626 H   0  0  0  0  0  0  0  0  0  0  0  0
  -10.4005   -4.0650  -19.3643 H   0  0  0  0  0  0  0  0  0  0  0  0
  -10.9758   -4.0772  -16.9862 H   0  0  0  0  0  0  0  0  0  0  0  0
   -9.3285   -4.5230  -16.5391 H   0  0  0  0  0  0  0  0  0  0  0  0
   -8.0004   -0.3429  -18.8318 H   0  0  0  0  0  0  0  0  0  0  0  0
   -6.6891   -0.6040  -17.6824 H   0  0  0  0  0  0  0  0  0  0  0  0
   -7.5511   -4.8081  -18.5146 H   0  0  0  0  0  0  0  0  0  0  0  0
   -8.1518   -4.6278  -20.1608 H   0  0  0  0  0  0  0  0  0  0  0  0
   -7.9096    0.9285  -16.4536 H   0  0  0  0  0  0  0  0  0  0  0  0
   -9.4379    0.5006  -17.2262 H   0  0  0  0  0  0  0  0  0  0  0  0
  -10.6754   -1.7905  -15.5052 H   0  0  0  0  0  0  0  0  0  0  0  0
   -9.2143   -2.6738  -15.0648 H   0  0  0  0  0  0  0  0  0  0  0  0
  -10.2514   -1.9081  -17.8253 H   0  0  0  0  0  0  0  0  0  0  0  0
   -7.3738   -2.7262  -17.1025 H   0  0  0  0  0  0  0  0  0  0  0  0
   -8.5204    1.6211  -12.5245 H   0  0  0  0  0  0  0  0  0  0  0  0
  -10.2780    1.5481  -12.2646 H   0  0  0  0  0  0  0  0  0  0  0  0
   -9.1514    1.5081  -10.8909 H   0  0  0  0  0  0  0  0  0  0  0  0
  -10.3127   -2.0832  -11.2130 H   0  0  0  0  0  0  0  0  0  0  0  0
  -11.3434   -0.6986  -11.5284 H   0  0  0  0  0  0  0  0  0  0  0  0
  -10.2777   -0.6931  -10.1057 H   0  0  0  0  0  0  0  0  0  0  0  0
   -7.8328   -1.9660  -11.6217 H   0  0  0  0  0  0  0  0  0  0  0  0
   -7.0757   -0.4593  -12.1821 H   0  0  0  0  0  0  0  0  0  0  0  0
   -7.6810   -0.6108  -10.5168 H   0  0  0  0  0  0  0  0  0  0  0  0
   -6.9867   -2.6906  -19.4307 H   0  0  0  0  0  0  0  0  0  0  0  0
  1 15  1  0  0  0  0
  1 16  2  0  0  0  0
  1 17  1  0  0  0  0
  2  3  1  0  0  0  0
  2  5  1  0  0  0  0
  3  8  1  1  0  0  0
  4  6  1  0  0  0  0
  4  9  1  6  0  0  0
  5 14  1  0  0  0  0
  6 15  1  0  0  0  0
  7  8  1  0  0  0  0
  7 15  1  0  0  0  0
  8  9  1  0  0  0  0
  9 14  1  0  0  0  0
 10 13  1  0  0  0  0
 11 13  1  0  0  0  0
 12 13  1  0  0  0  0
 13 17  1  0  0  0  0
  2 18  1  0  0  0  0
  2 19  1  0  0  0  0
  3 20  1  0  0  0  0
  3 21  1  0  0  0  0
  4 22  1  0  0  0  0
  4 23  1  0  0  0  0
  5 24  1  0  0  0  0
  5 25  1  0  0  0  0
  6 26  1  0  0  0  0
  6 27  1  0  0  0  0
  7 28  1  0  0  0  0
  7 29  1  0  0  0  0
  8 30  1  0  0  0  0
  9 31  1  0  0  0  0
 10 32  1  0  0  0  0
 10 33  1  0  0  0  0
 10 34  1  0  0  0  0
 11 35  1  0  0  0  0
 11 36  1  0  0  0  0
 11 37  1  0  0  0  0
 12 38  1  0  0  0  0
 12 39  1  0  0  0  0
 12 40  1  0  0  0  0
 14 41  1  0  0  0  0
M  END
> <id>
EN300-21680533

> <smiles>
Cl.CC(C)(C)OC(=O)N1CC[C@@H]2NCCC[C@H]2C1 |&1:11,16,r|

> <MDLNUMBER>
MFCD28892640

> <IUPAC Name>
rac-tert-butyl (4aR,8aR)-decahydro-1,6-naphthyridine-6-carboxylate hydrochloride

> <CAS>
2490344-78-8

> <Purity>
95

> <URL>
https://www.enaminestore.com/catalog/EN300-21680533

> <Saltdate>
Cl

> <ROCS_ShapeQuery>
amalgated

> <ROCS_TanimotoCombo>
0.860 

> <ROCS_ShapeTanimoto>
0.588 

> <ROCS_ColorTanimoto>
0.272 

> <ROCS_RefTversky>
0.547 

> <ROCS_RefColorTversky>
0.400 

> <ROCS_RefTverskyCombo>
0.947 

> <ROCS_FitTversky>
1.146 

> <ROCS_FitColorTversky>
0.459 

> <ROCS_FitTverskyCombo>
1.606 

> <ROCS_ColorScore>
-2.781

> <ROCS_Overlap>
898.547

> <ROCS_Rank>
150                 

$$$$
untitled-dbase-17874_96
  -OEChem-10092318153D

 41 42  0     1  0  0  0  0  0999 V2000
   -8.6649   -0.2982  -14.2823 C   0  0  0  0  0  0  0  0  0  0  0  0
   -7.2257    1.2904  -18.4285 C   0  0  0  0  0  0  0  0  0  0  0  0
   -6.8078   -0.1476  -18.7803 C   0  0  0  0  0  0  0  0  0  0  0  0
   -8.6100    0.7329  -18.0564 C   0  0  0  0  0  0  0  0  0  0  0  0
   -9.4385   -2.6208  -17.1712 C   0  0  0  0  0  0  0  0  0  0  0  0
   -9.8089   -1.7003  -16.0191 C   0  0  0  0  0  0  0  0  0  0  0  0
   -7.4564   -0.8794  -16.3721 C   0  0  0  0  0  0  0  0  0  0  0  0
   -8.7741   -1.8607  -18.3306 C   0  0  1  0  0  0  0  0  0  0  0  0
   -7.9332   -0.6681  -17.8166 C   0  0  0  0  0  0  0  0  0  0  0  0
  -10.0947    1.1210  -12.2511 C   0  0  0  0  0  0  0  0  0  0  0  0
  -10.5410   -1.1372  -11.2457 C   0  0  0  0  0  0  0  0  0  0  0  0
   -8.1801   -0.3065  -11.4567 C   0  0  0  0  0  0  0  0  0  0  0  0
   -9.5731   -0.3055  -12.0847 C   0  0  0  0  0  0  0  0  0  0  0  0
   -8.6483   -0.9528  -15.5193 N   0  0  0  0  0  0  0  0  0  0  0  0
   -7.9593   -2.8019  -19.1073 N   0  0  0  0  0  0  0  0  0  0  0  0
   -8.0221    0.7176  -14.0247 O   0  0  0  0  0  0  0  0  0  0  0  0
   -9.4905   -0.9144  -13.3783 O   0  0  0  0  0  0  0  0  0  0  0  0
   -6.6771    1.7183  -17.5827 H   0  0  0  0  0  0  0  0  0  0  0  0
   -7.2101    2.0037  -19.2558 H   0  0  0  0  0  0  0  0  0  0  0  0
   -6.9683   -0.3924  -19.8370 H   0  0  0  0  0  0  0  0  0  0  0  0
   -5.7820   -0.4168  -18.5141 H   0  0  0  0  0  0  0  0  0  0  0  0
   -9.0844    1.2015  -17.1907 H   0  0  0  0  0  0  0  0  0  0  0  0
   -9.3193    0.7552  -18.8918 H   0  0  0  0  0  0  0  0  0  0  0  0
   -8.7780   -3.4203  -16.8123 H   0  0  0  0  0  0  0  0  0  0  0  0
  -10.3485   -3.1143  -17.5389 H   0  0  0  0  0  0  0  0  0  0  0  0
  -10.6006   -1.0053  -16.3407 H   0  0  0  0  0  0  0  0  0  0  0  0
  -10.2236   -2.2654  -15.1684 H   0  0  0  0  0  0  0  0  0  0  0  0
   -6.9033   -1.8207  -16.2588 H   0  0  0  0  0  0  0  0  0  0  0  0
   -6.7844   -0.0775  -16.0475 H   0  0  0  0  0  0  0  0  0  0  0  0
   -9.5626   -1.5114  -19.0057 H   0  0  0  0  0  0  0  0  0  0  0  0
   -9.4028    1.7212  -12.8528 H   0  0  0  0  0  0  0  0  0  0  0  0
  -11.0780    1.1374  -12.7324 H   0  0  0  0  0  0  0  0  0  0  0  0
  -10.1760    1.6234  -11.2804 H   0  0  0  0  0  0  0  0  0  0  0  0
  -10.1707   -2.1615  -11.1237 H   0  0  0  0  0  0  0  0  0  0  0  0
  -11.5158   -1.2182  -11.7402 H   0  0  0  0  0  0  0  0  0  0  0  0
  -10.6912   -0.7022  -10.2524 H   0  0  0  0  0  0  0  0  0  0  0  0
   -7.8058   -1.3297  -11.3372 H   0  0  0  0  0  0  0  0  0  0  0  0
   -7.4633    0.2550  -12.0645 H   0  0  0  0  0  0  0  0  0  0  0  0
   -8.2049    0.1329  -10.4529 H   0  0  0  0  0  0  0  0  0  0  0  0
   -8.5467   -3.5434  -19.4021 H   0  0  0  0  0  0  0  0  0  0  0  0
   -7.5874   -2.3134  -19.8851 H   0  0  0  0  0  0  0  0  0  0  0  0
  1 14  1  0  0  0  0
  1 16  2  0  0  0  0
  1 17  1  0  0  0  0
  2  3  1  0  0  0  0
  2  4  1  0  0  0  0
  3  9  1  0  0  0  0
  4  9  1  0  0  0  0
  5  6  1  0  0  0  0
  5  8  1  0  0  0  0
  6 14  1  0  0  0  0
  7  9  1  0  0  0  0
  7 14  1  0  0  0  0
  8  9  1  0  0  0  0
  8 15  1  0  0  0  0
 10 13  1  0  0  0  0
 11 13  1  0  0  0  0
 12 13  1  0  0  0  0
 13 17  1  0  0  0  0
  2 18  1  0  0  0  0
  2 19  1  0  0  0  0
  3 20  1  0  0  0  0
  3 21  1  0  0  0  0
  4 22  1  0  0  0  0
  4 23  1  0  0  0  0
  5 24  1  0  0  0  0
  5 25  1  0  0  0  0
  6 26  1  0  0  0  0
  6 27  1  0  0  0  0
  7 28  1  0  0  0  0
  7 29  1  0  0  0  0
  8 30  1  0  0  0  0
 10 31  1  0  0  0  0
 10 32  1  0  0  0  0
 10 33  1  0  0  0  0
 11 34  1  0  0  0  0
 11 35  1  0  0  0  0
 11 36  1  0  0  0  0
 12 37  1  0  0  0  0
 12 38  1  0  0  0  0
 12 39  1  0  0  0  0
 15 40  1  0  0  0  0
 15 41  1  0  0  0  0
M  END
> <id>
EN300-1448574

> <smiles>
CC(C)(C)OC(=O)N1CCC(N)C2(CCC2)C1

> <MDLNUMBER>
MFCD22034546

> <IUPAC Name>
tert-butyl 9-amino-6-azaspiro[3.5]nonane-6-carboxylate

> <CAS>
1369143-47-4

> <Purity>
95

> <URL>
https://www.enaminestore.com/catalog/EN300-1448574

> <ROCS_ShapeQuery>
amalgated

> <ROCS_TanimotoCombo>
0.860 

> <ROCS_ShapeTanimoto>
0.576 

> <ROCS_ColorTanimoto>
0.284 

> <ROCS_RefTversky>
0.540 

> <ROCS_RefColorTversky>
0.414 

> <ROCS_RefTverskyCombo>
0.954 

> <ROCS_FitTversky>
1.130 

> <ROCS_FitColorTversky>
0.475 

> <ROCS_FitTverskyCombo>
1.605 

> <ROCS_ColorScore>
-2.876

> <ROCS_Overlap>
887.543

> <ROCS_Rank>
151                 

$$$$
untitled-dbase-45572_12
  -OEChem-10092318153D

 42 44  0     1  0  0  0  0  0999 V2000
   -8.2968   -1.2685  -18.5614 C   0  0  0  0  0  0  0  0  0  0  0  0
   -8.8425   -2.4920  -18.1860 C   0  0  0  0  0  0  0  0  0  0  0  0
   -8.8545   -1.7509  -15.8937 C   0  0  0  0  0  0  0  0  0  0  0  0
   -8.0072   -0.2656  -17.6137 C   0  0  0  0  0  0  0  0  0  0  0  0
   -8.3695   -0.4803  -16.2532 C   0  0  0  0  0  0  0  0  0  0  0  0
   -9.0957   -2.7416  -16.8486 C   0  0  0  0  0  0  0  0  0  0  0  0
   -8.7339    0.6588  -13.9785 C   0  0  0  0  0  0  0  0  0  0  0  0
   -6.1125    2.5227  -19.1292 C   0  0  0  0  0  0  0  0  0  0  0  0
   -6.4180    3.0012  -17.7136 C   0  0  0  0  0  0  0  0  0  0  0  0
   -7.0705    1.3469  -19.3400 C   0  0  0  0  0  0  0  0  0  0  0  0
   -7.6325    1.8622  -15.7846 C   0  0  0  0  0  0  0  0  0  0  0  0
   -6.7196    1.6967  -16.9765 C   0  0  1  0  0  0  0  0  0  0  0  0
  -10.7880   -0.0819  -12.1188 C   0  0  0  0  0  0  0  0  0  0  0  0
   -9.2485   -1.9534  -11.4580 C   0  0  0  0  0  0  0  0  0  0  0  0
   -8.5354    0.4310  -11.1202 C   0  0  0  0  0  0  0  0  0  0  0  0
   -9.3315   -0.5292  -12.0028 C   0  0  0  0  0  0  0  0  0  0  0  0
   -8.2190    0.6041  -15.2981 N   0  0  0  0  0  0  0  0  0  0  0  0
   -7.3622    0.8891  -17.9904 N   0  0  3  0  0  0  0  0  0  0  0  0
   -9.1958    1.6868  -13.4790 O   0  0  0  0  0  0  0  0  0  0  0  0
   -8.7501   -0.5333  -13.3125 O   0  0  0  0  0  0  0  0  0  0  0  0
   -9.7929   -4.4175  -16.3170 Br  0  0  0  0  0  0  0  0  0  0  0  0
   -8.0873   -1.1113  -19.6169 H   0  0  0  0  0  0  0  0  0  0  0  0
   -9.0639   -3.2309  -18.9496 H   0  0  0  0  0  0  0  0  0  0  0  0
   -9.1064   -1.9862  -14.8623 H   0  0  0  0  0  0  0  0  0  0  0  0
   -6.2540    3.3130  -19.8735 H   0  0  0  0  0  0  0  0  0  0  0  0
   -5.0732    2.1751  -19.1906 H   0  0  0  0  0  0  0  0  0  0  0  0
   -5.5757    3.5431  -17.2729 H   0  0  0  0  0  0  0  0  0  0  0  0
   -7.2900    3.6665  -17.7226 H   0  0  0  0  0  0  0  0  0  0  0  0
   -7.9891    1.6879  -19.8310 H   0  0  0  0  0  0  0  0  0  0  0  0
   -6.5974    0.5739  -19.9546 H   0  0  0  0  0  0  0  0  0  0  0  0
   -7.0662    2.3696  -14.9781 H   0  0  0  0  0  0  0  0  0  0  0  0
   -8.4823    2.5412  -16.0124 H   0  0  0  0  0  0  0  0  0  0  0  0
   -5.7817    1.2168  -16.6736 H   0  0  0  0  0  0  0  0  0  0  0  0
  -10.8519    0.9400  -12.5095 H   0  0  0  0  0  0  0  0  0  0  0  0
  -11.3616   -0.7424  -12.7772 H   0  0  0  0  0  0  0  0  0  0  0  0
  -11.2722   -0.0678  -11.1356 H   0  0  0  0  0  0  0  0  0  0  0  0
   -8.2052   -2.2785  -11.3732 H   0  0  0  0  0  0  0  0  0  0  0  0
   -9.7377   -2.6604  -12.1378 H   0  0  0  0  0  0  0  0  0  0  0  0
   -9.7190   -2.0373  -10.4731 H   0  0  0  0  0  0  0  0  0  0  0  0
   -7.4906    0.1104  -11.0368 H   0  0  0  0  0  0  0  0  0  0  0  0
   -8.5531    1.4516  -11.5161 H   0  0  0  0  0  0  0  0  0  0  0  0
   -8.9364    0.4461  -10.1003 H   0  0  0  0  0  0  0  0  0  0  0  0
  1  2  1  0  0  0  0
  1  4  2  0  0  0  0
  2  6  2  0  0  0  0
  3  5  2  0  0  0  0
  3  6  1  0  0  0  0
  4  5  1  0  0  0  0
  4 18  1  0  0  0  0
  5 17  1  0  0  0  0
  6 21  1  0  0  0  0
  7 17  1  0  0  0  0
  7 19  2  0  0  0  0
  7 20  1  0  0  0  0
  8  9  1  0  0  0  0
  8 10  1  0  0  0  0
  9 12  1  0  0  0  0
 10 18  1  0  0  0  0
 11 12  1  0  0  0  0
 11 17  1  0  0  0  0
 12 18  1  0  0  0  0
 13 16  1  0  0  0  0
 14 16  1  0  0  0  0
 15 16  1  0  0  0  0
 16 20  1  0  0  0  0
  1 22  1  0  0  0  0
  2 23  1  0  0  0  0
  3 24  1  0  0  0  0
  8 25  1  0  0  0  0
  8 26  1  0  0  0  0
  9 27  1  0  0  0  0
  9 28  1  0  0  0  0
 10 29  1  0  0  0  0
 10 30  1  0  0  0  0
 11 31  1  0  0  0  0
 11 32  1  0  0  0  0
 12 33  1  0  0  0  0
 13 34  1  0  0  0  0
 13 35  1  0  0  0  0
 13 36  1  0  0  0  0
 14 37  1  0  0  0  0
 14 38  1  0  0  0  0
 14 39  1  0  0  0  0
 15 40  1  0  0  0  0
 15 41  1  0  0  0  0
 15 42  1  0  0  0  0
M  END
> <id>
EN300-28298854

> <smiles>
CC(C)(C)OC(=O)N1CC2CCCN2C=3C=CC(Br)=CC13

> <IUPAC Name>
tert-butyl 7-bromo-1H,2H,3H,3aH,4H,5H-pyrrolo[1,2-a]quinoxaline-5-carboxylate

> <CAS>
2680779-37-5

> <URL>
https://www.enaminestore.com/catalog/EN300-28298854

> <ROCS_ShapeQuery>
amalgated

> <ROCS_TanimotoCombo>
0.860 

> <ROCS_ShapeTanimoto>
0.682 

> <ROCS_ColorTanimoto>
0.178 

> <ROCS_RefTversky>
0.646 

> <ROCS_RefColorTversky>
0.283 

> <ROCS_RefTverskyCombo>
0.929 

> <ROCS_FitTversky>
1.089 

> <ROCS_FitColorTversky>
0.324 

> <ROCS_FitTverskyCombo>
1.413 

> <ROCS_ColorScore>
-1.966

> <ROCS_Overlap>
1068.021

> <ROCS_Rank>
152                 

$$$$
untitled-dbase-34830_0
  -OEChem-10092318153D

 42 43  0     1  0  0  0  0  0999 V2000
   -7.4570    1.3892  -17.5778 C   0  0  0  0  0  0  0  0  0  0  0  0
   -9.1646   -0.6707  -13.9661 C   0  0  0  0  0  0  0  0  0  0  0  0
   -7.8095    1.6773  -16.1416 C   0  0  0  0  0  0  0  0  0  0  0  0
   -9.7704   -1.6878  -17.2847 C   0  0  0  0  0  0  0  0  0  0  0  0
   -9.1560    1.0653  -15.7877 C   0  0  0  0  0  0  0  0  0  0  0  0
   -9.3637   -2.8672  -18.1756 C   0  0  0  0  0  0  0  0  0  0  0  0
   -7.0052   -2.3544  -17.8953 C   0  0  0  0  0  0  0  0  0  0  0  0
   -8.6425   -1.3592  -16.2965 C   0  0  1  0  0  0  0  0  0  0  0  0
   -7.3170   -1.1042  -17.0480 C   0  0  2  0  0  0  0  0  0  0  0  0
   -8.3224   -0.4775  -11.2357 C   0  0  0  0  0  0  0  0  0  0  0  0
   -9.9267    1.4482  -11.0706 C   0  0  0  0  0  0  0  0  0  0  0  0
  -10.7839   -0.8517  -11.6035 C   0  0  0  0  0  0  0  0  0  0  0  0
   -9.6209    0.1253  -11.7697 C   0  0  0  0  0  0  0  0  0  0  0  0
   -7.3281    0.0687  -17.9301 N   0  0  0  0  0  0  0  0  0  0  0  0
   -8.0821   -2.6440  -18.8483 N   0  0  0  0  0  0  0  0  0  0  0  0
   -9.0079   -0.3180  -15.3206 N   0  0  0  0  0  0  0  0  0  0  0  0
   -7.3076    2.3048  -18.3888 O   0  0  0  0  0  0  0  0  0  0  0  0
   -9.0505   -1.8140  -13.5268 O   0  0  0  0  0  0  0  0  0  0  0  0
   -9.4545    0.4030  -13.1650 O   0  0  0  0  0  0  0  0  0  0  0  0
   -7.0066    1.3391  -15.4778 H   0  0  0  0  0  0  0  0  0  0  0  0
   -7.8728    2.7669  -16.0325 H   0  0  0  0  0  0  0  0  0  0  0  0
  -10.0037   -0.8231  -17.9169 H   0  0  0  0  0  0  0  0  0  0  0  0
  -10.6851   -1.9496  -16.7395 H   0  0  0  0  0  0  0  0  0  0  0  0
   -9.6245    1.6760  -15.0104 H   0  0  0  0  0  0  0  0  0  0  0  0
   -9.8465    1.0717  -16.6381 H   0  0  0  0  0  0  0  0  0  0  0  0
   -9.3116   -3.7854  -17.5776 H   0  0  0  0  0  0  0  0  0  0  0  0
  -10.1382   -3.0260  -18.9339 H   0  0  0  0  0  0  0  0  0  0  0  0
   -6.0709   -2.2028  -18.4491 H   0  0  0  0  0  0  0  0  0  0  0  0
   -6.8401   -3.2217  -17.2435 H   0  0  0  0  0  0  0  0  0  0  0  0
   -8.4794   -2.2780  -15.7170 H   0  0  0  0  0  0  0  0  0  0  0  0
   -6.5073   -0.9539  -16.3233 H   0  0  0  0  0  0  0  0  0  0  0  0
   -8.0993   -1.4272  -11.7350 H   0  0  0  0  0  0  0  0  0  0  0  0
   -7.4740    0.1993  -11.3807 H   0  0  0  0  0  0  0  0  0  0  0  0
   -8.4066   -0.7028  -10.1664 H   0  0  0  0  0  0  0  0  0  0  0  0
  -10.8576    1.8842  -11.4507 H   0  0  0  0  0  0  0  0  0  0  0  0
   -9.1386    2.1843  -11.2662 H   0  0  0  0  0  0  0  0  0  0  0  0
  -10.0207    1.3204   -9.9874 H   0  0  0  0  0  0  0  0  0  0  0  0
  -11.7155   -0.4196  -11.9864 H   0  0  0  0  0  0  0  0  0  0  0  0
  -10.5979   -1.7935  -12.1298 H   0  0  0  0  0  0  0  0  0  0  0  0
  -10.9583   -1.0733  -10.5443 H   0  0  0  0  0  0  0  0  0  0  0  0
   -7.2282   -0.1197  -18.9232 H   0  0  0  0  0  0  0  0  0  0  0  0
   -7.8382   -3.4727  -19.3899 H   0  0  0  0  0  0  0  0  0  0  0  0
  1  3  1  0  0  0  0
  1 14  1  0  0  0  0
  1 17  2  0  0  0  0
  2 16  1  0  0  0  0
  2 18  2  0  0  0  0
  2 19  1  0  0  0  0
  3  5  1  0  0  0  0
  4  6  1  0  0  0  0
  4  8  1  6  0  0  0
  5 16  1  0  0  0  0
  6 15  1  0  0  0  0
  7  9  1  6  0  0  0
  7 15  1  0  0  0  0
  8  9  1  0  0  0  0
  8 16  1  0  0  0  0
  9 14  1  0  0  0  0
 10 13  1  0  0  0  0
 11 13  1  0  0  0  0
 12 13  1  0  0  0  0
 13 19  1  0  0  0  0
  3 20  1  0  0  0  0
  3 21  1  0  0  0  0
  4 22  1  0  0  0  0
  4 23  1  0  0  0  0
  5 24  1  0  0  0  0
  5 25  1  0  0  0  0
  6 26  1  0  0  0  0
  6 27  1  0  0  0  0
  7 28  1  0  0  0  0
  7 29  1  0  0  0  0
  8 30  1  0  0  0  0
  9 31  1  0  0  0  0
 10 32  1  0  0  0  0
 10 33  1  0  0  0  0
 10 34  1  0  0  0  0
 11 35  1  0  0  0  0
 11 36  1  0  0  0  0
 11 37  1  0  0  0  0
 12 38  1  0  0  0  0
 12 39  1  0  0  0  0
 12 40  1  0  0  0  0
 14 41  1  0  0  0  0
 15 42  1  0  0  0  0
M  END
> <id>
EN300-7445429

> <smiles>
CC(C)(C)OC(=O)N1CCC(=O)N[C@@H]2CNCC[C@@H]21 |&1:13,18,r|

> <MDLNUMBER>
MFCD32199376

> <IUPAC Name>
rac-tert-butyl (5aR,9aS)-4-oxo-decahydro-1H-pyrido[3,4-b][1,4]diazepine-1-carboxylate

> <CAS>
2377005-04-2

> <Purity>
95

> <URL>
https://www.enaminestore.com/catalog/EN300-7445429

> <ROCS_ShapeQuery>
amalgated

> <ROCS_TanimotoCombo>
0.859 

> <ROCS_ShapeTanimoto>
0.648 

> <ROCS_ColorTanimoto>
0.211 

> <ROCS_RefTversky>
0.602 

> <ROCS_RefColorTversky>
0.371 

> <ROCS_RefTverskyCombo>
0.973 

> <ROCS_FitTversky>
1.133 

> <ROCS_FitColorTversky>
0.329 

> <ROCS_FitTverskyCombo>
1.462 

> <ROCS_ColorScore>
-2.615

> <ROCS_Overlap>
992.333

> <ROCS_Rank>
153                 

$$$$
untitled-dbase-50285_105
  -OEChem-10092318153D

 38 39  0     1  0  0  0  0  0999 V2000
   -8.3660   -0.0138  -14.8504 C   0  0  0  0  0  0  0  0  0  0  0  0
   -9.7935   -2.6118  -16.3428 C   0  0  0  0  0  0  0  0  0  0  0  0
   -8.3102   -0.3696  -18.1933 C   0  0  0  0  0  0  0  0  0  0  0  0
   -8.4319   -2.3835  -15.7007 C   0  0  0  0  0  0  0  0  0  0  0  0
   -7.3410   -0.5747  -17.0315 C   0  0  0  0  0  0  0  0  0  0  0  0
   -8.9797   -3.7339  -18.5822 C   0  0  0  0  0  0  0  0  0  0  0  0
   -9.7837   -2.6223  -17.8693 C   0  0  2  0  0  0  0  0  0  0  0  0
   -8.9472   -1.6423  -18.7388 C   0  0  2  0  0  0  0  0  0  0  0  0
   -9.3960    1.5826  -12.7102 C   0  0  0  0  0  0  0  0  0  0  0  0
   -9.9352   -0.5991  -11.5883 C   0  0  0  0  0  0  0  0  0  0  0  0
   -7.5475   -0.0134  -12.1018 C   0  0  0  0  0  0  0  0  0  0  0  0
   -8.9991    0.1146  -12.5612 C   0  0  0  0  0  0  0  0  0  0  0  0
   -7.9795   -2.7320  -18.9812 N   0  0  0  0  0  0  0  0  0  0  0  0
   -8.0183   -0.9815  -15.8043 N   0  0  0  0  0  0  0  0  0  0  0  0
   -8.0344    1.1689  -14.9100 O   0  0  0  0  0  0  0  0  0  0  0  0
   -9.1321   -0.5250  -13.8356 O   0  0  0  0  0  0  0  0  0  0  0  0
  -10.2593   -3.5422  -15.9375 H   0  0  0  0  0  0  0  0  0  0  0  0
  -10.4786   -1.7994  -16.0068 H   0  0  0  0  0  0  0  0  0  0  0  0
   -9.1264    0.3141  -17.8591 H   0  0  0  0  0  0  0  0  0  0  0  0
   -7.7953    0.2125  -18.9974 H   0  0  0  0  0  0  0  0  0  0  0  0
   -8.4249   -2.6640  -14.6432 H   0  0  0  0  0  0  0  0  0  0  0  0
   -7.6938   -3.0096  -16.2098 H   0  0  0  0  0  0  0  0  0  0  0  0
   -6.6101   -1.3495  -17.3154 H   0  0  0  0  0  0  0  0  0  0  0  0
   -6.7519    0.3362  -16.8256 H   0  0  0  0  0  0  0  0  0  0  0  0
   -8.5966   -4.5389  -17.9462 H   0  0  0  0  0  0  0  0  0  0  0  0
   -9.5036   -4.1864  -19.4336 H   0  0  0  0  0  0  0  0  0  0  0  0
  -10.8629   -2.6511  -18.2230 H   0  0  0  0  0  0  0  0  0  0  0  0
   -9.5137   -1.3939  -19.6849 H   0  0  0  0  0  0  0  0  0  0  0  0
   -8.7265    2.0984  -13.4078 H   0  0  0  0  0  0  0  0  0  0  0  0
  -10.4238    1.6878  -13.0726 H   0  0  0  0  0  0  0  0  0  0  0  0
   -9.3109    2.1098  -11.7531 H   0  0  0  0  0  0  0  0  0  0  0  0
   -9.6542   -1.6527  -11.4784 H   0  0  0  0  0  0  0  0  0  0  0  0
  -10.9656   -0.5919  -11.9618 H   0  0  0  0  0  0  0  0  0  0  0  0
   -9.9220   -0.1316  -10.5984 H   0  0  0  0  0  0  0  0  0  0  0  0
   -7.2625   -1.0663  -11.9948 H   0  0  0  0  0  0  0  0  0  0  0  0
   -6.8578    0.4613  -12.8072 H   0  0  0  0  0  0  0  0  0  0  0  0
   -7.4086    0.4461  -11.1165 H   0  0  0  0  0  0  0  0  0  0  0  0
   -7.1679   -2.7158  -18.3599 H   0  0  0  0  0  0  0  0  0  0  0  0
  1 14  1  0  0  0  0
  1 15  2  0  0  0  0
  1 16  1  0  0  0  0
  2  4  1  0  0  0  0
  2  7  1  6  0  0  0
  3  5  1  0  0  0  0
  3  8  1  6  0  0  0
  4 14  1  0  0  0  0
  5 14  1  0  0  0  0
  6  7  1  0  0  0  0
  6 13  1  0  0  0  0
  7  8  1  0  0  0  0
  8 13  1  0  0  0  0
  9 12  1  0  0  0  0
 10 12  1  0  0  0  0
 11 12  1  0  0  0  0
 12 16  1  0  0  0  0
  2 17  1  0  0  0  0
  2 18  1  0  0  0  0
  3 19  1  0  0  0  0
  3 20  1  0  0  0  0
  4 21  1  0  0  0  0
  4 22  1  0  0  0  0
  5 23  1  0  0  0  0
  5 24  1  0  0  0  0
  6 25  1  0  0  0  0
  6 26  1  0  0  0  0
  7 27  1  0  0  0  0
  8 28  1  0  0  0  0
  9 29  1  0  0  0  0
  9 30  1  0  0  0  0
  9 31  1  0  0  0  0
 10 32  1  0  0  0  0
 10 33  1  0  0  0  0
 10 34  1  0  0  0  0
 11 35  1  0  0  0  0
 11 36  1  0  0  0  0
 11 37  1  0  0  0  0
 13 38  1  0  0  0  0
M  END
> <id>
EN300-37374399

> <smiles>
Cl.CC(C)(C)OC(=O)N1CC[C@@H]2CN[C@@H]2CC1 |&1:11,14,r|

> <IUPAC Name>
rac-tert-butyl (1R,7R)-4,8-diazabicyclo[5.2.0]nonane-4-carboxylate hydrochloride

> <Purity>
95

> <URL>
https://www.enaminestore.com/catalog/EN300-37374399

> <ROCS_ShapeQuery>
amalgated

> <ROCS_TanimotoCombo>
0.859 

> <ROCS_ShapeTanimoto>
0.555 

> <ROCS_ColorTanimoto>
0.304 

> <ROCS_RefTversky>
0.519 

> <ROCS_RefColorTversky>
0.437 

> <ROCS_RefTverskyCombo>
0.956 

> <ROCS_FitTversky>
1.145 

> <ROCS_FitColorTversky>
0.500 

> <ROCS_FitTverskyCombo>
1.644 

> <ROCS_ColorScore>
-3.036

> <ROCS_Overlap>
851.107

> <ROCS_Rank>
154                 

$$$$
untitled-dbase-50286_105
  -OEChem-10092318153D

 38 39  0     1  0  0  0  0  0999 V2000
   -8.3660   -0.0138  -14.8504 C   0  0  0  0  0  0  0  0  0  0  0  0
   -9.7935   -2.6118  -16.3428 C   0  0  0  0  0  0  0  0  0  0  0  0
   -8.3102   -0.3696  -18.1933 C   0  0  0  0  0  0  0  0  0  0  0  0
   -8.4319   -2.3835  -15.7007 C   0  0  0  0  0  0  0  0  0  0  0  0
   -7.3410   -0.5747  -17.0315 C   0  0  0  0  0  0  0  0  0  0  0  0
   -8.9797   -3.7339  -18.5822 C   0  0  0  0  0  0  0  0  0  0  0  0
   -9.7837   -2.6223  -17.8693 C   0  0  2  0  0  0  0  0  0  0  0  0
   -8.9472   -1.6423  -18.7388 C   0  0  2  0  0  0  0  0  0  0  0  0
   -9.3960    1.5826  -12.7102 C   0  0  0  0  0  0  0  0  0  0  0  0
   -9.9352   -0.5991  -11.5883 C   0  0  0  0  0  0  0  0  0  0  0  0
   -7.5475   -0.0134  -12.1018 C   0  0  0  0  0  0  0  0  0  0  0  0
   -8.9991    0.1146  -12.5612 C   0  0  0  0  0  0  0  0  0  0  0  0
   -7.9795   -2.7320  -18.9812 N   0  0  0  0  0  0  0  0  0  0  0  0
   -8.0183   -0.9815  -15.8043 N   0  0  0  0  0  0  0  0  0  0  0  0
   -8.0344    1.1689  -14.9100 O   0  0  0  0  0  0  0  0  0  0  0  0
   -9.1321   -0.5250  -13.8356 O   0  0  0  0  0  0  0  0  0  0  0  0
  -10.2593   -3.5422  -15.9375 H   0  0  0  0  0  0  0  0  0  0  0  0
  -10.4786   -1.7994  -16.0068 H   0  0  0  0  0  0  0  0  0  0  0  0
   -9.1264    0.3141  -17.8591 H   0  0  0  0  0  0  0  0  0  0  0  0
   -7.7953    0.2125  -18.9974 H   0  0  0  0  0  0  0  0  0  0  0  0
   -8.4249   -2.6640  -14.6432 H   0  0  0  0  0  0  0  0  0  0  0  0
   -7.6938   -3.0096  -16.2098 H   0  0  0  0  0  0  0  0  0  0  0  0
   -6.6101   -1.3495  -17.3154 H   0  0  0  0  0  0  0  0  0  0  0  0
   -6.7519    0.3362  -16.8256 H   0  0  0  0  0  0  0  0  0  0  0  0
   -8.5966   -4.5389  -17.9462 H   0  0  0  0  0  0  0  0  0  0  0  0
   -9.5036   -4.1864  -19.4336 H   0  0  0  0  0  0  0  0  0  0  0  0
  -10.8629   -2.6511  -18.2230 H   0  0  0  0  0  0  0  0  0  0  0  0
   -9.5137   -1.3939  -19.6849 H   0  0  0  0  0  0  0  0  0  0  0  0
   -8.7265    2.0984  -13.4078 H   0  0  0  0  0  0  0  0  0  0  0  0
  -10.4238    1.6878  -13.0726 H   0  0  0  0  0  0  0  0  0  0  0  0
   -9.3109    2.1098  -11.7531 H   0  0  0  0  0  0  0  0  0  0  0  0
   -9.6542   -1.6527  -11.4784 H   0  0  0  0  0  0  0  0  0  0  0  0
  -10.9656   -0.5919  -11.9618 H   0  0  0  0  0  0  0  0  0  0  0  0
   -9.9220   -0.1316  -10.5984 H   0  0  0  0  0  0  0  0  0  0  0  0
   -7.2625   -1.0663  -11.9948 H   0  0  0  0  0  0  0  0  0  0  0  0
   -6.8578    0.4613  -12.8072 H   0  0  0  0  0  0  0  0  0  0  0  0
   -7.4086    0.4461  -11.1165 H   0  0  0  0  0  0  0  0  0  0  0  0
   -7.1679   -2.7158  -18.3599 H   0  0  0  0  0  0  0  0  0  0  0  0
  1 14  1  0  0  0  0
  1 15  2  0  0  0  0
  1 16  1  0  0  0  0
  2  4  1  0  0  0  0
  2  7  1  6  0  0  0
  3  5  1  0  0  0  0
  3  8  1  6  0  0  0
  4 14  1  0  0  0  0
  5 14  1  0  0  0  0
  6  7  1  0  0  0  0
  6 13  1  0  0  0  0
  7  8  1  0  0  0  0
  8 13  1  0  0  0  0
  9 12  1  0  0  0  0
 10 12  1  0  0  0  0
 11 12  1  0  0  0  0
 12 16  1  0  0  0  0
  2 17  1  0  0  0  0
  2 18  1  0  0  0  0
  3 19  1  0  0  0  0
  3 20  1  0  0  0  0
  4 21  1  0  0  0  0
  4 22  1  0  0  0  0
  5 23  1  0  0  0  0
  5 24  1  0  0  0  0
  6 25  1  0  0  0  0
  6 26  1  0  0  0  0
  7 27  1  0  0  0  0
  8 28  1  0  0  0  0
  9 29  1  0  0  0  0
  9 30  1  0  0  0  0
  9 31  1  0  0  0  0
 10 32  1  0  0  0  0
 10 33  1  0  0  0  0
 10 34  1  0  0  0  0
 11 35  1  0  0  0  0
 11 36  1  0  0  0  0
 11 37  1  0  0  0  0
 13 38  1  0  0  0  0
M  END
> <id>
EN300-37374400

> <smiles>
CC(C)(C)OC(=O)N1CC[C@@H]2CN[C@@H]2CC1 |&1:10,13,r|

> <IUPAC Name>
rac-tert-butyl (1R,7R)-4,8-diazabicyclo[5.2.0]nonane-4-carboxylate

> <CAS>
2763965-66-6

> <URL>
https://www.enaminestore.com/catalog/EN300-37374400

> <ROCS_ShapeQuery>
amalgated

> <ROCS_TanimotoCombo>
0.859 

> <ROCS_ShapeTanimoto>
0.555 

> <ROCS_ColorTanimoto>
0.304 

> <ROCS_RefTversky>
0.519 

> <ROCS_RefColorTversky>
0.437 

> <ROCS_RefTverskyCombo>
0.956 

> <ROCS_FitTversky>
1.145 

> <ROCS_FitColorTversky>
0.500 

> <ROCS_FitTverskyCombo>
1.644 

> <ROCS_ColorScore>
-3.036

> <ROCS_Overlap>
851.107

> <ROCS_Rank>
155                 

$$$$
untitled-dbase-49110_9
  -OEChem-10092318153D

 44 47  0     1  0  0  0  0  0999 V2000
   -9.2850    0.1181  -10.7774 C   0  0  0  0  0  0  0  0  0  0  0  0
  -10.3129    0.2529  -11.8954 C   0  0  0  0  0  0  0  0  0  0  0  0
   -7.8608    0.3178  -11.2831 C   0  0  0  0  0  0  0  0  0  0  0  0
   -8.8628   -0.5026  -19.0027 C   0  0  0  0  0  0  0  0  0  0  0  0
  -10.0326   -1.4627  -18.7748 C   0  0  0  0  0  0  0  0  0  0  0  0
   -9.9889   -0.6672  -13.0735 C   0  0  0  0  0  0  0  0  0  0  0  0
   -7.5494   -0.5955  -12.4696 C   0  0  0  0  0  0  0  0  0  0  0  0
   -8.3913    0.9164  -14.3220 C   0  0  0  0  0  0  0  0  0  0  0  0
   -7.4272   -0.9429  -16.9023 C   0  0  0  0  0  0  0  0  0  0  0  0
   -9.3688   -2.5306  -16.5206 C   0  0  0  0  0  0  0  0  0  0  0  0
   -9.2685    1.0587  -15.5594 C   0  0  0  0  0  0  0  0  0  0  0  0
   -7.6559   -1.2205  -18.4038 C   0  0  1  0  0  0  0  0  0  0  0  0
   -9.4110   -2.6589  -18.0581 C   0  0  2  0  0  0  0  0  0  0  0  0
   -8.5609   -0.4514  -13.6358 C   0  0  0  0  0  0  0  0  0  0  0  0
   -8.6679   -1.2407  -16.0096 C   0  0  0  0  0  0  0  0  0  0  0  0
   -8.0362   -2.6288  -18.5726 N   0  0  0  0  0  0  0  0  0  0  0  0
   -8.2788   -1.5193  -14.6124 N   0  0  0  0  0  0  0  0  0  0  0  0
   -9.6449   -0.1943  -16.1195 O   0  0  0  0  0  0  0  0  0  0  0  0
   -9.4990    0.8610   -9.9978 H   0  0  0  0  0  0  0  0  0  0  0  0
   -9.3762   -0.8682  -10.3070 H   0  0  0  0  0  0  0  0  0  0  0  0
  -11.3141    0.0301  -11.5060 H   0  0  0  0  0  0  0  0  0  0  0  0
  -10.3367    1.2934  -12.2419 H   0  0  0  0  0  0  0  0  0  0  0  0
   -7.7236    1.3639  -11.5815 H   0  0  0  0  0  0  0  0  0  0  0  0
   -7.1517    0.1303  -10.4677 H   0  0  0  0  0  0  0  0  0  0  0  0
   -8.7239   -0.3592  -20.0818 H   0  0  0  0  0  0  0  0  0  0  0  0
   -9.0370    0.4849  -18.5646 H   0  0  0  0  0  0  0  0  0  0  0  0
  -10.8494   -1.0011  -18.2115 H   0  0  0  0  0  0  0  0  0  0  0  0
  -10.4391   -1.7696  -19.7467 H   0  0  0  0  0  0  0  0  0  0  0  0
  -10.1637   -1.7018  -12.7753 H   0  0  0  0  0  0  0  0  0  0  0  0
  -10.7189   -0.4714  -13.8712 H   0  0  0  0  0  0  0  0  0  0  0  0
   -6.5380   -0.3629  -12.8323 H   0  0  0  0  0  0  0  0  0  0  0  0
   -7.5101   -1.6346  -12.1149 H   0  0  0  0  0  0  0  0  0  0  0  0
   -7.3433    1.0342  -14.6382 H   0  0  0  0  0  0  0  0  0  0  0  0
   -8.6030    1.7372  -13.6230 H   0  0  0  0  0  0  0  0  0  0  0  0
   -6.5797   -1.5624  -16.5849 H   0  0  0  0  0  0  0  0  0  0  0  0
   -7.1267    0.1037  -16.7856 H   0  0  0  0  0  0  0  0  0  0  0  0
  -10.4010   -2.5876  -16.1704 H   0  0  0  0  0  0  0  0  0  0  0  0
   -8.8435   -3.4105  -16.1280 H   0  0  0  0  0  0  0  0  0  0  0  0
  -10.1675    1.6743  -15.3583 H   0  0  0  0  0  0  0  0  0  0  0  0
   -8.7122    1.6116  -16.3413 H   0  0  0  0  0  0  0  0  0  0  0  0
   -6.7436   -0.9880  -18.9645 H   0  0  0  0  0  0  0  0  0  0  0  0
   -9.9129   -3.5906  -18.3366 H   0  0  0  0  0  0  0  0  0  0  0  0
   -8.0537   -2.8478  -19.5722 H   0  0  0  0  0  0  0  0  0  0  0  0
   -7.2771   -1.6999  -14.5969 H   0  0  0  0  0  0  0  0  0  0  0  0
  1  2  1  0  0  0  0
  1  3  1  0  0  0  0
  2  6  1  0  0  0  0
  3  7  1  0  0  0  0
  4  5  1  0  0  0  0
  4 12  1  0  0  0  0
  5 13  1  0  0  0  0
  6 14  1  0  0  0  0
  7 14  1  0  0  0  0
  8 11  1  0  0  0  0
  8 14  1  0  0  0  0
  9 12  1  0  0  0  0
  9 15  1  0  0  0  0
 10 13  1  0  0  0  0
 10 15  1  0  0  0  0
 11 18  1  0  0  0  0
 12 16  1  0  0  0  0
 13 16  1  0  0  0  0
 14 17  1  0  0  0  0
 15 17  1  0  0  0  0
 15 18  1  0  0  0  0
  1 19  1  0  0  0  0
  1 20  1  0  0  0  0
  2 21  1  0  0  0  0
  2 22  1  0  0  0  0
  3 23  1  0  0  0  0
  3 24  1  0  0  0  0
  4 25  1  0  0  0  0
  4 26  1  0  0  0  0
  5 27  1  0  0  0  0
  5 28  1  0  0  0  0
  6 29  1  0  0  0  0
  6 30  1  0  0  0  0
  7 31  1  0  0  0  0
  7 32  1  0  0  0  0
  8 33  1  0  0  0  0
  8 34  1  0  0  0  0
  9 35  1  0  0  0  0
  9 36  1  0  0  0  0
 10 37  1  0  0  0  0
 10 38  1  0  0  0  0
 11 39  1  0  0  0  0
 11 40  1  0  0  0  0
 12 41  1  0  0  0  0
 13 42  1  0  0  0  0
 16 43  1  0  0  0  0
 17 44  1  0  0  0  0
M  END
> <id>
EN300-1279216

> <smiles>
C1CC2CC3(CC1N2)NC4(CCCCC4)CCO3

> <IUPAC Name>
dispiro[8-azabicyclo[3.2.1]octane-3,2'-[1,3]oxazinane-4',1''-cyclohexane]

> <URL>
https://www.enaminestore.com/catalog/EN300-1279216

> <ROCS_ShapeQuery>
amalgated

> <ROCS_TanimotoCombo>
0.859 

> <ROCS_ShapeTanimoto>
0.574 

> <ROCS_ColorTanimoto>
0.285 

> <ROCS_RefTversky>
0.553 

> <ROCS_RefColorTversky>
0.602 

> <ROCS_RefTverskyCombo>
1.155 

> <ROCS_FitTversky>
1.069 

> <ROCS_FitColorTversky>
0.351 

> <ROCS_FitTverskyCombo>
1.421 

> <ROCS_ColorScore>
-4.384

> <ROCS_Overlap>
910.847

> <ROCS_Rank>
156                 

$$$$
untitled-dbase-26525_556
  -OEChem-10092318153D

 47 48  0     0  0  0  0  0  0999 V2000
   -8.9580    0.2090  -11.5614 C   0  0  0  0  0  0  0  0  0  0  0  0
   -9.7521   -2.5467  -17.3303 C   0  0  0  0  0  0  0  0  0  0  0  0
   -8.5189   -0.5240  -18.1878 C   0  0  0  0  0  0  0  0  0  0  0  0
   -8.8619   -2.5709  -16.0844 C   0  0  0  0  0  0  0  0  0  0  0  0
   -7.6594   -0.5122  -16.9185 C   0  0  0  0  0  0  0  0  0  0  0  0
   -9.5181   -0.2939  -15.1674 C   0  0  0  0  0  0  0  0  0  0  0  0
   -7.2563   -1.3197  -14.5745 C   0  0  0  0  0  0  0  0  0  0  0  0
   -9.1266    0.6110  -14.0032 C   0  0  0  0  0  0  0  0  0  0  0  0
   -7.8455   -1.3662  -13.1693 C   0  0  0  0  0  0  0  0  0  0  0  0
   -9.0547   -1.9149  -18.5394 C   0  0  0  0  0  0  0  0  0  0  0  0
   -8.3358   -1.1671  -15.6835 C   0  0  0  0  0  0  0  0  0  0  0  0
  -11.4054   -0.5470  -10.9982 C   0  0  0  0  0  0  0  0  0  0  0  0
  -10.4662   -2.5624   -9.8299 C   0  0  0  0  0  0  0  0  0  0  0  0
  -10.3080   -0.3020   -8.7464 C   0  0  0  0  0  0  0  0  0  0  0  0
  -10.3056   -1.0631  -10.0714 C   0  0  0  0  0  0  0  0  0  0  0  0
   -8.6416   -0.1735  -12.8684 N   0  0  0  0  0  0  0  0  0  0  0  0
   -7.9636   -2.7748  -19.0040 N   0  0  0  0  0  0  0  0  0  0  0  0
   -9.1492    1.3699  -11.2049 O   0  0  0  0  0  0  0  0  0  0  0  0
   -9.0398   -0.8621  -10.7104 O   0  0  0  0  0  0  0  0  0  0  0  0
  -10.0808   -3.5719  -17.5676 H   0  0  0  0  0  0  0  0  0  0  0  0
  -10.6722   -1.9858  -17.0972 H   0  0  0  0  0  0  0  0  0  0  0  0
   -9.3630    0.1740  -18.0475 H   0  0  0  0  0  0  0  0  0  0  0  0
   -7.9370   -0.1112  -19.0302 H   0  0  0  0  0  0  0  0  0  0  0  0
   -9.4417   -2.9920  -15.2546 H   0  0  0  0  0  0  0  0  0  0  0  0
   -8.0250   -3.2557  -16.2573 H   0  0  0  0  0  0  0  0  0  0  0  0
   -6.6977   -0.9894  -17.1469 H   0  0  0  0  0  0  0  0  0  0  0  0
   -7.4196    0.5360  -16.6818 H   0  0  0  0  0  0  0  0  0  0  0  0
  -10.3349   -0.9476  -14.8395 H   0  0  0  0  0  0  0  0  0  0  0  0
   -9.9179    0.3186  -15.9820 H   0  0  0  0  0  0  0  0  0  0  0  0
   -6.5224   -0.5113  -14.6219 H   0  0  0  0  0  0  0  0  0  0  0  0
   -6.6987   -2.2491  -14.7431 H   0  0  0  0  0  0  0  0  0  0  0  0
   -8.3264    1.2995  -14.2900 H   0  0  0  0  0  0  0  0  0  0  0  0
   -9.9853    1.2198  -13.7084 H   0  0  0  0  0  0  0  0  0  0  0  0
   -8.4463   -2.2772  -13.0626 H   0  0  0  0  0  0  0  0  0  0  0  0
   -7.0543   -1.4265  -12.4104 H   0  0  0  0  0  0  0  0  0  0  0  0
   -9.7786   -1.8175  -19.3527 H   0  0  0  0  0  0  0  0  0  0  0  0
  -11.2937    0.5289  -11.1741 H   0  0  0  0  0  0  0  0  0  0  0  0
  -11.3922   -1.0606  -11.9650 H   0  0  0  0  0  0  0  0  0  0  0  0
  -12.3943   -0.6852  -10.5463 H   0  0  0  0  0  0  0  0  0  0  0  0
   -9.6792   -2.9370   -9.1654 H   0  0  0  0  0  0  0  0  0  0  0  0
  -10.3703   -3.1214  -10.7677 H   0  0  0  0  0  0  0  0  0  0  0  0
  -11.4378   -2.7980   -9.3837 H   0  0  0  0  0  0  0  0  0  0  0  0
   -9.5192   -0.6721   -8.0815 H   0  0  0  0  0  0  0  0  0  0  0  0
  -10.1569    0.7717   -8.8978 H   0  0  0  0  0  0  0  0  0  0  0  0
  -11.2549   -0.4489   -8.2145 H   0  0  0  0  0  0  0  0  0  0  0  0
   -8.3471   -3.6577  -19.2431 H   0  0  0  0  0  0  0  0  0  0  0  0
   -7.5486   -2.3450  -19.7957 H   0  0  0  0  0  0  0  0  0  0  0  0
  1 16  1  0  0  0  0
  1 18  2  0  0  0  0
  1 19  1  0  0  0  0
  2  4  1  0  0  0  0
  2 10  1  0  0  0  0
  3  5  1  0  0  0  0
  3 10  1  0  0  0  0
  4 11  1  0  0  0  0
  5 11  1  0  0  0  0
  6  8  1  0  0  0  0
  6 11  1  0  0  0  0
  7  9  1  0  0  0  0
  7 11  1  0  0  0  0
  8 16  1  0  0  0  0
  9 16  1  0  0  0  0
 10 17  1  0  0  0  0
 12 15  1  0  0  0  0
 13 15  1  0  0  0  0
 14 15  1  0  0  0  0
 15 19  1  0  0  0  0
  2 20  1  0  0  0  0
  2 21  1  0  0  0  0
  3 22  1  0  0  0  0
  3 23  1  0  0  0  0
  4 24  1  0  0  0  0
  4 25  1  0  0  0  0
  5 26  1  0  0  0  0
  5 27  1  0  0  0  0
  6 28  1  0  0  0  0
  6 29  1  0  0  0  0
  7 30  1  0  0  0  0
  7 31  1  0  0  0  0
  8 32  1  0  0  0  0
  8 33  1  0  0  0  0
  9 34  1  0  0  0  0
  9 35  1  0  0  0  0
 10 36  1  0  0  0  0
 12 37  1  0  0  0  0
 12 38  1  0  0  0  0
 12 39  1  0  0  0  0
 13 40  1  0  0  0  0
 13 41  1  0  0  0  0
 13 42  1  0  0  0  0
 14 43  1  0  0  0  0
 14 44  1  0  0  0  0
 14 45  1  0  0  0  0
 17 46  1  0  0  0  0
 17 47  1  0  0  0  0
M  END
> <id>
EN300-223370

> <smiles>
CC(C)(C)OC(=O)N1CCC2(CCC(N)CC2)CC1

> <MDLNUMBER>
MFCD18711593

> <IUPAC Name>
tert-butyl 9-amino-3-azaspiro[5.5]undecane-3-carboxylate

> <CAS>
1272758-41-4

> <Purity>
95

> <URL>
https://www.enaminestore.com/catalog/EN300-223370

> <ROCS_ShapeQuery>
amalgated

> <ROCS_TanimotoCombo>
0.859 

> <ROCS_ShapeTanimoto>
0.559 

> <ROCS_ColorTanimoto>
0.300 

> <ROCS_RefTversky>
0.546 

> <ROCS_RefColorTversky>
0.431 

> <ROCS_RefTverskyCombo>
0.977 

> <ROCS_FitTversky>
1.046 

> <ROCS_FitColorTversky>
0.495 

> <ROCS_FitTverskyCombo>
1.541 

> <ROCS_ColorScore>
-2.997

> <ROCS_Overlap>
898.350

> <ROCS_Rank>
157                 

$$$$
untitled-dbase-39380_66
  -OEChem-10092318153D

 37 37  0     1  0  0  0  0  0999 V2000
   -8.6413   -0.2451  -14.3028 C   0  0  0  0  0  0  0  0  0  0  0  0
   -7.7657   -0.8063  -17.7908 C   0  0  0  0  0  0  0  0  0  0  0  0
   -8.5526    0.0099  -16.7662 C   0  0  0  0  0  0  0  0  0  0  0  0
   -9.5946   -2.0307  -15.7836 C   0  0  0  0  0  0  0  0  0  0  0  0
   -9.5345   -2.5448  -17.2345 C   0  0  1  0  0  0  0  0  0  0  0  0
   -8.1175   -2.3068  -17.7949 C   0  0  1  0  0  0  0  0  0  0  0  0
   -9.9637   -4.0144  -17.2679 C   0  0  0  0  0  0  0  0  0  0  0  0
   -9.4920    1.3006  -12.0503 C   0  0  0  0  0  0  0  0  0  0  0  0
  -10.4582   -0.8463  -11.1747 C   0  0  0  0  0  0  0  0  0  0  0  0
   -7.9815   -0.6472  -11.5414 C   0  0  0  0  0  0  0  0  0  0  0  0
   -9.3630   -0.2219  -12.0367 C   0  0  0  0  0  0  0  0  0  0  0  0
   -8.8869   -0.7637  -15.5785 N   0  0  0  0  0  0  0  0  0  0  0  0
   -7.9388   -2.8324  -19.1486 N   0  0  0  0  0  0  0  0  0  0  0  0
   -7.7328    0.5376  -14.0323 O   0  0  0  0  0  0  0  0  0  0  0  0
   -9.5373   -0.7060  -13.3732 O   0  0  0  0  0  0  0  0  0  0  0  0
   -7.9386   -0.3751  -18.7964 H   0  0  0  0  0  0  0  0  0  0  0  0
   -6.6842   -0.6773  -17.5952 H   0  0  0  0  0  0  0  0  0  0  0  0
   -7.9554    0.8765  -16.4336 H   0  0  0  0  0  0  0  0  0  0  0  0
   -9.4528    0.4240  -17.2475 H   0  0  0  0  0  0  0  0  0  0  0  0
  -10.6476   -1.9297  -15.4656 H   0  0  0  0  0  0  0  0  0  0  0  0
   -9.1383   -2.7648  -15.0935 H   0  0  0  0  0  0  0  0  0  0  0  0
  -10.2572   -1.9662  -17.8215 H   0  0  0  0  0  0  0  0  0  0  0  0
   -7.3871   -2.8234  -17.1430 H   0  0  0  0  0  0  0  0  0  0  0  0
   -9.2619   -4.6124  -16.6916 H   0  0  0  0  0  0  0  0  0  0  0  0
   -9.9775   -4.3669  -18.2963 H   0  0  0  0  0  0  0  0  0  0  0  0
  -10.9581   -4.1137  -16.8395 H   0  0  0  0  0  0  0  0  0  0  0  0
   -8.7077    1.7526  -12.6679 H   0  0  0  0  0  0  0  0  0  0  0  0
  -10.4657    1.6195  -12.4364 H   0  0  0  0  0  0  0  0  0  0  0  0
   -9.3676    1.7126  -11.0423 H   0  0  0  0  0  0  0  0  0  0  0  0
  -10.3694   -1.9387  -11.1621 H   0  0  0  0  0  0  0  0  0  0  0  0
  -11.4507   -0.6220  -11.5818 H   0  0  0  0  0  0  0  0  0  0  0  0
  -10.4165   -0.4832  -10.1428 H   0  0  0  0  0  0  0  0  0  0  0  0
   -7.8887   -1.7393  -11.5316 H   0  0  0  0  0  0  0  0  0  0  0  0
   -7.1841   -0.2383  -12.1704 H   0  0  0  0  0  0  0  0  0  0  0  0
   -7.8174   -0.3137  -10.5104 H   0  0  0  0  0  0  0  0  0  0  0  0
   -7.0077   -2.6428  -19.4314 H   0  0  0  0  0  0  0  0  0  0  0  0
   -8.1084   -3.8089  -19.1233 H   0  0  0  0  0  0  0  0  0  0  0  0
  1 12  1  0  0  0  0
  1 14  2  0  0  0  0
  1 15  1  0  0  0  0
  2  3  1  0  0  0  0
  2  6  1  0  0  0  0
  3 12  1  0  0  0  0
  4  5  1  0  0  0  0
  4 12  1  0  0  0  0
  5  6  1  0  0  0  0
  5  7  1  0  0  0  0
  6 13  1  0  0  0  0
  8 11  1  0  0  0  0
  9 11  1  0  0  0  0
 10 11  1  0  0  0  0
 11 15  1  0  0  0  0
  2 16  1  0  0  0  0
  2 17  1  0  0  0  0
  3 18  1  0  0  0  0
  3 19  1  0  0  0  0
  4 20  1  0  0  0  0
  4 21  1  0  0  0  0
  5 22  1  0  0  0  0
  6 23  1  0  0  0  0
  7 24  1  0  0  0  0
  7 25  1  0  0  0  0
  7 26  1  0  0  0  0
  8 27  1  0  0  0  0
  8 28  1  0  0  0  0
  8 29  1  0  0  0  0
  9 30  1  0  0  0  0
  9 31  1  0  0  0  0
  9 32  1  0  0  0  0
 10 33  1  0  0  0  0
 10 34  1  0  0  0  0
 10 35  1  0  0  0  0
 13 36  1  0  0  0  0
 13 37  1  0  0  0  0
M  END
> <id>
EN300-181454

> <smiles>
CC1CN(CCC1N)C(=O)OC(C)(C)C.OC(=O)C(=O)O

> <MDLNUMBER>
MFCD11506190

> <IUPAC Name>
oxalic acid; tert-butyl 4-amino-3-methylpiperidine-1-carboxylate

> <CAS>
1187928-30-8

> <URL>
https://www.enaminestore.com/catalog/EN300-181454

> <Saltdate>
OC(=O)C(=O)O

> <ROCS_ShapeQuery>
amalgated

> <ROCS_TanimotoCombo>
0.859 

> <ROCS_ShapeTanimoto>
0.558 

> <ROCS_ColorTanimoto>
0.300 

> <ROCS_RefTversky>
0.509 

> <ROCS_RefColorTversky>
0.402 

> <ROCS_RefTverskyCombo>
0.910 

> <ROCS_FitTversky>
1.213 

> <ROCS_FitColorTversky>
0.543 

> <ROCS_FitTverskyCombo>
1.756 

> <ROCS_ColorScore>
-2.770

> <ROCS_Overlap>
832.676

> <ROCS_Rank>
158                 

$$$$
untitled-dbase-4256_66
  -OEChem-10092318153D

 37 37  0     1  0  0  0  0  0999 V2000
   -8.6413   -0.2451  -14.3028 C   0  0  0  0  0  0  0  0  0  0  0  0
   -7.7657   -0.8063  -17.7908 C   0  0  0  0  0  0  0  0  0  0  0  0
   -8.5526    0.0099  -16.7662 C   0  0  0  0  0  0  0  0  0  0  0  0
   -9.5946   -2.0307  -15.7836 C   0  0  0  0  0  0  0  0  0  0  0  0
   -9.5345   -2.5448  -17.2345 C   0  0  1  0  0  0  0  0  0  0  0  0
   -8.1175   -2.3068  -17.7949 C   0  0  1  0  0  0  0  0  0  0  0  0
   -9.9637   -4.0144  -17.2679 C   0  0  0  0  0  0  0  0  0  0  0  0
   -9.4920    1.3006  -12.0503 C   0  0  0  0  0  0  0  0  0  0  0  0
  -10.4582   -0.8463  -11.1747 C   0  0  0  0  0  0  0  0  0  0  0  0
   -7.9815   -0.6472  -11.5414 C   0  0  0  0  0  0  0  0  0  0  0  0
   -9.3630   -0.2219  -12.0367 C   0  0  0  0  0  0  0  0  0  0  0  0
   -8.8869   -0.7637  -15.5785 N   0  0  0  0  0  0  0  0  0  0  0  0
   -7.9388   -2.8324  -19.1486 N   0  0  0  0  0  0  0  0  0  0  0  0
   -7.7328    0.5376  -14.0323 O   0  0  0  0  0  0  0  0  0  0  0  0
   -9.5373   -0.7060  -13.3732 O   0  0  0  0  0  0  0  0  0  0  0  0
   -7.9386   -0.3751  -18.7964 H   0  0  0  0  0  0  0  0  0  0  0  0
   -6.6842   -0.6773  -17.5952 H   0  0  0  0  0  0  0  0  0  0  0  0
   -7.9554    0.8765  -16.4336 H   0  0  0  0  0  0  0  0  0  0  0  0
   -9.4528    0.4240  -17.2475 H   0  0  0  0  0  0  0  0  0  0  0  0
  -10.6476   -1.9297  -15.4656 H   0  0  0  0  0  0  0  0  0  0  0  0
   -9.1383   -2.7648  -15.0935 H   0  0  0  0  0  0  0  0  0  0  0  0
  -10.2572   -1.9662  -17.8215 H   0  0  0  0  0  0  0  0  0  0  0  0
   -7.3871   -2.8234  -17.1430 H   0  0  0  0  0  0  0  0  0  0  0  0
   -9.2619   -4.6124  -16.6916 H   0  0  0  0  0  0  0  0  0  0  0  0
   -9.9775   -4.3669  -18.2963 H   0  0  0  0  0  0  0  0  0  0  0  0
  -10.9581   -4.1137  -16.8395 H   0  0  0  0  0  0  0  0  0  0  0  0
   -8.7077    1.7526  -12.6679 H   0  0  0  0  0  0  0  0  0  0  0  0
  -10.4657    1.6195  -12.4364 H   0  0  0  0  0  0  0  0  0  0  0  0
   -9.3676    1.7126  -11.0423 H   0  0  0  0  0  0  0  0  0  0  0  0
  -10.3694   -1.9387  -11.1621 H   0  0  0  0  0  0  0  0  0  0  0  0
  -11.4507   -0.6220  -11.5818 H   0  0  0  0  0  0  0  0  0  0  0  0
  -10.4165   -0.4832  -10.1428 H   0  0  0  0  0  0  0  0  0  0  0  0
   -7.8887   -1.7393  -11.5316 H   0  0  0  0  0  0  0  0  0  0  0  0
   -7.1841   -0.2383  -12.1704 H   0  0  0  0  0  0  0  0  0  0  0  0
   -7.8174   -0.3137  -10.5104 H   0  0  0  0  0  0  0  0  0  0  0  0
   -7.0077   -2.6428  -19.4314 H   0  0  0  0  0  0  0  0  0  0  0  0
   -8.1084   -3.8089  -19.1233 H   0  0  0  0  0  0  0  0  0  0  0  0
  1 12  1  0  0  0  0
  1 14  2  0  0  0  0
  1 15  1  0  0  0  0
  2  3  1  0  0  0  0
  2  6  1  0  0  0  0
  3 12  1  0  0  0  0
  4  5  1  0  0  0  0
  4 12  1  0  0  0  0
  5  6  1  0  0  0  0
  5  7  1  0  0  0  0
  6 13  1  0  0  0  0
  8 11  1  0  0  0  0
  9 11  1  0  0  0  0
 10 11  1  0  0  0  0
 11 15  1  0  0  0  0
  2 16  1  0  0  0  0
  2 17  1  0  0  0  0
  3 18  1  0  0  0  0
  3 19  1  0  0  0  0
  4 20  1  0  0  0  0
  4 21  1  0  0  0  0
  5 22  1  0  0  0  0
  6 23  1  0  0  0  0
  7 24  1  0  0  0  0
  7 25  1  0  0  0  0
  7 26  1  0  0  0  0
  8 27  1  0  0  0  0
  8 28  1  0  0  0  0
  8 29  1  0  0  0  0
  9 30  1  0  0  0  0
  9 31  1  0  0  0  0
  9 32  1  0  0  0  0
 10 33  1  0  0  0  0
 10 34  1  0  0  0  0
 10 35  1  0  0  0  0
 13 36  1  0  0  0  0
 13 37  1  0  0  0  0
M  END
> <id>
EN300-180865

> <smiles>
CC1CN(CCC1N)C(=O)OC(C)(C)C

> <MDLNUMBER>
MFCD09701319

> <IUPAC Name>
tert-butyl 4-amino-3-methylpiperidine-1-carboxylate

> <CAS>
900642-17-3

> <Purity>
95

> <URL>
https://www.enaminestore.com/catalog/EN300-180865

> <ROCS_ShapeQuery>
amalgated

> <ROCS_TanimotoCombo>
0.859 

> <ROCS_ShapeTanimoto>
0.558 

> <ROCS_ColorTanimoto>
0.300 

> <ROCS_RefTversky>
0.509 

> <ROCS_RefColorTversky>
0.402 

> <ROCS_RefTverskyCombo>
0.910 

> <ROCS_FitTversky>
1.213 

> <ROCS_FitColorTversky>
0.543 

> <ROCS_FitTverskyCombo>
1.756 

> <ROCS_ColorScore>
-2.770

> <ROCS_Overlap>
832.676

> <ROCS_Rank>
159                 

$$$$
untitled-dbase-38491_10
  -OEChem-10092318153D

 32 34  0     0  0  0  0  0  0999 V2000
   -9.2173    0.0955  -11.4075 C   0  0  0  0  0  0  0  0  0  0  0  0
   -9.3962   -1.2125  -11.8811 C   0  0  0  0  0  0  0  0  0  0  0  0
   -8.7974    1.1091  -12.2699 C   0  0  0  0  0  0  0  0  0  0  0  0
   -9.1578   -1.5210  -13.2224 C   0  0  0  0  0  0  0  0  0  0  0  0
   -8.5584    0.7851  -13.5942 C   0  0  0  0  0  0  0  0  0  0  0  0
   -8.7373   -0.5078  -14.0701 C   0  0  0  0  0  0  0  0  0  0  0  0
   -8.1291    1.6675  -14.7023 C   0  0  0  0  0  0  0  0  0  0  0  0
   -9.3996   -1.1212  -17.7956 C   0  0  0  0  0  0  0  0  0  0  0  0
   -8.0072   -2.8569  -16.5222 C   0  0  0  0  0  0  0  0  0  0  0  0
   -9.7144   -0.6466  -16.3782 C   0  0  0  0  0  0  0  0  0  0  0  0
   -7.3709   -1.6054  -15.9224 C   0  0  0  0  0  0  0  0  0  0  0  0
   -8.8171   -2.5449  -17.7930 C   0  0  0  0  0  0  0  0  0  0  0  0
   -8.4254   -0.5483  -15.5352 C   0  0  0  0  0  0  0  0  0  0  0  0
   -8.0108   -2.7253  -19.0022 N   0  0  0  0  0  0  0  0  0  0  0  0
   -7.8164    0.7568  -15.7797 O   0  0  0  0  0  0  0  0  0  0  0  0
   -9.4036    0.3185  -10.3607 H   0  0  0  0  0  0  0  0  0  0  0  0
   -9.7193   -1.9926  -11.1971 H   0  0  0  0  0  0  0  0  0  0  0  0
   -8.6623    2.1223  -11.9068 H   0  0  0  0  0  0  0  0  0  0  0  0
   -9.2968   -2.5350  -13.5832 H   0  0  0  0  0  0  0  0  0  0  0  0
   -8.9235    2.3393  -15.0365 H   0  0  0  0  0  0  0  0  0  0  0  0
   -7.2281    2.2319  -14.4465 H   0  0  0  0  0  0  0  0  0  0  0  0
  -10.3164   -1.0934  -18.3970 H   0  0  0  0  0  0  0  0  0  0  0  0
   -8.6928   -0.4262  -18.2666 H   0  0  0  0  0  0  0  0  0  0  0  0
   -7.2216   -3.5941  -16.7493 H   0  0  0  0  0  0  0  0  0  0  0  0
   -8.6595   -3.3249  -15.7700 H   0  0  0  0  0  0  0  0  0  0  0  0
  -10.2006    0.3285  -16.4370 H   0  0  0  0  0  0  0  0  0  0  0  0
  -10.4155   -1.3429  -15.9158 H   0  0  0  0  0  0  0  0  0  0  0  0
   -6.7824   -1.8876  -15.0401 H   0  0  0  0  0  0  0  0  0  0  0  0
   -6.6680   -1.1910  -16.6561 H   0  0  0  0  0  0  0  0  0  0  0  0
   -9.6667   -3.2589  -17.8537 H   0  0  0  0  0  0  0  0  0  0  0  0
   -7.9911   -1.8630  -19.4923 H   0  0  0  0  0  0  0  0  0  0  0  0
   -7.0966   -2.9942  -18.7263 H   0  0  0  0  0  0  0  0  0  0  0  0
  1  2  2  0  0  0  0
  1  3  1  0  0  0  0
  2  4  1  0  0  0  0
  3  5  2  0  0  0  0
  4  6  2  0  0  0  0
  5  6  1  0  0  0  0
  5  7  1  0  0  0  0
  6 13  1  0  0  0  0
  7 15  1  0  0  0  0
  8 10  1  0  0  0  0
  8 12  1  0  0  0  0
  9 11  1  0  0  0  0
  9 12  1  0  0  0  0
 10 13  1  0  0  0  0
 11 13  1  0  0  0  0
 12 14  1  0  0  0  0
 13 15  1  0  0  0  0
  1 16  1  0  0  0  0
  2 17  1  0  0  0  0
  3 18  1  0  0  0  0
  4 19  1  0  0  0  0
  7 20  1  0  0  0  0
  7 21  1  0  0  0  0
  8 22  1  0  0  0  0
  8 23  1  0  0  0  0
  9 24  1  0  0  0  0
  9 25  1  0  0  0  0
 10 26  1  0  0  0  0
 10 27  1  0  0  0  0
 11 28  1  0  0  0  0
 11 29  1  0  0  0  0
 12 30  1  0  0  0  0
 14 31  1  0  0  0  0
 14 32  1  0  0  0  0
M  END
> <id>
EN300-7542484

> <smiles>
Cl.NC1CCC2(CC1)OCC=3C=CC=CC32

> <MDLNUMBER>
MFCD31544092

> <IUPAC Name>
3H-spiro[2-benzofuran-1,1'-cyclohexane]-4'-amine hydrochloride

> <CAS>
2411285-56-6

> <Purity>
95

> <URL>
https://www.enaminestore.com/catalog/EN300-7542484

> <Saltdate>
Cl

> <ROCS_ShapeQuery>
amalgated

> <ROCS_TanimotoCombo>
0.858 

> <ROCS_ShapeTanimoto>
0.480 

> <ROCS_ColorTanimoto>
0.378 

> <ROCS_RefTversky>
0.468 

> <ROCS_RefColorTversky>
0.514 

> <ROCS_RefTverskyCombo>
0.982 

> <ROCS_FitTversky>
1.057 

> <ROCS_FitColorTversky>
0.589 

> <ROCS_FitTverskyCombo>
1.645 

> <ROCS_ColorScore>
-3.571

> <ROCS_Overlap>
767.565

> <ROCS_Rank>
160                 

$$$$
untitled-dbase-30355_10
  -OEChem-10092318153D

 32 34  0     0  0  0  0  0  0999 V2000
   -9.2173    0.0955  -11.4075 C   0  0  0  0  0  0  0  0  0  0  0  0
   -9.3962   -1.2125  -11.8811 C   0  0  0  0  0  0  0  0  0  0  0  0
   -8.7974    1.1091  -12.2699 C   0  0  0  0  0  0  0  0  0  0  0  0
   -9.1578   -1.5210  -13.2224 C   0  0  0  0  0  0  0  0  0  0  0  0
   -8.5584    0.7851  -13.5942 C   0  0  0  0  0  0  0  0  0  0  0  0
   -8.7373   -0.5078  -14.0701 C   0  0  0  0  0  0  0  0  0  0  0  0
   -8.1291    1.6675  -14.7023 C   0  0  0  0  0  0  0  0  0  0  0  0
   -9.3996   -1.1212  -17.7956 C   0  0  0  0  0  0  0  0  0  0  0  0
   -8.0072   -2.8569  -16.5222 C   0  0  0  0  0  0  0  0  0  0  0  0
   -9.7144   -0.6466  -16.3782 C   0  0  0  0  0  0  0  0  0  0  0  0
   -7.3709   -1.6054  -15.9224 C   0  0  0  0  0  0  0  0  0  0  0  0
   -8.8171   -2.5449  -17.7930 C   0  0  0  0  0  0  0  0  0  0  0  0
   -8.4254   -0.5483  -15.5352 C   0  0  0  0  0  0  0  0  0  0  0  0
   -8.0108   -2.7253  -19.0022 N   0  0  0  0  0  0  0  0  0  0  0  0
   -7.8164    0.7568  -15.7797 O   0  0  0  0  0  0  0  0  0  0  0  0
   -9.4036    0.3185  -10.3607 H   0  0  0  0  0  0  0  0  0  0  0  0
   -9.7193   -1.9926  -11.1971 H   0  0  0  0  0  0  0  0  0  0  0  0
   -8.6623    2.1223  -11.9068 H   0  0  0  0  0  0  0  0  0  0  0  0
   -9.2968   -2.5350  -13.5832 H   0  0  0  0  0  0  0  0  0  0  0  0
   -8.9235    2.3393  -15.0365 H   0  0  0  0  0  0  0  0  0  0  0  0
   -7.2281    2.2319  -14.4465 H   0  0  0  0  0  0  0  0  0  0  0  0
  -10.3164   -1.0934  -18.3970 H   0  0  0  0  0  0  0  0  0  0  0  0
   -8.6928   -0.4262  -18.2666 H   0  0  0  0  0  0  0  0  0  0  0  0
   -7.2216   -3.5941  -16.7493 H   0  0  0  0  0  0  0  0  0  0  0  0
   -8.6595   -3.3249  -15.7700 H   0  0  0  0  0  0  0  0  0  0  0  0
  -10.2006    0.3285  -16.4370 H   0  0  0  0  0  0  0  0  0  0  0  0
  -10.4155   -1.3429  -15.9158 H   0  0  0  0  0  0  0  0  0  0  0  0
   -6.7824   -1.8876  -15.0401 H   0  0  0  0  0  0  0  0  0  0  0  0
   -6.6680   -1.1910  -16.6561 H   0  0  0  0  0  0  0  0  0  0  0  0
   -9.6667   -3.2589  -17.8537 H   0  0  0  0  0  0  0  0  0  0  0  0
   -7.9911   -1.8630  -19.4923 H   0  0  0  0  0  0  0  0  0  0  0  0
   -7.0966   -2.9942  -18.7263 H   0  0  0  0  0  0  0  0  0  0  0  0
  1  2  2  0  0  0  0
  1  3  1  0  0  0  0
  2  4  1  0  0  0  0
  3  5  2  0  0  0  0
  4  6  2  0  0  0  0
  5  6  1  0  0  0  0
  5  7  1  0  0  0  0
  6 13  1  0  0  0  0
  7 15  1  0  0  0  0
  8 10  1  0  0  0  0
  8 12  1  0  0  0  0
  9 11  1  0  0  0  0
  9 12  1  0  0  0  0
 10 13  1  0  0  0  0
 11 13  1  0  0  0  0
 12 14  1  0  0  0  0
 13 15  1  0  0  0  0
  1 16  1  0  0  0  0
  2 17  1  0  0  0  0
  3 18  1  0  0  0  0
  4 19  1  0  0  0  0
  7 20  1  0  0  0  0
  7 21  1  0  0  0  0
  8 22  1  0  0  0  0
  8 23  1  0  0  0  0
  9 24  1  0  0  0  0
  9 25  1  0  0  0  0
 10 26  1  0  0  0  0
 10 27  1  0  0  0  0
 11 28  1  0  0  0  0
 11 29  1  0  0  0  0
 12 30  1  0  0  0  0
 14 31  1  0  0  0  0
 14 32  1  0  0  0  0
M  END
> <id>
EN300-7542485

> <smiles>
NC1CCC2(CC1)OCC=3C=CC=CC32

> <MDLNUMBER>
MFCD32648704

> <IUPAC Name>
3H-spiro[2-benzofuran-1,1'-cyclohexane]-4'-amine

> <CAS>
2384804-91-3

> <URL>
https://www.enaminestore.com/catalog/EN300-7542485

> <ROCS_ShapeQuery>
amalgated

> <ROCS_TanimotoCombo>
0.858 

> <ROCS_ShapeTanimoto>
0.480 

> <ROCS_ColorTanimoto>
0.378 

> <ROCS_RefTversky>
0.468 

> <ROCS_RefColorTversky>
0.514 

> <ROCS_RefTverskyCombo>
0.982 

> <ROCS_FitTversky>
1.057 

> <ROCS_FitColorTversky>
0.589 

> <ROCS_FitTverskyCombo>
1.645 

> <ROCS_ColorScore>
-3.571

> <ROCS_Overlap>
767.565

> <ROCS_Rank>
161                 

$$$$
untitled-dbase-9551_102
  -OEChem-10092318153D

 34 34  0     1  0  0  0  0  0999 V2000
   -8.5175   -0.2851  -14.3108 C   0  0  0  0  0  0  0  0  0  0  0  0
   -8.5066   -0.6822  -18.1030 C   0  0  0  0  0  0  0  0  0  0  0  0
   -8.4771    0.1028  -16.7904 C   0  0  0  0  0  0  0  0  0  0  0  0
   -9.6006   -1.9137  -15.8316 C   0  0  0  0  0  0  0  0  0  0  0  0
   -8.0509   -2.1212  -17.8604 C   0  0  1  0  0  0  0  0  0  0  0  0
   -9.0390   -2.8269  -16.9224 C   0  0  2  0  0  0  0  0  0  0  0  0
   -9.2625    1.1220  -11.9333 C   0  0  0  0  0  0  0  0  0  0  0  0
  -10.2773   -1.0508  -11.1860 C   0  0  0  0  0  0  0  0  0  0  0  0
   -7.8050   -0.9031  -11.6028 C   0  0  0  0  0  0  0  0  0  0  0  0
   -9.1833   -0.4009  -12.0304 C   0  0  0  0  0  0  0  0  0  0  0  0
   -8.8032   -0.7112  -15.6134 N   0  0  0  0  0  0  0  0  0  0  0  0
   -7.9289   -2.8467  -19.1214 N   0  0  0  0  0  0  0  0  0  0  0  0
   -7.5778    0.4477  -14.0086 O   0  0  0  0  0  0  0  0  0  0  0  0
   -9.4054   -0.7829  -13.3926 O   0  0  0  0  0  0  0  0  0  0  0  0
  -10.1071   -3.2704  -17.6511 F   0  0  0  0  0  0  0  0  0  0  0  0
   -9.5218   -0.6608  -18.5084 H   0  0  0  0  0  0  0  0  0  0  0  0
   -7.8524   -0.1941  -18.8286 H   0  0  0  0  0  0  0  0  0  0  0  0
   -7.4669    0.5193  -16.6197 H   0  0  0  0  0  0  0  0  0  0  0  0
   -9.1519    0.9723  -16.8736 H   0  0  0  0  0  0  0  0  0  0  0  0
  -10.6379   -1.6360  -16.0893 H   0  0  0  0  0  0  0  0  0  0  0  0
   -9.6473   -2.4533  -14.8681 H   0  0  0  0  0  0  0  0  0  0  0  0
   -7.0659   -2.1025  -17.3768 H   0  0  0  0  0  0  0  0  0  0  0  0
   -8.5815   -3.7136  -16.4635 H   0  0  0  0  0  0  0  0  0  0  0  0
   -8.4788    1.5923  -12.5380 H   0  0  0  0  0  0  0  0  0  0  0  0
  -10.2342    1.4977  -12.2703 H   0  0  0  0  0  0  0  0  0  0  0  0
   -9.1004    1.4571  -10.9025 H   0  0  0  0  0  0  0  0  0  0  0  0
  -10.2243   -2.1434  -11.2527 H   0  0  0  0  0  0  0  0  0  0  0  0
  -11.2715   -0.7673  -11.5501 H   0  0  0  0  0  0  0  0  0  0  0  0
  -10.1989   -0.7635  -10.1325 H   0  0  0  0  0  0  0  0  0  0  0  0
   -7.7479   -1.9954  -11.6723 H   0  0  0  0  0  0  0  0  0  0  0  0
   -7.0099   -0.4754  -12.2222 H   0  0  0  0  0  0  0  0  0  0  0  0
   -7.6053   -0.6490  -10.5555 H   0  0  0  0  0  0  0  0  0  0  0  0
   -7.2685   -2.3713  -19.6889 H   0  0  0  0  0  0  0  0  0  0  0  0
   -7.6207   -3.7676  -18.9190 H   0  0  0  0  0  0  0  0  0  0  0  0
  1 11  1  0  0  0  0
  1 13  2  0  0  0  0
  1 14  1  0  0  0  0
  2  3  1  0  0  0  0
  2  5  1  0  0  0  0
  3 11  1  0  0  0  0
  4  6  1  0  0  0  0
  4 11  1  0  0  0  0
  5  6  1  0  0  0  0
  5 12  1  0  0  0  0
  6 15  1  0  0  0  0
  7 10  1  0  0  0  0
  8 10  1  0  0  0  0
  9 10  1  0  0  0  0
 10 14  1  0  0  0  0
  2 16  1  0  0  0  0
  2 17  1  0  0  0  0
  3 18  1  0  0  0  0
  3 19  1  0  0  0  0
  4 20  1  0  0  0  0
  4 21  1  0  0  0  0
  5 22  1  0  0  0  0
  6 23  1  0  0  0  0
  7 24  1  0  0  0  0
  7 25  1  0  0  0  0
  7 26  1  0  0  0  0
  8 27  1  0  0  0  0
  8 28  1  0  0  0  0
  8 29  1  0  0  0  0
  9 30  1  0  0  0  0
  9 31  1  0  0  0  0
  9 32  1  0  0  0  0
 12 33  1  0  0  0  0
 12 34  1  0  0  0  0
M  END
> <id>
EN300-336009

> <smiles>
CC(C)(C)OC(=O)N1CCC(N)C(F)C1

> <MDLNUMBER>
MFCD10566556

> <IUPAC Name>
tert-butyl 4-amino-3-fluoropiperidine-1-carboxylate

> <CAS>
934536-10-4

> <Purity>
95

> <URL>
https://www.enaminestore.com/catalog/EN300-336009

> <ROCS_ShapeQuery>
amalgated

> <ROCS_TanimotoCombo>
0.858 

> <ROCS_ShapeTanimoto>
0.557 

> <ROCS_ColorTanimoto>
0.301 

> <ROCS_RefTversky>
0.510 

> <ROCS_RefColorTversky>
0.402 

> <ROCS_RefTverskyCombo>
0.912 

> <ROCS_FitTversky>
1.199 

> <ROCS_FitColorTversky>
0.544 

> <ROCS_FitTverskyCombo>
1.744 

> <ROCS_ColorScore>
-2.776

> <ROCS_Overlap>
835.135

> <ROCS_Rank>
162                 

$$$$
untitled-dbase-34428_73
  -OEChem-10092318153D

 38 39  0     0  0  0  0  0  0999 V2000
   -7.1974    1.8407  -17.9485 C   0  0  0  0  0  0  0  0  0  0  0  0
   -8.1088    2.0548  -16.9238 C   0  0  0  0  0  0  0  0  0  0  0  0
   -6.8807    0.5395  -18.3272 C   0  0  0  0  0  0  0  0  0  0  0  0
   -8.7048    0.9687  -16.2791 C   0  0  0  0  0  0  0  0  0  0  0  0
   -7.4681   -0.5648  -17.6825 C   0  0  0  0  0  0  0  0  0  0  0  0
   -8.4005   -0.3574  -16.6415 C   0  0  0  0  0  0  0  0  0  0  0  0
   -9.3417   -1.3778  -14.5864 C   0  0  0  0  0  0  0  0  0  0  0  0
   -7.0479   -1.9481  -18.1071 C   0  0  0  0  0  0  0  0  0  0  0  0
   -9.3939   -2.6303  -18.2330 C   0  0  0  0  0  0  0  0  0  0  0  0
   -9.3793   -2.6955  -16.7047 C   0  0  0  0  0  0  0  0  0  0  0  0
   -8.5287   -0.9977  -11.8636 C   0  0  0  0  0  0  0  0  0  0  0  0
   -8.8868    1.4514  -12.2910 C   0  0  0  0  0  0  0  0  0  0  0  0
  -10.8207   -0.1427  -12.4553 C   0  0  0  0  0  0  0  0  0  0  0  0
   -9.3179    0.0353  -12.6665 C   0  0  0  0  0  0  0  0  0  0  0  0
   -8.0733   -2.6648  -18.8542 N   0  0  0  0  0  0  0  0  0  0  0  0
   -9.0588   -1.4531  -15.9721 N   0  0  0  0  0  0  0  0  0  0  0  0
   -9.8440   -2.2718  -13.9081 O   0  0  0  0  0  0  0  0  0  0  0  0
   -9.0277   -0.1496  -14.0571 O   0  0  0  0  0  0  0  0  0  0  0  0
   -6.7328    2.6839  -18.4506 H   0  0  0  0  0  0  0  0  0  0  0  0
   -8.3452    3.0676  -16.6096 H   0  0  0  0  0  0  0  0  0  0  0  0
   -6.1792    0.3924  -19.1419 H   0  0  0  0  0  0  0  0  0  0  0  0
   -9.3694    1.1917  -15.4493 H   0  0  0  0  0  0  0  0  0  0  0  0
   -6.1935   -1.8609  -18.7881 H   0  0  0  0  0  0  0  0  0  0  0  0
   -6.6917   -2.5215  -17.2443 H   0  0  0  0  0  0  0  0  0  0  0  0
   -9.9972   -3.4643  -18.6189 H   0  0  0  0  0  0  0  0  0  0  0  0
   -9.9063   -1.7140  -18.5586 H   0  0  0  0  0  0  0  0  0  0  0  0
  -10.3692   -3.0838  -16.3621 H   0  0  0  0  0  0  0  0  0  0  0  0
   -8.6774   -3.4917  -16.3464 H   0  0  0  0  0  0  0  0  0  0  0  0
   -8.8352   -2.0155  -12.1303 H   0  0  0  0  0  0  0  0  0  0  0  0
   -7.4512   -0.9033  -12.0335 H   0  0  0  0  0  0  0  0  0  0  0  0
   -8.7207   -0.8884  -10.7901 H   0  0  0  0  0  0  0  0  0  0  0  0
   -9.4505    2.1959  -12.8647 H   0  0  0  0  0  0  0  0  0  0  0  0
   -7.8295    1.6138  -12.5296 H   0  0  0  0  0  0  0  0  0  0  0  0
   -9.0361    1.6498  -11.2247 H   0  0  0  0  0  0  0  0  0  0  0  0
  -11.3870    0.5982  -13.0312 H   0  0  0  0  0  0  0  0  0  0  0  0
  -11.1545   -1.1416  -12.7545 H   0  0  0  0  0  0  0  0  0  0  0  0
  -11.0876    0.0132  -11.4038 H   0  0  0  0  0  0  0  0  0  0  0  0
   -8.1256   -2.2971  -19.8114 H   0  0  0  0  0  0  0  0  0  0  0  0
  1  2  2  0  0  0  0
  1  3  1  0  0  0  0
  2  4  1  0  0  0  0
  3  5  2  0  0  0  0
  4  6  2  0  0  0  0
  5  6  1  0  0  0  0
  5  8  1  0  0  0  0
  6 16  1  0  0  0  0
  7 16  1  0  0  0  0
  7 17  2  0  0  0  0
  7 18  1  0  0  0  0
  8 15  1  0  0  0  0
  9 10  1  0  0  0  0
  9 15  1  0  0  0  0
 10 16  1  0  0  0  0
 11 14  1  0  0  0  0
 12 14  1  0  0  0  0
 13 14  1  0  0  0  0
 14 18  1  0  0  0  0
  1 19  1  0  0  0  0
  2 20  1  0  0  0  0
  3 21  1  0  0  0  0
  4 22  1  0  0  0  0
  8 23  1  0  0  0  0
  8 24  1  0  0  0  0
  9 25  1  0  0  0  0
  9 26  1  0  0  0  0
 10 27  1  0  0  0  0
 10 28  1  0  0  0  0
 11 29  1  0  0  0  0
 11 30  1  0  0  0  0
 11 31  1  0  0  0  0
 12 32  1  0  0  0  0
 12 33  1  0  0  0  0
 12 34  1  0  0  0  0
 13 35  1  0  0  0  0
 13 36  1  0  0  0  0
 13 37  1  0  0  0  0
 15 38  1  0  0  0  0
M  END
> <id>
EN300-88620

> <smiles>
CC(C)(C)OC(=O)N1CCNCC=2C=CC=CC12

> <MDLNUMBER>
MFCD11505642

> <IUPAC Name>
tert-butyl 2,3,4,5-tetrahydro-1H-1,4-benzodiazepine-1-carboxylate

> <CAS>
1087800-69-8

> <URL>
https://www.enaminestore.com/catalog/EN300-88620

> <ROCS_ShapeQuery>
amalgated

> <ROCS_TanimotoCombo>
0.858 

> <ROCS_ShapeTanimoto>
0.581 

> <ROCS_ColorTanimoto>
0.277 

> <ROCS_RefTversky>
0.556 

> <ROCS_RefColorTversky>
0.406 

> <ROCS_RefTverskyCombo>
0.962 

> <ROCS_FitTversky>
1.083 

> <ROCS_FitColorTversky>
0.466 

> <ROCS_FitTverskyCombo>
1.549 

> <ROCS_ColorScore>
-2.819

> <ROCS_Overlap>
915.068

> <ROCS_Rank>
163                 

$$$$
untitled-dbase-22056_64
  -OEChem-10092318153D

 41 42  0     1  0  0  0  0  0999 V2000
   -8.5583   -0.2152  -13.9295 C   0  0  0  0  0  0  0  0  0  0  0  0
   -8.4596    0.3974  -17.1805 C   0  0  0  0  0  0  0  0  0  0  0  0
   -9.8160   -1.7660  -17.2168 C   0  0  0  0  0  0  0  0  0  0  0  0
   -7.4599   -0.1030  -16.1365 C   0  0  0  0  0  0  0  0  0  0  0  0
   -8.1333   -1.2915  -19.0756 C   0  0  0  0  0  0  0  0  0  0  0  0
   -7.7002   -3.1532  -17.6266 C   0  0  0  0  0  0  0  0  0  0  0  0
   -8.2435   -2.3365  -15.2694 C   0  0  0  0  0  0  0  0  0  0  0  0
   -9.1210   -0.6852  -18.0531 C   0  0  2  0  0  0  0  0  0  0  0  0
   -8.8175   -2.7762  -16.6315 C   0  0  1  0  0  0  0  0  0  0  0  0
  -10.6817    0.5925  -12.1883 C   0  0  0  0  0  0  0  0  0  0  0  0
  -10.2345   -1.5484  -10.9531 C   0  0  0  0  0  0  0  0  0  0  0  0
   -8.4472    0.2105  -11.0950 C   0  0  0  0  0  0  0  0  0  0  0  0
   -9.6243   -0.4455  -11.8154 C   0  0  0  0  0  0  0  0  0  0  0  0
   -8.0245   -2.7495  -18.9914 N   0  0  0  0  0  0  0  0  0  0  0  0
   -8.1061   -0.8832  -15.0799 N   0  0  0  0  0  0  0  0  0  0  0  0
   -8.4473    0.9962  -13.7463 O   0  0  0  0  0  0  0  0  0  0  0  0
   -9.1405   -1.0555  -13.0176 O   0  0  0  0  0  0  0  0  0  0  0  0
   -9.2502    0.9098  -16.6301 H   0  0  0  0  0  0  0  0  0  0  0  0
   -7.9861    1.1560  -17.8004 H   0  0  0  0  0  0  0  0  0  0  0  0
  -10.4405   -1.3258  -16.4362 H   0  0  0  0  0  0  0  0  0  0  0  0
  -10.4962   -2.3151  -17.8774 H   0  0  0  0  0  0  0  0  0  0  0  0
   -6.7121   -0.7227  -16.6354 H   0  0  0  0  0  0  0  0  0  0  0  0
   -6.9186    0.7291  -15.6826 H   0  0  0  0  0  0  0  0  0  0  0  0
   -8.4398   -1.0061  -20.0944 H   0  0  0  0  0  0  0  0  0  0  0  0
   -7.1350   -0.8526  -18.9328 H   0  0  0  0  0  0  0  0  0  0  0  0
   -6.7645   -2.6775  -17.3262 H   0  0  0  0  0  0  0  0  0  0  0  0
   -7.5334   -4.2333  -17.5929 H   0  0  0  0  0  0  0  0  0  0  0  0
   -8.8842   -2.7084  -14.4565 H   0  0  0  0  0  0  0  0  0  0  0  0
   -7.2649   -2.8138  -15.1208 H   0  0  0  0  0  0  0  0  0  0  0  0
   -9.8949   -0.1695  -18.6282 H   0  0  0  0  0  0  0  0  0  0  0  0
   -9.3779   -3.7043  -16.4191 H   0  0  0  0  0  0  0  0  0  0  0  0
  -10.2477    1.3859  -12.8073 H   0  0  0  0  0  0  0  0  0  0  0  0
  -11.5149    0.1406  -12.7363 H   0  0  0  0  0  0  0  0  0  0  0  0
  -11.0814    1.0826  -11.2932 H   0  0  0  0  0  0  0  0  0  0  0  0
   -9.4793   -2.2954  -10.6832 H   0  0  0  0  0  0  0  0  0  0  0  0
  -11.0169   -2.0849  -11.5019 H   0  0  0  0  0  0  0  0  0  0  0  0
  -10.6698   -1.1470  -10.0323 H   0  0  0  0  0  0  0  0  0  0  0  0
   -7.6885   -0.5339  -10.8273 H   0  0  0  0  0  0  0  0  0  0  0  0
   -7.9735    0.9796  -11.7137 H   0  0  0  0  0  0  0  0  0  0  0  0
   -8.7732    0.6713  -10.1555 H   0  0  0  0  0  0  0  0  0  0  0  0
   -8.9113   -3.1669  -19.2645 H   0  0  0  0  0  0  0  0  0  0  0  0
  1 15  1  0  0  0  0
  1 16  2  0  0  0  0
  1 17  1  0  0  0  0
  2  4  1  0  0  0  0
  2  8  1  0  0  0  0
  3  8  1  0  0  0  0
  3  9  1  0  0  0  0
  4 15  1  0  0  0  0
  5  8  1  0  0  0  0
  5 14  1  0  0  0  0
  6  9  1  0  0  0  0
  6 14  1  0  0  0  0
  7  9  1  0  0  0  0
  7 15  1  0  0  0  0
 10 13  1  0  0  0  0
 11 13  1  0  0  0  0
 12 13  1  0  0  0  0
 13 17  1  0  0  0  0
  2 18  1  0  0  0  0
  2 19  1  0  0  0  0
  3 20  1  0  0  0  0
  3 21  1  0  0  0  0
  4 22  1  0  0  0  0
  4 23  1  0  0  0  0
  5 24  1  0  0  0  0
  5 25  1  0  0  0  0
  6 26  1  0  0  0  0
  6 27  1  0  0  0  0
  7 28  1  0  0  0  0
  7 29  1  0  0  0  0
  8 30  1  0  0  0  0
  9 31  1  0  0  0  0
 10 32  1  0  0  0  0
 10 33  1  0  0  0  0
 10 34  1  0  0  0  0
 11 35  1  0  0  0  0
 11 36  1  0  0  0  0
 11 37  1  0  0  0  0
 12 38  1  0  0  0  0
 12 39  1  0  0  0  0
 12 40  1  0  0  0  0
 14 41  1  0  0  0  0
M  END
> <id>
EN300-28243846

> <smiles>
Cl.CC(C)(C)OC(=O)N1CCC2CNCC(C2)C1

> <MDLNUMBER>
MFCD34167803

> <IUPAC Name>
tert-butyl 3,8-diazabicyclo[4.3.1]decane-3-carboxylate hydrochloride

> <CAS>
2648946-12-5

> <Purity>
95

> <URL>
https://www.enaminestore.com/catalog/EN300-28243846

> <ROCS_ShapeQuery>
amalgated

> <ROCS_TanimotoCombo>
0.857 

> <ROCS_ShapeTanimoto>
0.565 

> <ROCS_ColorTanimoto>
0.292 

> <ROCS_RefTversky>
0.534 

> <ROCS_RefColorTversky>
0.428 

> <ROCS_RefTverskyCombo>
0.962 

> <ROCS_FitTversky>
1.115 

> <ROCS_FitColorTversky>
0.480 

> <ROCS_FitTverskyCombo>
1.595 

> <ROCS_ColorScore>
-2.980

> <ROCS_Overlap>
877.011

> <ROCS_Rank>
164                 

$$$$
untitled-dbase-16767_64
  -OEChem-10092318153D

 41 42  0     1  0  0  0  0  0999 V2000
   -8.5583   -0.2152  -13.9295 C   0  0  0  0  0  0  0  0  0  0  0  0
   -8.4596    0.3974  -17.1805 C   0  0  0  0  0  0  0  0  0  0  0  0
   -9.8160   -1.7660  -17.2168 C   0  0  0  0  0  0  0  0  0  0  0  0
   -7.4599   -0.1030  -16.1365 C   0  0  0  0  0  0  0  0  0  0  0  0
   -8.1333   -1.2915  -19.0756 C   0  0  0  0  0  0  0  0  0  0  0  0
   -7.7002   -3.1532  -17.6266 C   0  0  0  0  0  0  0  0  0  0  0  0
   -8.2435   -2.3365  -15.2694 C   0  0  0  0  0  0  0  0  0  0  0  0
   -9.1210   -0.6852  -18.0531 C   0  0  2  0  0  0  0  0  0  0  0  0
   -8.8175   -2.7762  -16.6315 C   0  0  1  0  0  0  0  0  0  0  0  0
  -10.6817    0.5925  -12.1883 C   0  0  0  0  0  0  0  0  0  0  0  0
  -10.2345   -1.5484  -10.9531 C   0  0  0  0  0  0  0  0  0  0  0  0
   -8.4472    0.2105  -11.0950 C   0  0  0  0  0  0  0  0  0  0  0  0
   -9.6243   -0.4455  -11.8154 C   0  0  0  0  0  0  0  0  0  0  0  0
   -8.0245   -2.7495  -18.9914 N   0  0  0  0  0  0  0  0  0  0  0  0
   -8.1061   -0.8832  -15.0799 N   0  0  0  0  0  0  0  0  0  0  0  0
   -8.4473    0.9962  -13.7463 O   0  0  0  0  0  0  0  0  0  0  0  0
   -9.1405   -1.0555  -13.0176 O   0  0  0  0  0  0  0  0  0  0  0  0
   -9.2502    0.9098  -16.6301 H   0  0  0  0  0  0  0  0  0  0  0  0
   -7.9861    1.1560  -17.8004 H   0  0  0  0  0  0  0  0  0  0  0  0
  -10.4405   -1.3258  -16.4362 H   0  0  0  0  0  0  0  0  0  0  0  0
  -10.4962   -2.3151  -17.8774 H   0  0  0  0  0  0  0  0  0  0  0  0
   -6.7121   -0.7227  -16.6354 H   0  0  0  0  0  0  0  0  0  0  0  0
   -6.9186    0.7291  -15.6826 H   0  0  0  0  0  0  0  0  0  0  0  0
   -8.4398   -1.0061  -20.0944 H   0  0  0  0  0  0  0  0  0  0  0  0
   -7.1350   -0.8526  -18.9328 H   0  0  0  0  0  0  0  0  0  0  0  0
   -6.7645   -2.6775  -17.3262 H   0  0  0  0  0  0  0  0  0  0  0  0
   -7.5334   -4.2333  -17.5929 H   0  0  0  0  0  0  0  0  0  0  0  0
   -8.8842   -2.7084  -14.4565 H   0  0  0  0  0  0  0  0  0  0  0  0
   -7.2649   -2.8138  -15.1208 H   0  0  0  0  0  0  0  0  0  0  0  0
   -9.8949   -0.1695  -18.6282 H   0  0  0  0  0  0  0  0  0  0  0  0
   -9.3779   -3.7043  -16.4191 H   0  0  0  0  0  0  0  0  0  0  0  0
  -10.2477    1.3859  -12.8073 H   0  0  0  0  0  0  0  0  0  0  0  0
  -11.5149    0.1406  -12.7363 H   0  0  0  0  0  0  0  0  0  0  0  0
  -11.0814    1.0826  -11.2932 H   0  0  0  0  0  0  0  0  0  0  0  0
   -9.4793   -2.2954  -10.6832 H   0  0  0  0  0  0  0  0  0  0  0  0
  -11.0169   -2.0849  -11.5019 H   0  0  0  0  0  0  0  0  0  0  0  0
  -10.6698   -1.1470  -10.0323 H   0  0  0  0  0  0  0  0  0  0  0  0
   -7.6885   -0.5339  -10.8273 H   0  0  0  0  0  0  0  0  0  0  0  0
   -7.9735    0.9796  -11.7137 H   0  0  0  0  0  0  0  0  0  0  0  0
   -8.7732    0.6713  -10.1555 H   0  0  0  0  0  0  0  0  0  0  0  0
   -8.9113   -3.1669  -19.2645 H   0  0  0  0  0  0  0  0  0  0  0  0
  1 15  1  0  0  0  0
  1 16  2  0  0  0  0
  1 17  1  0  0  0  0
  2  4  1  0  0  0  0
  2  8  1  0  0  0  0
  3  8  1  0  0  0  0
  3  9  1  0  0  0  0
  4 15  1  0  0  0  0
  5  8  1  0  0  0  0
  5 14  1  0  0  0  0
  6  9  1  0  0  0  0
  6 14  1  0  0  0  0
  7  9  1  0  0  0  0
  7 15  1  0  0  0  0
 10 13  1  0  0  0  0
 11 13  1  0  0  0  0
 12 13  1  0  0  0  0
 13 17  1  0  0  0  0
  2 18  1  0  0  0  0
  2 19  1  0  0  0  0
  3 20  1  0  0  0  0
  3 21  1  0  0  0  0
  4 22  1  0  0  0  0
  4 23  1  0  0  0  0
  5 24  1  0  0  0  0
  5 25  1  0  0  0  0
  6 26  1  0  0  0  0
  6 27  1  0  0  0  0
  7 28  1  0  0  0  0
  7 29  1  0  0  0  0
  8 30  1  0  0  0  0
  9 31  1  0  0  0  0
 10 32  1  0  0  0  0
 10 33  1  0  0  0  0
 10 34  1  0  0  0  0
 11 35  1  0  0  0  0
 11 36  1  0  0  0  0
 11 37  1  0  0  0  0
 12 38  1  0  0  0  0
 12 39  1  0  0  0  0
 12 40  1  0  0  0  0
 14 41  1  0  0  0  0
M  END
> <id>
EN300-27748482

> <smiles>
CC(C)(C)OC(=O)N1CCC2CNCC(C2)C1

> <MDLNUMBER>
MFCD34168061

> <IUPAC Name>
tert-butyl 3,8-diazabicyclo[4.3.1]decane-3-carboxylate

> <CAS>
2648946-11-4

> <URL>
https://www.enaminestore.com/catalog/EN300-27748482

> <ROCS_ShapeQuery>
amalgated

> <ROCS_TanimotoCombo>
0.857 

> <ROCS_ShapeTanimoto>
0.565 

> <ROCS_ColorTanimoto>
0.292 

> <ROCS_RefTversky>
0.534 

> <ROCS_RefColorTversky>
0.428 

> <ROCS_RefTverskyCombo>
0.962 

> <ROCS_FitTversky>
1.115 

> <ROCS_FitColorTversky>
0.480 

> <ROCS_FitTverskyCombo>
1.595 

> <ROCS_ColorScore>
-2.980

> <ROCS_Overlap>
877.011

> <ROCS_Rank>
165                 

$$$$
untitled-dbase-20130_47
  -OEChem-10092318153D

 41 42  0     1  0  0  0  0  0999 V2000
   -8.8226   -0.9199  -13.8329 C   0  0  0  0  0  0  0  0  0  0  0  0
   -8.8257    1.3130  -16.8998 C   0  0  0  0  0  0  0  0  0  0  0  0
   -7.4570    0.7756  -17.2826 C   0  0  0  0  0  0  0  0  0  0  0  0
   -9.5616   -2.1341  -16.8467 C   0  0  0  0  0  0  0  0  0  0  0  0
   -9.2323    0.8180  -15.5194 C   0  0  0  0  0  0  0  0  0  0  0  0
   -9.1652   -3.1193  -17.9515 C   0  0  0  0  0  0  0  0  0  0  0  0
   -7.8938   -1.2182  -18.7773 C   0  0  0  0  0  0  0  0  0  0  0  0
   -7.4719   -0.7573  -17.3669 C   0  0  2  0  0  0  0  0  0  0  0  0
   -8.3314   -1.4267  -16.2610 C   0  0  1  0  0  0  0  0  0  0  0  0
   -8.1237   -0.5839  -11.0781 C   0  0  0  0  0  0  0  0  0  0  0  0
  -10.1627    0.8756  -10.9305 C   0  0  0  0  0  0  0  0  0  0  0  0
  -10.4032   -1.5528  -11.5249 C   0  0  0  0  0  0  0  0  0  0  0  0
   -9.5181   -0.3127  -11.6410 C   0  0  0  0  0  0  0  0  0  0  0  0
   -8.0731   -2.6640  -18.8120 N   0  0  0  0  0  0  0  0  0  0  0  0
   -8.7261   -0.5107  -15.1738 N   0  0  0  0  0  0  0  0  0  0  0  0
   -8.4344   -2.0103  -13.4165 O   0  0  0  0  0  0  0  0  0  0  0  0
   -9.3919    0.0294  -13.0258 O   0  0  0  0  0  0  0  0  0  0  0  0
   -8.8106    2.4073  -16.9063 H   0  0  0  0  0  0  0  0  0  0  0  0
   -9.5674    0.9947  -17.6373 H   0  0  0  0  0  0  0  0  0  0  0  0
   -7.1440    1.2187  -18.2393 H   0  0  0  0  0  0  0  0  0  0  0  0
   -6.7174    1.1000  -16.5360 H   0  0  0  0  0  0  0  0  0  0  0  0
  -10.2683   -1.4060  -17.2627 H   0  0  0  0  0  0  0  0  0  0  0  0
  -10.0934   -2.6784  -16.0574 H   0  0  0  0  0  0  0  0  0  0  0  0
   -8.9128    1.5540  -14.7603 H   0  0  0  0  0  0  0  0  0  0  0  0
  -10.3337    0.7728  -15.4422 H   0  0  0  0  0  0  0  0  0  0  0  0
   -8.9062   -4.1021  -17.5033 H   0  0  0  0  0  0  0  0  0  0  0  0
  -10.0532   -3.3166  -18.5851 H   0  0  0  0  0  0  0  0  0  0  0  0
   -8.8273   -0.7339  -19.0551 H   0  0  0  0  0  0  0  0  0  0  0  0
   -7.1377   -0.9187  -19.5016 H   0  0  0  0  0  0  0  0  0  0  0  0
   -6.4241   -1.0947  -17.2273 H   0  0  0  0  0  0  0  0  0  0  0  0
   -7.6970   -2.2230  -15.8206 H   0  0  0  0  0  0  0  0  0  0  0  0
   -7.6576   -1.4361  -11.5855 H   0  0  0  0  0  0  0  0  0  0  0  0
   -7.4684    0.2865  -11.1870 H   0  0  0  0  0  0  0  0  0  0  0  0
   -8.1754   -0.8473  -10.0155 H   0  0  0  0  0  0  0  0  0  0  0  0
  -11.1634    1.0738  -11.3312 H   0  0  0  0  0  0  0  0  0  0  0  0
   -9.5794    1.7895  -11.0909 H   0  0  0  0  0  0  0  0  0  0  0  0
  -10.2486    0.7038   -9.8527 H   0  0  0  0  0  0  0  0  0  0  0  0
  -11.4035   -1.3585  -11.9286 H   0  0  0  0  0  0  0  0  0  0  0  0
   -9.9742   -2.4060  -12.0603 H   0  0  0  0  0  0  0  0  0  0  0  0
  -10.5429   -1.8349  -10.4751 H   0  0  0  0  0  0  0  0  0  0  0  0
   -7.2023   -3.1188  -18.5124 H   0  0  0  0  0  0  0  0  0  0  0  0
  1 15  1  0  0  0  0
  1 16  2  0  0  0  0
  1 17  1  0  0  0  0
  2  3  1  0  0  0  0
  2  5  1  0  0  0  0
  3  8  1  6  0  0  0
  4  6  1  0  0  0  0
  4  9  1  6  0  0  0
  5 15  1  0  0  0  0
  6 14  1  0  0  0  0
  7  8  1  0  0  0  0
  7 14  1  0  0  0  0
  8  9  1  0  0  0  0
  9 15  1  0  0  0  0
 10 13  1  0  0  0  0
 11 13  1  0  0  0  0
 12 13  1  0  0  0  0
 13 17  1  0  0  0  0
  2 18  1  0  0  0  0
  2 19  1  0  0  0  0
  3 20  1  0  0  0  0
  3 21  1  0  0  0  0
  4 22  1  0  0  0  0
  4 23  1  0  0  0  0
  5 24  1  0  0  0  0
  5 25  1  0  0  0  0
  6 26  1  0  0  0  0
  6 27  1  0  0  0  0
  7 28  1  0  0  0  0
  7 29  1  0  0  0  0
  8 30  1  0  0  0  0
  9 31  1  0  0  0  0
 10 32  1  0  0  0  0
 10 33  1  0  0  0  0
 10 34  1  0  0  0  0
 11 35  1  0  0  0  0
 11 36  1  0  0  0  0
 11 37  1  0  0  0  0
 12 38  1  0  0  0  0
 12 39  1  0  0  0  0
 12 40  1  0  0  0  0
 14 41  1  0  0  0  0
M  END
> <id>
EN300-1703953

> <smiles>
CC(C)(C)OC(=O)N1CCC[C@@H]2CNCC[C@@H]21 |&1:11,16,r|

> <MDLNUMBER>
MFCD31700451

> <IUPAC Name>
rac-tert-butyl (4aR,8aS)-decahydro-1,6-naphthyridine-1-carboxylate

> <CAS>
2219368-64-4

> <URL>
https://www.enaminestore.com/catalog/EN300-1703953

> <ROCS_ShapeQuery>
amalgated

> <ROCS_TanimotoCombo>
0.857 

> <ROCS_ShapeTanimoto>
0.602 

> <ROCS_ColorTanimoto>
0.254 

> <ROCS_RefTversky>
0.556 

> <ROCS_RefColorTversky>
0.380 

> <ROCS_RefTverskyCombo>
0.935 

> <ROCS_FitTversky>
1.163 

> <ROCS_FitColorTversky>
0.435 

> <ROCS_FitTverskyCombo>
1.598 

> <ROCS_ColorScore>
-2.639

> <ROCS_Overlap>
912.457

> <ROCS_Rank>
166                 

$$$$
untitled-dbase-19862_47
  -OEChem-10092318153D

 41 42  0     1  0  0  0  0  0999 V2000
   -8.8226   -0.9199  -13.8329 C   0  0  0  0  0  0  0  0  0  0  0  0
   -8.8257    1.3130  -16.8998 C   0  0  0  0  0  0  0  0  0  0  0  0
   -7.4570    0.7756  -17.2826 C   0  0  0  0  0  0  0  0  0  0  0  0
   -9.5616   -2.1341  -16.8467 C   0  0  0  0  0  0  0  0  0  0  0  0
   -9.2323    0.8180  -15.5194 C   0  0  0  0  0  0  0  0  0  0  0  0
   -9.1652   -3.1193  -17.9515 C   0  0  0  0  0  0  0  0  0  0  0  0
   -7.8938   -1.2182  -18.7773 C   0  0  0  0  0  0  0  0  0  0  0  0
   -7.4719   -0.7573  -17.3669 C   0  0  2  0  0  0  0  0  0  0  0  0
   -8.3314   -1.4267  -16.2610 C   0  0  1  0  0  0  0  0  0  0  0  0
   -8.1237   -0.5839  -11.0781 C   0  0  0  0  0  0  0  0  0  0  0  0
  -10.1627    0.8756  -10.9305 C   0  0  0  0  0  0  0  0  0  0  0  0
  -10.4032   -1.5528  -11.5249 C   0  0  0  0  0  0  0  0  0  0  0  0
   -9.5181   -0.3127  -11.6410 C   0  0  0  0  0  0  0  0  0  0  0  0
   -8.0731   -2.6640  -18.8120 N   0  0  0  0  0  0  0  0  0  0  0  0
   -8.7261   -0.5107  -15.1738 N   0  0  0  0  0  0  0  0  0  0  0  0
   -8.4344   -2.0103  -13.4165 O   0  0  0  0  0  0  0  0  0  0  0  0
   -9.3919    0.0294  -13.0258 O   0  0  0  0  0  0  0  0  0  0  0  0
   -8.8106    2.4073  -16.9063 H   0  0  0  0  0  0  0  0  0  0  0  0
   -9.5674    0.9947  -17.6373 H   0  0  0  0  0  0  0  0  0  0  0  0
   -7.1440    1.2187  -18.2393 H   0  0  0  0  0  0  0  0  0  0  0  0
   -6.7174    1.1000  -16.5360 H   0  0  0  0  0  0  0  0  0  0  0  0
  -10.2683   -1.4060  -17.2627 H   0  0  0  0  0  0  0  0  0  0  0  0
  -10.0934   -2.6784  -16.0574 H   0  0  0  0  0  0  0  0  0  0  0  0
   -8.9128    1.5540  -14.7603 H   0  0  0  0  0  0  0  0  0  0  0  0
  -10.3337    0.7728  -15.4422 H   0  0  0  0  0  0  0  0  0  0  0  0
   -8.9062   -4.1021  -17.5033 H   0  0  0  0  0  0  0  0  0  0  0  0
  -10.0532   -3.3166  -18.5851 H   0  0  0  0  0  0  0  0  0  0  0  0
   -8.8273   -0.7339  -19.0551 H   0  0  0  0  0  0  0  0  0  0  0  0
   -7.1377   -0.9187  -19.5016 H   0  0  0  0  0  0  0  0  0  0  0  0
   -6.4241   -1.0947  -17.2273 H   0  0  0  0  0  0  0  0  0  0  0  0
   -7.6970   -2.2230  -15.8206 H   0  0  0  0  0  0  0  0  0  0  0  0
   -7.6576   -1.4361  -11.5855 H   0  0  0  0  0  0  0  0  0  0  0  0
   -7.4684    0.2865  -11.1870 H   0  0  0  0  0  0  0  0  0  0  0  0
   -8.1754   -0.8473  -10.0155 H   0  0  0  0  0  0  0  0  0  0  0  0
  -11.1634    1.0738  -11.3312 H   0  0  0  0  0  0  0  0  0  0  0  0
   -9.5794    1.7895  -11.0909 H   0  0  0  0  0  0  0  0  0  0  0  0
  -10.2486    0.7038   -9.8527 H   0  0  0  0  0  0  0  0  0  0  0  0
  -11.4035   -1.3585  -11.9286 H   0  0  0  0  0  0  0  0  0  0  0  0
   -9.9742   -2.4060  -12.0603 H   0  0  0  0  0  0  0  0  0  0  0  0
  -10.5429   -1.8349  -10.4751 H   0  0  0  0  0  0  0  0  0  0  0  0
   -7.2023   -3.1188  -18.5124 H   0  0  0  0  0  0  0  0  0  0  0  0
  1 15  1  0  0  0  0
  1 16  2  0  0  0  0
  1 17  1  0  0  0  0
  2  3  1  0  0  0  0
  2  5  1  0  0  0  0
  3  8  1  6  0  0  0
  4  6  1  0  0  0  0
  4  9  1  6  0  0  0
  5 15  1  0  0  0  0
  6 14  1  0  0  0  0
  7  8  1  0  0  0  0
  7 14  1  0  0  0  0
  8  9  1  0  0  0  0
  9 15  1  0  0  0  0
 10 13  1  0  0  0  0
 11 13  1  0  0  0  0
 12 13  1  0  0  0  0
 13 17  1  0  0  0  0
  2 18  1  0  0  0  0
  2 19  1  0  0  0  0
  3 20  1  0  0  0  0
  3 21  1  0  0  0  0
  4 22  1  0  0  0  0
  4 23  1  0  0  0  0
  5 24  1  0  0  0  0
  5 25  1  0  0  0  0
  6 26  1  0  0  0  0
  6 27  1  0  0  0  0
  7 28  1  0  0  0  0
  7 29  1  0  0  0  0
  8 30  1  0  0  0  0
  9 31  1  0  0  0  0
 10 32  1  0  0  0  0
 10 33  1  0  0  0  0
 10 34  1  0  0  0  0
 11 35  1  0  0  0  0
 11 36  1  0  0  0  0
 11 37  1  0  0  0  0
 12 38  1  0  0  0  0
 12 39  1  0  0  0  0
 12 40  1  0  0  0  0
 14 41  1  0  0  0  0
M  END
> <id>
EN300-1703952

> <smiles>
Cl.CC(C)(C)OC(=O)N1CCC[C@@H]2CNCC[C@@H]21 |&1:12,17,r|

> <MDLNUMBER>
MFCD28894004

> <IUPAC Name>
rac-tert-butyl (4aR,8aS)-decahydro-1,6-naphthyridine-1-carboxylate hydrochloride

> <CAS>
2219368-65-5

> <Purity>
95

> <URL>
https://www.enaminestore.com/catalog/EN300-1703952

> <Saltdate>
Cl

> <ROCS_ShapeQuery>
amalgated

> <ROCS_TanimotoCombo>
0.857 

> <ROCS_ShapeTanimoto>
0.602 

> <ROCS_ColorTanimoto>
0.254 

> <ROCS_RefTversky>
0.556 

> <ROCS_RefColorTversky>
0.380 

> <ROCS_RefTverskyCombo>
0.935 

> <ROCS_FitTversky>
1.163 

> <ROCS_FitColorTversky>
0.435 

> <ROCS_FitTverskyCombo>
1.598 

> <ROCS_ColorScore>
-2.639

> <ROCS_Overlap>
912.457

> <ROCS_Rank>
167                 

$$$$
untitled-dbase-34145_163
  -OEChem-10092318153D

 44 45  0     1  0  0  0  0  0999 V2000
   -9.0233   -0.0084  -13.3029 C   0  0  0  0  0  0  0  0  0  0  0  0
   -8.3723    0.4667  -16.8339 C   0  0  0  0  0  0  0  0  0  0  0  0
   -7.0813   -1.5992  -16.1554 C   0  0  0  0  0  0  0  0  0  0  0  0
   -9.4540   -1.8583  -17.0593 C   0  0  0  0  0  0  0  0  0  0  0  0
   -8.0458    0.8847  -15.3984 C   0  0  0  0  0  0  0  0  0  0  0  0
   -7.4814   -1.4265  -14.6880 C   0  0  0  0  0  0  0  0  0  0  0  0
   -7.7382   -1.2545  -18.5886 C   0  0  0  0  0  0  0  0  0  0  0  0
   -9.3404   -2.9020  -18.1804 C   0  0  2  0  0  0  0  0  0  0  0  0
   -8.1475   -1.0348  -17.1267 C   0  0  0  0  0  0  0  0  0  0  0  0
   -9.4276   -4.3323  -17.6706 C   0  0  0  0  0  0  0  0  0  0  0  0
  -10.8049   -1.0289  -11.3102 C   0  0  0  0  0  0  0  0  0  0  0  0
   -8.7317   -1.5926  -10.0089 C   0  0  0  0  0  0  0  0  0  0  0  0
   -9.2488    0.8022  -10.5618 C   0  0  0  0  0  0  0  0  0  0  0  0
   -9.3511   -0.6468  -11.0356 C   0  0  0  0  0  0  0  0  0  0  0  0
   -8.0399   -2.6659  -18.8141 N   0  0  0  0  0  0  0  0  0  0  0  0
   -8.2412   -0.1990  -14.4458 N   0  0  0  0  0  0  0  0  0  0  0  0
   -9.9763    0.7650  -13.2331 O   0  0  0  0  0  0  0  0  0  0  0  0
   -8.6068   -0.7826  -12.2515 O   0  0  0  0  0  0  0  0  0  0  0  0
   -9.4171    0.7455  -17.0586 H   0  0  0  0  0  0  0  0  0  0  0  0
   -7.7546    1.0679  -17.5258 H   0  0  0  0  0  0  0  0  0  0  0  0
   -6.1333   -1.0753  -16.3147 H   0  0  0  0  0  0  0  0  0  0  0  0
   -6.8934   -2.6587  -16.3470 H   0  0  0  0  0  0  0  0  0  0  0  0
  -10.3244   -1.2211  -17.2603 H   0  0  0  0  0  0  0  0  0  0  0  0
   -9.6112   -2.3162  -16.0778 H   0  0  0  0  0  0  0  0  0  0  0  0
   -7.0108    1.2573  -15.3547 H   0  0  0  0  0  0  0  0  0  0  0  0
   -8.6907    1.7204  -15.0829 H   0  0  0  0  0  0  0  0  0  0  0  0
   -8.1134   -2.2643  -14.3538 H   0  0  0  0  0  0  0  0  0  0  0  0
   -6.5762   -1.4628  -14.0643 H   0  0  0  0  0  0  0  0  0  0  0  0
   -8.3299   -0.6303  -19.2713 H   0  0  0  0  0  0  0  0  0  0  0  0
   -6.6785   -1.0440  -18.7684 H   0  0  0  0  0  0  0  0  0  0  0  0
  -10.1397   -2.7324  -18.9119 H   0  0  0  0  0  0  0  0  0  0  0  0
   -8.6388   -4.5198  -16.9404 H   0  0  0  0  0  0  0  0  0  0  0  0
   -9.3140   -5.0339  -18.4984 H   0  0  0  0  0  0  0  0  0  0  0  0
  -10.3946   -4.5034  -17.1950 H   0  0  0  0  0  0  0  0  0  0  0  0
  -11.2531   -0.3524  -12.0467 H   0  0  0  0  0  0  0  0  0  0  0  0
  -10.8887   -2.0546  -11.6839 H   0  0  0  0  0  0  0  0  0  0  0  0
  -11.4107   -0.9413  -10.4010 H   0  0  0  0  0  0  0  0  0  0  0  0
   -7.6886   -1.3221   -9.8088 H   0  0  0  0  0  0  0  0  0  0  0  0
   -8.7169   -2.6218  -10.3853 H   0  0  0  0  0  0  0  0  0  0  0  0
   -9.2815   -1.5774   -9.0623 H   0  0  0  0  0  0  0  0  0  0  0  0
   -8.2061    1.0765  -10.3647 H   0  0  0  0  0  0  0  0  0  0  0  0
   -9.6552    1.4984  -11.3026 H   0  0  0  0  0  0  0  0  0  0  0  0
   -9.7891    0.9429   -9.6186 H   0  0  0  0  0  0  0  0  0  0  0  0
   -8.0795   -2.8757  -19.8112 H   0  0  0  0  0  0  0  0  0  0  0  0
  1 16  1  0  0  0  0
  1 17  2  0  0  0  0
  1 18  1  0  0  0  0
  2  5  1  0  0  0  0
  2  9  1  0  0  0  0
  3  6  1  0  0  0  0
  3  9  1  0  0  0  0
  4  8  1  0  0  0  0
  4  9  1  0  0  0  0
  5 16  1  0  0  0  0
  6 16  1  0  0  0  0
  7  9  1  0  0  0  0
  7 15  1  0  0  0  0
  8 10  1  0  0  0  0
  8 15  1  0  0  0  0
 11 14  1  0  0  0  0
 12 14  1  0  0  0  0
 13 14  1  0  0  0  0
 14 18  1  0  0  0  0
  2 19  1  0  0  0  0
  2 20  1  0  0  0  0
  3 21  1  0  0  0  0
  3 22  1  0  0  0  0
  4 23  1  0  0  0  0
  4 24  1  0  0  0  0
  5 25  1  0  0  0  0
  5 26  1  0  0  0  0
  6 27  1  0  0  0  0
  6 28  1  0  0  0  0
  7 29  1  0  0  0  0
  7 30  1  0  0  0  0
  8 31  1  0  0  0  0
 10 32  1  0  0  0  0
 10 33  1  0  0  0  0
 10 34  1  0  0  0  0
 11 35  1  0  0  0  0
 11 36  1  0  0  0  0
 11 37  1  0  0  0  0
 12 38  1  0  0  0  0
 12 39  1  0  0  0  0
 12 40  1  0  0  0  0
 13 41  1  0  0  0  0
 13 42  1  0  0  0  0
 13 43  1  0  0  0  0
 15 44  1  0  0  0  0
M  END
> <id>
EN300-257256

> <smiles>
CC1CC2(CN1)CCN(CC2)C(=O)OC(C)(C)C

> <MDLNUMBER>
MFCD29762926

> <IUPAC Name>
tert-butyl 3-methyl-2,8-diazaspiro[4.5]decane-8-carboxylate

> <CAS>
1899102-29-4

> <Purity>
95

> <URL>
https://www.enaminestore.com/catalog/EN300-257256

> <ROCS_ShapeQuery>
amalgated

> <ROCS_TanimotoCombo>
0.857 

> <ROCS_ShapeTanimoto>
0.627 

> <ROCS_ColorTanimoto>
0.230 

> <ROCS_RefTversky>
0.579 

> <ROCS_RefColorTversky>
0.349 

> <ROCS_RefTverskyCombo>
0.928 

> <ROCS_FitTversky>
1.152 

> <ROCS_FitColorTversky>
0.401 

> <ROCS_FitTverskyCombo>
1.553 

> <ROCS_ColorScore>
-2.428

> <ROCS_Overlap>
952.390

> <ROCS_Rank>
168                 

$$$$
untitled-dbase-7955_163
  -OEChem-10092318153D

 44 45  0     1  0  0  0  0  0999 V2000
   -9.0233   -0.0084  -13.3029 C   0  0  0  0  0  0  0  0  0  0  0  0
   -8.3723    0.4667  -16.8339 C   0  0  0  0  0  0  0  0  0  0  0  0
   -7.0813   -1.5992  -16.1554 C   0  0  0  0  0  0  0  0  0  0  0  0
   -9.4540   -1.8583  -17.0593 C   0  0  0  0  0  0  0  0  0  0  0  0
   -8.0458    0.8847  -15.3984 C   0  0  0  0  0  0  0  0  0  0  0  0
   -7.4814   -1.4265  -14.6880 C   0  0  0  0  0  0  0  0  0  0  0  0
   -7.7382   -1.2545  -18.5886 C   0  0  0  0  0  0  0  0  0  0  0  0
   -9.3404   -2.9020  -18.1804 C   0  0  2  0  0  0  0  0  0  0  0  0
   -8.1475   -1.0348  -17.1267 C   0  0  0  0  0  0  0  0  0  0  0  0
   -9.4276   -4.3323  -17.6706 C   0  0  0  0  0  0  0  0  0  0  0  0
  -10.8049   -1.0289  -11.3102 C   0  0  0  0  0  0  0  0  0  0  0  0
   -8.7317   -1.5926  -10.0089 C   0  0  0  0  0  0  0  0  0  0  0  0
   -9.2488    0.8022  -10.5618 C   0  0  0  0  0  0  0  0  0  0  0  0
   -9.3511   -0.6468  -11.0356 C   0  0  0  0  0  0  0  0  0  0  0  0
   -8.0399   -2.6659  -18.8141 N   0  0  0  0  0  0  0  0  0  0  0  0
   -8.2412   -0.1990  -14.4458 N   0  0  0  0  0  0  0  0  0  0  0  0
   -9.9763    0.7650  -13.2331 O   0  0  0  0  0  0  0  0  0  0  0  0
   -8.6068   -0.7826  -12.2515 O   0  0  0  0  0  0  0  0  0  0  0  0
   -9.4171    0.7455  -17.0586 H   0  0  0  0  0  0  0  0  0  0  0  0
   -7.7546    1.0679  -17.5258 H   0  0  0  0  0  0  0  0  0  0  0  0
   -6.1333   -1.0753  -16.3147 H   0  0  0  0  0  0  0  0  0  0  0  0
   -6.8934   -2.6587  -16.3470 H   0  0  0  0  0  0  0  0  0  0  0  0
  -10.3244   -1.2211  -17.2603 H   0  0  0  0  0  0  0  0  0  0  0  0
   -9.6112   -2.3162  -16.0778 H   0  0  0  0  0  0  0  0  0  0  0  0
   -7.0108    1.2573  -15.3547 H   0  0  0  0  0  0  0  0  0  0  0  0
   -8.6907    1.7204  -15.0829 H   0  0  0  0  0  0  0  0  0  0  0  0
   -8.1134   -2.2643  -14.3538 H   0  0  0  0  0  0  0  0  0  0  0  0
   -6.5762   -1.4628  -14.0643 H   0  0  0  0  0  0  0  0  0  0  0  0
   -8.3299   -0.6303  -19.2713 H   0  0  0  0  0  0  0  0  0  0  0  0
   -6.6785   -1.0440  -18.7684 H   0  0  0  0  0  0  0  0  0  0  0  0
  -10.1397   -2.7324  -18.9119 H   0  0  0  0  0  0  0  0  0  0  0  0
   -8.6388   -4.5198  -16.9404 H   0  0  0  0  0  0  0  0  0  0  0  0
   -9.3140   -5.0339  -18.4984 H   0  0  0  0  0  0  0  0  0  0  0  0
  -10.3946   -4.5034  -17.1950 H   0  0  0  0  0  0  0  0  0  0  0  0
  -11.2531   -0.3524  -12.0467 H   0  0  0  0  0  0  0  0  0  0  0  0
  -10.8887   -2.0546  -11.6839 H   0  0  0  0  0  0  0  0  0  0  0  0
  -11.4107   -0.9413  -10.4010 H   0  0  0  0  0  0  0  0  0  0  0  0
   -7.6886   -1.3221   -9.8088 H   0  0  0  0  0  0  0  0  0  0  0  0
   -8.7169   -2.6218  -10.3853 H   0  0  0  0  0  0  0  0  0  0  0  0
   -9.2815   -1.5774   -9.0623 H   0  0  0  0  0  0  0  0  0  0  0  0
   -8.2061    1.0765  -10.3647 H   0  0  0  0  0  0  0  0  0  0  0  0
   -9.6552    1.4984  -11.3026 H   0  0  0  0  0  0  0  0  0  0  0  0
   -9.7891    0.9429   -9.6186 H   0  0  0  0  0  0  0  0  0  0  0  0
   -8.0795   -2.8757  -19.8112 H   0  0  0  0  0  0  0  0  0  0  0  0
  1 16  1  0  0  0  0
  1 17  2  0  0  0  0
  1 18  1  0  0  0  0
  2  5  1  0  0  0  0
  2  9  1  0  0  0  0
  3  6  1  0  0  0  0
  3  9  1  0  0  0  0
  4  8  1  0  0  0  0
  4  9  1  0  0  0  0
  5 16  1  0  0  0  0
  6 16  1  0  0  0  0
  7  9  1  0  0  0  0
  7 15  1  0  0  0  0
  8 10  1  0  0  0  0
  8 15  1  0  0  0  0
 11 14  1  0  0  0  0
 12 14  1  0  0  0  0
 13 14  1  0  0  0  0
 14 18  1  0  0  0  0
  2 19  1  0  0  0  0
  2 20  1  0  0  0  0
  3 21  1  0  0  0  0
  3 22  1  0  0  0  0
  4 23  1  0  0  0  0
  4 24  1  0  0  0  0
  5 25  1  0  0  0  0
  5 26  1  0  0  0  0
  6 27  1  0  0  0  0
  6 28  1  0  0  0  0
  7 29  1  0  0  0  0
  7 30  1  0  0  0  0
  8 31  1  0  0  0  0
 10 32  1  0  0  0  0
 10 33  1  0  0  0  0
 10 34  1  0  0  0  0
 11 35  1  0  0  0  0
 11 36  1  0  0  0  0
 11 37  1  0  0  0  0
 12 38  1  0  0  0  0
 12 39  1  0  0  0  0
 12 40  1  0  0  0  0
 13 41  1  0  0  0  0
 13 42  1  0  0  0  0
 13 43  1  0  0  0  0
 15 44  1  0  0  0  0
M  END
> <id>
EN300-257255

> <smiles>
Cl.CC1CC2(CN1)CCN(CC2)C(=O)OC(C)(C)C

> <MDLNUMBER>
MFCD29762925

> <IUPAC Name>
tert-butyl 3-methyl-2,8-diazaspiro[4.5]decane-8-carboxylate hydrochloride

> <CAS>
1909314-09-5

> <Purity>
95

> <URL>
https://www.enaminestore.com/catalog/EN300-257255

> <Saltdate>
Cl

> <ROCS_ShapeQuery>
amalgated

> <ROCS_TanimotoCombo>
0.857 

> <ROCS_ShapeTanimoto>
0.627 

> <ROCS_ColorTanimoto>
0.230 

> <ROCS_RefTversky>
0.579 

> <ROCS_RefColorTversky>
0.349 

> <ROCS_RefTverskyCombo>
0.928 

> <ROCS_FitTversky>
1.152 

> <ROCS_FitColorTversky>
0.401 

> <ROCS_FitTverskyCombo>
1.553 

> <ROCS_ColorScore>
-2.428

> <ROCS_Overlap>
952.390

> <ROCS_Rank>
169                 

$$$$
untitled-dbase-9947_9
  -OEChem-10092318153D

 32 34  0     0  0  0  0  0  0999 V2000
   -8.5709   -0.4465  -17.9121 C   0  0  0  0  0  0  0  0  0  0  0  0
   -8.9266   -1.6721  -18.4752 C   0  0  0  0  0  0  0  0  0  0  0  0
   -8.7118   -2.7339  -16.3148 C   0  0  0  0  0  0  0  0  0  0  0  0
   -8.2881   -0.3701  -16.5455 C   0  0  0  0  0  0  0  0  0  0  0  0
   -8.3727   -1.5067  -15.7418 C   0  0  0  0  0  0  0  0  0  0  0  0
   -8.9925   -2.8151  -17.6790 C   0  0  0  0  0  0  0  0  0  0  0  0
   -7.8593    0.9036  -15.9424 C   0  0  0  0  0  0  0  0  0  0  0  0
   -7.4574    0.8464  -14.4924 C   0  0  0  0  0  0  0  0  0  0  0  0
   -9.7495    0.1091  -13.5702 C   0  0  0  0  0  0  0  0  0  0  0  0
   -7.5611   -0.4242  -12.3456 C   0  0  0  0  0  0  0  0  0  0  0  0
  -10.0421    0.8177  -12.2524 C   0  0  0  0  0  0  0  0  0  0  0  0
   -8.5272   -1.0206  -11.3254 C   0  0  0  0  0  0  0  0  0  0  0  0
   -8.2397   -0.2354  -13.7311 C   0  0  0  0  0  0  0  0  0  0  0  0
   -9.6921   -0.0735  -11.0679 C   0  0  0  0  0  0  0  0  0  0  0  0
   -7.7807    1.9305  -16.6061 O   0  0  0  0  0  0  0  0  0  0  0  0
   -8.1229   -1.5114  -14.3971 O   0  0  0  0  0  0  0  0  0  0  0  0
   -9.3256   -3.9924  -18.2244 F   0  0  0  0  0  0  0  0  0  0  0  0
  -10.7781   -0.8095  -10.7144 F   0  0  0  0  0  0  0  0  0  0  0  0
   -9.4083    0.7185  -10.0009 F   0  0  0  0  0  0  0  0  0  0  0  0
   -8.5306    0.4336  -18.5480 H   0  0  0  0  0  0  0  0  0  0  0  0
   -9.1616   -1.7354  -19.5338 H   0  0  0  0  0  0  0  0  0  0  0  0
   -8.7493   -3.6341  -15.7070 H   0  0  0  0  0  0  0  0  0  0  0  0
   -6.3787    0.6562  -14.4302 H   0  0  0  0  0  0  0  0  0  0  0  0
   -7.6560    1.8421  -14.0736 H   0  0  0  0  0  0  0  0  0  0  0  0
  -10.3430   -0.8106  -13.6044 H   0  0  0  0  0  0  0  0  0  0  0  0
  -10.0734    0.7429  -14.4027 H   0  0  0  0  0  0  0  0  0  0  0  0
   -7.2018    0.5419  -11.9800 H   0  0  0  0  0  0  0  0  0  0  0  0
   -6.6958   -1.0860  -12.4180 H   0  0  0  0  0  0  0  0  0  0  0  0
   -9.4574    1.7401  -12.1969 H   0  0  0  0  0  0  0  0  0  0  0  0
  -11.0957    1.1060  -12.1960 H   0  0  0  0  0  0  0  0  0  0  0  0
   -8.9061   -1.9852  -11.6732 H   0  0  0  0  0  0  0  0  0  0  0  0
   -7.9978   -1.2049  -10.3872 H   0  0  0  0  0  0  0  0  0  0  0  0
  1  2  1  0  0  0  0
  1  4  2  0  0  0  0
  2  6  2  0  0  0  0
  3  5  2  0  0  0  0
  3  6  1  0  0  0  0
  4  5  1  0  0  0  0
  4  7  1  0  0  0  0
  5 16  1  0  0  0  0
  6 17  1  0  0  0  0
  7  8  1  0  0  0  0
  7 15  2  0  0  0  0
  8 13  1  0  0  0  0
  9 11  1  0  0  0  0
  9 13  1  0  0  0  0
 10 12  1  0  0  0  0
 10 13  1  0  0  0  0
 11 14  1  0  0  0  0
 12 14  1  0  0  0  0
 13 16  1  0  0  0  0
 14 18  1  0  0  0  0
 14 19  1  0  0  0  0
  1 20  1  0  0  0  0
  2 21  1  0  0  0  0
  3 22  1  0  0  0  0
  8 23  1  0  0  0  0
  8 24  1  0  0  0  0
  9 25  1  0  0  0  0
  9 26  1  0  0  0  0
 10 27  1  0  0  0  0
 10 28  1  0  0  0  0
 11 29  1  0  0  0  0
 11 30  1  0  0  0  0
 12 31  1  0  0  0  0
 12 32  1  0  0  0  0
M  END
> <id>
EN300-338209

> <smiles>
FC=1C=CC=2C(=O)CC3(CCC(F)(F)CC3)OC2C1

> <MDLNUMBER>
MFCD30499678

> <IUPAC Name>
4',4',7-trifluoro-3,4-dihydrospiro[1-benzopyran-2,1'-cyclohexane]-4-one

> <CAS>
2059966-61-7

> <URL>
https://www.enaminestore.com/catalog/EN300-338209

> <ROCS_ShapeQuery>
amalgated

> <ROCS_TanimotoCombo>
0.856 

> <ROCS_ShapeTanimoto>
0.658 

> <ROCS_ColorTanimoto>
0.198 

> <ROCS_RefTversky>
0.617 

> <ROCS_RefColorTversky>
0.288 

> <ROCS_RefTverskyCombo>
0.905 

> <ROCS_FitTversky>
1.112 

> <ROCS_FitColorTversky>
0.389 

> <ROCS_FitTverskyCombo>
1.501 

> <ROCS_ColorScore>
-1.988

> <ROCS_Overlap>
1017.726

> <ROCS_Rank>
170                 

$$$$
untitled-dbase-53346_79
  -OEChem-10092318153D

 46 47  0     0  0  0  0  0  0999 V2000
   -9.3631   -0.1206  -12.4533 C   0  0  0  0  0  0  0  0  0  0  0  0
   -9.8485   -1.4951  -17.8526 C   0  0  0  0  0  0  0  0  0  0  0  0
   -8.2585   -2.8652  -16.4688 C   0  0  0  0  0  0  0  0  0  0  0  0
   -9.0691   -0.2306  -17.4960 C   0  0  0  0  0  0  0  0  0  0  0  0
   -7.4926   -1.5981  -16.0763 C   0  0  0  0  0  0  0  0  0  0  0  0
   -7.8169    1.2545  -13.7525 C   0  0  0  0  0  0  0  0  0  0  0  0
   -9.3669   -0.2083  -14.9780 C   0  0  0  0  0  0  0  0  0  0  0  0
   -6.8169    1.0693  -14.8759 C   0  0  0  0  0  0  0  0  0  0  0  0
   -8.9701   -2.7492  -17.8193 C   0  0  0  0  0  0  0  0  0  0  0  0
   -8.3428   -0.3088  -16.1331 C   0  0  0  0  0  0  0  0  0  0  0  0
   -8.0551    0.5831   -8.9764 C   0  0  0  0  0  0  0  0  0  0  0  0
  -10.4289    0.8761   -9.7296 C   0  0  0  0  0  0  0  0  0  0  0  0
   -9.4124   -1.4146   -9.6411 C   0  0  0  0  0  0  0  0  0  0  0  0
   -9.1424    0.0674   -9.9261 C   0  0  0  0  0  0  0  0  0  0  0  0
   -8.7506    0.1341  -13.6870 N   0  0  0  0  0  0  0  0  0  0  0  0
   -7.9909   -2.7171  -18.9077 N   0  0  0  0  0  0  0  0  0  0  0  0
   -8.6931    0.2177  -11.2950 N   0  0  0  0  0  0  0  0  0  0  0  0
  -10.4935   -0.6184  -12.3680 O   0  0  0  0  0  0  0  0  0  0  0  0
   -7.4875    0.8525  -16.1128 O   0  0  0  0  0  0  0  0  0  0  0  0
  -10.6889   -1.6084  -17.1477 H   0  0  0  0  0  0  0  0  0  0  0  0
  -10.3046   -1.3752  -18.8501 H   0  0  0  0  0  0  0  0  0  0  0  0
   -7.5590   -3.7224  -16.4812 H   0  0  0  0  0  0  0  0  0  0  0  0
   -8.9932   -3.0970  -15.6759 H   0  0  0  0  0  0  0  0  0  0  0  0
   -8.3604   -0.0210  -18.3143 H   0  0  0  0  0  0  0  0  0  0  0  0
   -9.7667    0.6269  -17.4886 H   0  0  0  0  0  0  0  0  0  0  0  0
   -7.0802   -1.7298  -15.0604 H   0  0  0  0  0  0  0  0  0  0  0  0
   -6.6257   -1.5040  -16.7530 H   0  0  0  0  0  0  0  0  0  0  0  0
   -7.2972    1.2804  -12.7833 H   0  0  0  0  0  0  0  0  0  0  0  0
   -8.3190    2.2181  -13.8846 H   0  0  0  0  0  0  0  0  0  0  0  0
  -10.1696    0.5015  -15.2311 H   0  0  0  0  0  0  0  0  0  0  0  0
   -9.8538   -1.1850  -14.8200 H   0  0  0  0  0  0  0  0  0  0  0  0
   -6.1397    1.9197  -14.9577 H   0  0  0  0  0  0  0  0  0  0  0  0
   -6.2053    0.1874  -14.6797 H   0  0  0  0  0  0  0  0  0  0  0  0
   -9.6095   -3.6305  -17.9556 H   0  0  0  0  0  0  0  0  0  0  0  0
   -7.1228    0.0193   -9.0980 H   0  0  0  0  0  0  0  0  0  0  0  0
   -7.8348    1.6407   -9.1590 H   0  0  0  0  0  0  0  0  0  0  0  0
   -8.3628    0.4781   -7.9294 H   0  0  0  0  0  0  0  0  0  0  0  0
  -11.2227    0.5251  -10.3992 H   0  0  0  0  0  0  0  0  0  0  0  0
  -10.2660    1.9377   -9.9494 H   0  0  0  0  0  0  0  0  0  0  0  0
  -10.7966    0.7973   -8.7005 H   0  0  0  0  0  0  0  0  0  0  0  0
  -10.1877   -1.8101  -10.3076 H   0  0  0  0  0  0  0  0  0  0  0  0
   -8.5086   -2.0184   -9.7788 H   0  0  0  0  0  0  0  0  0  0  0  0
   -9.7627   -1.5627   -8.6130 H   0  0  0  0  0  0  0  0  0  0  0  0
   -7.4533   -3.5499  -18.8649 H   0  0  0  0  0  0  0  0  0  0  0  0
   -8.4850   -2.6612  -19.7662 H   0  0  0  0  0  0  0  0  0  0  0  0
   -7.7328    0.6387  -11.4191 H   0  0  0  0  0  0  0  0  0  0  0  0
  1 15  1  0  0  0  0
  1 17  1  0  0  0  0
  1 18  2  0  0  0  0
  2  4  1  0  0  0  0
  2  9  1  0  0  0  0
  3  5  1  0  0  0  0
  3  9  1  0  0  0  0
  4 10  1  0  0  0  0
  5 10  1  0  0  0  0
  6  8  1  0  0  0  0
  6 15  1  0  0  0  0
  7 10  1  0  0  0  0
  7 15  1  0  0  0  0
  8 19  1  0  0  0  0
  9 16  1  0  0  0  0
 10 19  1  0  0  0  0
 11 14  1  0  0  0  0
 12 14  1  0  0  0  0
 13 14  1  0  0  0  0
 14 17  1  0  0  0  0
  2 20  1  0  0  0  0
  2 21  1  0  0  0  0
  3 22  1  0  0  0  0
  3 23  1  0  0  0  0
  4 24  1  0  0  0  0
  4 25  1  0  0  0  0
  5 26  1  0  0  0  0
  5 27  1  0  0  0  0
  6 28  1  0  0  0  0
  6 29  1  0  0  0  0
  7 30  1  0  0  0  0
  7 31  1  0  0  0  0
  8 32  1  0  0  0  0
  8 33  1  0  0  0  0
  9 34  1  0  0  0  0
 11 35  1  0  0  0  0
 11 36  1  0  0  0  0
 11 37  1  0  0  0  0
 12 38  1  0  0  0  0
 12 39  1  0  0  0  0
 12 40  1  0  0  0  0
 13 41  1  0  0  0  0
 13 42  1  0  0  0  0
 13 43  1  0  0  0  0
 16 44  1  0  0  0  0
 16 45  1  0  0  0  0
 17 46  1  0  0  0  0
M  END
> <id>
EN300-768589

> <smiles>
CC(C)(C)NC(=O)N1CCOC2(CCC(N)CC2)C1

> <IUPAC Name>
9-amino-N-tert-butyl-1-oxa-4-azaspiro[5.5]undecane-4-carboxamide

> <CAS>
2138512-15-7

> <URL>
https://www.enaminestore.com/catalog/EN300-768589

> <ROCS_ShapeQuery>
amalgated

> <ROCS_TanimotoCombo>
0.856 

> <ROCS_ShapeTanimoto>
0.529 

> <ROCS_ColorTanimoto>
0.327 

> <ROCS_RefTversky>
0.527 

> <ROCS_RefColorTversky>
0.525 

> <ROCS_RefTverskyCombo>
1.052 

> <ROCS_FitTversky>
1.000 

> <ROCS_FitColorTversky>
0.465 

> <ROCS_FitTverskyCombo>
1.465 

> <ROCS_ColorScore>
-3.700

> <ROCS_Overlap>
868.483

> <ROCS_Rank>
171                 

$$$$
untitled-dbase-53493_78
  -OEChem-10092318153D

 34 35  0     1  0  0  0  0  0999 V2000
   -8.3102    0.0046  -16.6546 C   0  0  0  0  0  0  0  0  0  0  0  0
   -8.4324   -0.2417  -14.1413 C   0  0  0  0  0  0  0  0  0  0  0  0
   -7.4396   -1.5263  -18.4780 C   0  0  0  0  0  0  0  0  0  0  0  0
   -8.8464   -3.3132  -17.9354 C   0  0  0  0  0  0  0  0  0  0  0  0
   -9.0476   -2.0430  -15.7235 C   0  0  0  0  0  0  0  0  0  0  0  0
   -8.6479   -0.9012  -17.8123 C   0  0  1  0  0  0  0  0  0  0  0  0
   -9.3905   -2.0879  -17.2034 C   0  0  1  0  0  0  0  0  0  0  0  0
   -9.9940    0.6764  -12.2478 C   0  0  0  0  0  0  0  0  0  0  0  0
  -10.3442   -1.6817  -11.4566 C   0  0  0  0  0  0  0  0  0  0  0  0
   -8.1630   -0.5216  -11.0041 C   0  0  0  0  0  0  0  0  0  0  0  0
   -9.3264   -0.6723  -11.9832 C   0  0  0  0  0  0  0  0  0  0  0  0
   -7.9835   -2.7803  -18.9924 N   0  0  0  0  0  0  0  0  0  0  0  0
   -8.5968   -0.6913  -15.4599 N   0  0  0  0  0  0  0  0  0  0  0  0
   -7.8440    1.1282  -16.7843 O   0  0  0  0  0  0  0  0  0  0  0  0
   -7.9970    0.8686  -13.8425 O   0  0  0  0  0  0  0  0  0  0  0  0
   -8.8171   -1.1794  -13.2218 O   0  0  0  0  0  0  0  0  0  0  0  0
   -7.0647   -0.9125  -19.2909 H   0  0  0  0  0  0  0  0  0  0  0  0
   -6.6289   -1.7273  -17.7837 H   0  0  0  0  0  0  0  0  0  0  0  0
   -8.2604   -3.9762  -17.2675 H   0  0  0  0  0  0  0  0  0  0  0  0
   -9.6611   -3.9335  -18.3551 H   0  0  0  0  0  0  0  0  0  0  0  0
   -9.9399   -2.2136  -15.1086 H   0  0  0  0  0  0  0  0  0  0  0  0
   -8.2876   -2.7757  -15.4295 H   0  0  0  0  0  0  0  0  0  0  0  0
   -9.2904   -0.3577  -18.5251 H   0  0  0  0  0  0  0  0  0  0  0  0
  -10.4711   -2.0027  -17.3585 H   0  0  0  0  0  0  0  0  0  0  0  0
   -9.2667    1.4037  -12.6260 H   0  0  0  0  0  0  0  0  0  0  0  0
  -10.8077    0.5880  -12.9751 H   0  0  0  0  0  0  0  0  0  0  0  0
  -10.4015    1.0993  -11.3224 H   0  0  0  0  0  0  0  0  0  0  0  0
   -9.8695   -2.6509  -11.2654 H   0  0  0  0  0  0  0  0  0  0  0  0
  -11.1316   -1.8643  -12.1968 H   0  0  0  0  0  0  0  0  0  0  0  0
  -10.8132   -1.3364  -10.5295 H   0  0  0  0  0  0  0  0  0  0  0  0
   -7.6840   -1.4889  -10.8141 H   0  0  0  0  0  0  0  0  0  0  0  0
   -7.4045    0.1713  -11.3825 H   0  0  0  0  0  0  0  0  0  0  0  0
   -8.5158   -0.1553  -10.0332 H   0  0  0  0  0  0  0  0  0  0  0  0
   -8.5656   -2.5738  -19.8076 H   0  0  0  0  0  0  0  0  0  0  0  0
  1  6  1  0  0  0  0
  1 13  1  0  0  0  0
  1 14  2  0  0  0  0
  2 13  1  0  0  0  0
  2 15  2  0  0  0  0
  2 16  1  0  0  0  0
  3  6  1  6  0  0  0
  3 12  1  0  0  0  0
  4  7  1  0  0  0  0
  4 12  1  0  0  0  0
  5  7  1  6  0  0  0
  5 13  1  0  0  0  0
  6  7  1  0  0  0  0
  8 11  1  0  0  0  0
  9 11  1  0  0  0  0
 10 11  1  0  0  0  0
 11 16  1  0  0  0  0
  3 17  1  0  0  0  0
  3 18  1  0  0  0  0
  4 19  1  0  0  0  0
  4 20  1  0  0  0  0
  5 21  1  0  0  0  0
  5 22  1  0  0  0  0
  6 23  1  0  0  0  0
  7 24  1  0  0  0  0
  8 25  1  0  0  0  0
  8 26  1  0  0  0  0
  8 27  1  0  0  0  0
  9 28  1  0  0  0  0
  9 29  1  0  0  0  0
  9 30  1  0  0  0  0
 10 31  1  0  0  0  0
 10 32  1  0  0  0  0
 10 33  1  0  0  0  0
 12 34  1  0  0  0  0
M  END
> <id>
EN300-651719

> <smiles>
CC(C)(C)OC(=O)N1C[C@@H]2CNC[C@@H]2C1=O |&1:9,13,r|

> <MDLNUMBER>
MFCD31542540

> <IUPAC Name>
rac-tert-butyl (3aR,6aS)-1-oxo-octahydropyrrolo[3,4-c]pyrrole-2-carboxylate

> <CAS>
2137970-61-5

> <Purity>
95

> <URL>
https://www.enaminestore.com/catalog/EN300-651719

> <ROCS_ShapeQuery>
amalgated

> <ROCS_TanimotoCombo>
0.856 

> <ROCS_ShapeTanimoto>
0.600 

> <ROCS_ColorTanimoto>
0.256 

> <ROCS_RefTversky>
0.550 

> <ROCS_RefColorTversky>
0.410 

> <ROCS_RefTverskyCombo>
0.960 

> <ROCS_FitTversky>
1.179 

> <ROCS_FitColorTversky>
0.406 

> <ROCS_FitTverskyCombo>
1.585 

> <ROCS_ColorScore>
-2.868

> <ROCS_Overlap>
902.934

> <ROCS_Rank>
172                 

$$$$
untitled-dbase-18138_124
  -OEChem-10092318153D

 45 46  0     0  0  0  0  0  0999 V2000
   -8.6975   -0.6241  -12.7368 C   0  0  0  0  0  0  0  0  0  0  0  0
   -7.9906   -2.7672  -16.5697 C   0  0  0  0  0  0  0  0  0  0  0  0
   -9.9250   -1.8141  -17.8786 C   0  0  0  0  0  0  0  0  0  0  0  0
   -7.4466   -1.3544  -16.3417 C   0  0  0  0  0  0  0  0  0  0  0  0
   -9.3746   -0.4046  -17.6588 C   0  0  0  0  0  0  0  0  0  0  0  0
   -8.0915    1.4021  -14.0367 C   0  0  0  0  0  0  0  0  0  0  0  0
   -9.4648   -0.3184  -15.1299 C   0  0  0  0  0  0  0  0  0  0  0  0
   -7.2145    1.4421  -15.2778 C   0  0  0  0  0  0  0  0  0  0  0  0
   -8.8300   -2.8861  -17.8463 C   0  0  0  0  0  0  0  0  0  0  0  0
   -8.5415   -0.2625  -16.3664 C   0  0  0  0  0  0  0  0  0  0  0  0
   -9.7294   -1.3821  -10.1773 C   0  0  0  0  0  0  0  0  0  0  0  0
   -9.4079    1.0264   -9.5409 C   0  0  0  0  0  0  0  0  0  0  0  0
  -11.0011    0.4224  -11.3862 C   0  0  0  0  0  0  0  0  0  0  0  0
   -9.6923    0.0579  -10.6869 C   0  0  0  0  0  0  0  0  0  0  0  0
   -8.7442    0.1035  -13.9266 N   0  0  0  0  0  0  0  0  0  0  0  0
   -7.9710   -2.7677  -19.0272 N   0  0  0  0  0  0  0  0  0  0  0  0
   -8.7247   -1.8518  -12.6743 O   0  0  0  0  0  0  0  0  0  0  0  0
   -7.9449    1.0505  -16.4410 O   0  0  0  0  0  0  0  0  0  0  0  0
   -8.6218    0.1799  -11.6306 O   0  0  0  0  0  0  0  0  0  0  0  0
   -7.1469   -3.4812  -16.5982 H   0  0  0  0  0  0  0  0  0  0  0  0
   -8.5986   -3.0609  -15.6952 H   0  0  0  0  0  0  0  0  0  0  0  0
  -10.6806   -2.0279  -17.1048 H   0  0  0  0  0  0  0  0  0  0  0  0
  -10.4621   -1.8498  -18.8417 H   0  0  0  0  0  0  0  0  0  0  0  0
   -6.9254   -1.3280  -15.3695 H   0  0  0  0  0  0  0  0  0  0  0  0
   -6.6709   -1.1595  -17.0978 H   0  0  0  0  0  0  0  0  0  0  0  0
   -8.7556   -0.1419  -18.5324 H   0  0  0  0  0  0  0  0  0  0  0  0
  -10.2141    0.3104  -17.6431 H   0  0  0  0  0  0  0  0  0  0  0  0
   -7.5049    1.6301  -13.1423 H   0  0  0  0  0  0  0  0  0  0  0  0
   -8.8913    2.1471  -14.1168 H   0  0  0  0  0  0  0  0  0  0  0  0
  -10.2934    0.3911  -15.2436 H   0  0  0  0  0  0  0  0  0  0  0  0
   -9.8999   -1.3144  -15.0135 H   0  0  0  0  0  0  0  0  0  0  0  0
   -6.8633    2.4654  -15.4439 H   0  0  0  0  0  0  0  0  0  0  0  0
   -6.3241    0.8169  -15.1629 H   0  0  0  0  0  0  0  0  0  0  0  0
   -9.3011   -3.8724  -17.8683 H   0  0  0  0  0  0  0  0  0  0  0  0
   -9.9333   -2.0804  -10.9969 H   0  0  0  0  0  0  0  0  0  0  0  0
   -8.7839   -1.6672   -9.7046 H   0  0  0  0  0  0  0  0  0  0  0  0
  -10.5359   -1.5179   -9.4477 H   0  0  0  0  0  0  0  0  0  0  0  0
   -9.3803    2.0609   -9.9021 H   0  0  0  0  0  0  0  0  0  0  0  0
   -8.4256    0.8282   -9.0970 H   0  0  0  0  0  0  0  0  0  0  0  0
  -10.1651    0.9542   -8.7536 H   0  0  0  0  0  0  0  0  0  0  0  0
  -10.9747    1.4553  -11.7519 H   0  0  0  0  0  0  0  0  0  0  0  0
  -11.2030   -0.2395  -12.2346 H   0  0  0  0  0  0  0  0  0  0  0  0
  -11.8449    0.3626  -10.6894 H   0  0  0  0  0  0  0  0  0  0  0  0
   -7.2885   -3.4861  -18.9856 H   0  0  0  0  0  0  0  0  0  0  0  0
   -8.5401   -2.8687  -19.8334 H   0  0  0  0  0  0  0  0  0  0  0  0
  1 15  1  0  0  0  0
  1 17  2  0  0  0  0
  1 19  1  0  0  0  0
  2  4  1  0  0  0  0
  2  9  1  0  0  0  0
  3  5  1  0  0  0  0
  3  9  1  0  0  0  0
  4 10  1  0  0  0  0
  5 10  1  0  0  0  0
  6  8  1  0  0  0  0
  6 15  1  0  0  0  0
  7 10  1  0  0  0  0
  7 15  1  0  0  0  0
  8 18  1  0  0  0  0
  9 16  1  0  0  0  0
 10 18  1  0  0  0  0
 11 14  1  0  0  0  0
 12 14  1  0  0  0  0
 13 14  1  0  0  0  0
 14 19  1  0  0  0  0
  2 20  1  0  0  0  0
  2 21  1  0  0  0  0
  3 22  1  0  0  0  0
  3 23  1  0  0  0  0
  4 24  1  0  0  0  0
  4 25  1  0  0  0  0
  5 26  1  0  0  0  0
  5 27  1  0  0  0  0
  6 28  1  0  0  0  0
  6 29  1  0  0  0  0
  7 30  1  0  0  0  0
  7 31  1  0  0  0  0
  8 32  1  0  0  0  0
  8 33  1  0  0  0  0
  9 34  1  0  0  0  0
 11 35  1  0  0  0  0
 11 36  1  0  0  0  0
 11 37  1  0  0  0  0
 12 38  1  0  0  0  0
 12 39  1  0  0  0  0
 12 40  1  0  0  0  0
 13 41  1  0  0  0  0
 13 42  1  0  0  0  0
 13 43  1  0  0  0  0
 16 44  1  0  0  0  0
 16 45  1  0  0  0  0
M  END
> <id>
EN300-6512905

> <smiles>
CC(C)(C)OC(=O)N1CCOC2(CCC(N)CC2)C1

> <MDLNUMBER>
MFCD22033049

> <IUPAC Name>
tert-butyl 9-amino-1-oxa-4-azaspiro[5.5]undecane-4-carboxylate

> <CAS>
1368133-65-6

> <URL>
https://www.enaminestore.com/catalog/EN300-6512905

> <ROCS_ShapeQuery>
amalgated

> <ROCS_TanimotoCombo>
0.856 

> <ROCS_ShapeTanimoto>
0.585 

> <ROCS_ColorTanimoto>
0.271 

> <ROCS_RefTversky>
0.564 

> <ROCS_RefColorTversky>
0.427 

> <ROCS_RefTverskyCombo>
0.991 

> <ROCS_FitTversky>
1.067 

> <ROCS_FitColorTversky>
0.427 

> <ROCS_FitTverskyCombo>
1.494 

> <ROCS_ColorScore>
-2.987

> <ROCS_Overlap>
929.015

> <ROCS_Rank>
173                 

$$$$
untitled-dbase-34773_159
  -OEChem-10092318153D

 46 47  0     1  0  0  0  0  0999 V2000
   -8.6388   -0.5361  -14.0524 C   0  0  0  0  0  0  0  0  0  0  0  0
   -8.1445   -2.3850  -16.3306 C   0  0  0  0  0  0  0  0  0  0  0  0
   -9.3935   -0.7772  -17.7593 C   0  0  0  0  0  0  0  0  0  0  0  0
   -8.3654   -3.2990  -17.5471 C   0  0  0  0  0  0  0  0  0  0  0  0
   -8.9188   -1.4904  -19.0369 C   0  0  0  0  0  0  0  0  0  0  0  0
   -9.1091    1.3231  -15.6299 C   0  0  0  0  0  0  0  0  0  0  0  0
   -7.8143    1.9830  -16.1197 C   0  0  0  0  0  0  0  0  0  0  0  0
   -7.0231   -0.1655  -16.9708 C   0  0  0  0  0  0  0  0  0  0  0  0
   -8.3661   -0.8607  -16.5892 C   0  0  0  0  0  0  0  0  0  0  0  0
   -7.6541   -0.0435  -11.4039 C   0  0  0  0  0  0  0  0  0  0  0  0
   -9.9469    0.8604  -10.9189 C   0  0  0  0  0  0  0  0  0  0  0  0
   -9.6638   -1.5499  -11.5657 C   0  0  0  0  0  0  0  0  0  0  0  0
   -5.9671    1.8945  -17.6680 C   0  0  0  0  0  0  0  0  0  0  0  0
   -9.1384   -0.1279  -11.7567 C   0  0  0  0  0  0  0  0  0  0  0  0
   -8.0474   -2.6381  -18.7985 N   0  0  0  0  0  0  0  0  0  0  0  0
   -8.8581   -0.1051  -15.3803 N   0  0  0  0  0  0  0  0  0  0  0  0
   -7.2241    1.2676  -17.2626 N   0  0  2  0  0  0  0  0  0  0  0  0
   -7.9434   -1.4905  -13.7147 O   0  0  0  0  0  0  0  0  0  0  0  0
   -9.3015    0.2378  -13.1323 O   0  0  0  0  0  0  0  0  0  0  0  0
   -8.8317   -2.7245  -15.5346 H   0  0  0  0  0  0  0  0  0  0  0  0
   -7.1290   -2.5620  -15.9346 H   0  0  0  0  0  0  0  0  0  0  0  0
   -9.6230    0.2716  -17.9929 H   0  0  0  0  0  0  0  0  0  0  0  0
  -10.3489   -1.2418  -17.5014 H   0  0  0  0  0  0  0  0  0  0  0  0
   -7.7901   -4.2284  -17.4432 H   0  0  0  0  0  0  0  0  0  0  0  0
   -9.4215   -3.5990  -17.5648 H   0  0  0  0  0  0  0  0  0  0  0  0
   -9.8132   -1.8437  -19.5897 H   0  0  0  0  0  0  0  0  0  0  0  0
   -8.4299   -0.7753  -19.7310 H   0  0  0  0  0  0  0  0  0  0  0  0
   -9.4120    1.7571  -14.6994 H   0  0  0  0  0  0  0  0  0  0  0  0
   -9.8591    1.4591  -16.3751 H   0  0  0  0  0  0  0  0  0  0  0  0
   -8.0108    3.0408  -16.3680 H   0  0  0  0  0  0  0  0  0  0  0  0
   -7.1028    1.9921  -15.2775 H   0  0  0  0  0  0  0  0  0  0  0  0
   -6.3083   -0.2473  -16.1570 H   0  0  0  0  0  0  0  0  0  0  0  0
   -6.5799   -0.6580  -17.8375 H   0  0  0  0  0  0  0  0  0  0  0  0
   -7.0703   -0.7514  -12.0031 H   0  0  0  0  0  0  0  0  0  0  0  0
   -7.2566    0.9631  -11.5698 H   0  0  0  0  0  0  0  0  0  0  0  0
   -7.4854   -0.3136  -10.3551 H   0  0  0  0  0  0  0  0  0  0  0  0
  -11.0125    0.8033  -11.1688 H   0  0  0  0  0  0  0  0  0  0  0  0
   -9.6366    1.8914  -11.1242 H   0  0  0  0  0  0  0  0  0  0  0  0
   -9.8315    0.6705   -9.8470 H   0  0  0  0  0  0  0  0  0  0  0  0
  -10.7285   -1.6107  -11.8187 H   0  0  0  0  0  0  0  0  0  0  0  0
   -9.1193   -2.2680  -12.1874 H   0  0  0  0  0  0  0  0  0  0  0  0
   -9.5767   -1.8601  -10.5181 H   0  0  0  0  0  0  0  0  0  0  0  0
   -5.5421    1.3465  -18.5219 H   0  0  0  0  0  0  0  0  0  0  0  0
   -6.1553    2.9384  -17.9594 H   0  0  0  0  0  0  0  0  0  0  0  0
   -5.2578    1.8706  -16.8275 H   0  0  0  0  0  0  0  0  0  0  0  0
   -7.0771   -2.3246  -18.7824 H   0  0  0  0  0  0  0  0  0  0  0  0
  1 16  1  0  0  0  0
  1 18  2  0  0  0  0
  1 19  1  0  0  0  0
  2  4  1  0  0  0  0
  2  9  1  0  0  0  0
  3  5  1  0  0  0  0
  3  9  1  0  0  0  0
  4 15  1  0  0  0  0
  5 15  1  0  0  0  0
  6  7  1  0  0  0  0
  6 16  1  0  0  0  0
  7 17  1  0  0  0  0
  8  9  1  0  0  0  0
  8 17  1  0  0  0  0
  9 16  1  0  0  0  0
 10 14  1  0  0  0  0
 11 14  1  0  0  0  0
 12 14  1  0  0  0  0
 13 17  1  0  0  0  0
 14 19  1  0  0  0  0
  2 20  1  0  0  0  0
  2 21  1  0  0  0  0
  3 22  1  0  0  0  0
  3 23  1  0  0  0  0
  4 24  1  0  0  0  0
  4 25  1  0  0  0  0
  5 26  1  0  0  0  0
  5 27  1  0  0  0  0
  6 28  1  0  0  0  0
  6 29  1  0  0  0  0
  7 30  1  0  0  0  0
  7 31  1  0  0  0  0
  8 32  1  0  0  0  0
  8 33  1  0  0  0  0
 10 34  1  0  0  0  0
 10 35  1  0  0  0  0
 10 36  1  0  0  0  0
 11 37  1  0  0  0  0
 11 38  1  0  0  0  0
 11 39  1  0  0  0  0
 12 40  1  0  0  0  0
 12 41  1  0  0  0  0
 12 42  1  0  0  0  0
 13 43  1  0  0  0  0
 13 44  1  0  0  0  0
 13 45  1  0  0  0  0
 15 46  1  0  0  0  0
M  END
> <id>
EN300-1666558

> <smiles>
CN1CCN(C(=O)OC(C)(C)C)C2(CCNCC2)C1

> <MDLNUMBER>
MFCD22033077

> <IUPAC Name>
tert-butyl 4-methyl-1,4,9-triazaspiro[5.5]undecane-1-carboxylate

> <CAS>
1369237-31-9

> <Purity>
95

> <URL>
https://www.enaminestore.com/catalog/EN300-1666558

> <ROCS_ShapeQuery>
amalgated

> <ROCS_TanimotoCombo>
0.856 

> <ROCS_ShapeTanimoto>
0.627 

> <ROCS_ColorTanimoto>
0.229 

> <ROCS_RefTversky>
0.589 

> <ROCS_RefColorTversky>
0.372 

> <ROCS_RefTverskyCombo>
0.961 

> <ROCS_FitTversky>
1.116 

> <ROCS_FitColorTversky>
0.372 

> <ROCS_FitTverskyCombo>
1.488 

> <ROCS_ColorScore>
-2.606

> <ROCS_Overlap>
969.441

> <ROCS_Rank>
174                 

$$$$
untitled-dbase-39399_14
  -OEChem-10092318153D

 34 36  0     0  0  0  0  0  0999 V2000
   -8.2698   -2.3512  -18.0548 C   0  0  0  0  0  0  0  0  0  0  0  0
   -9.0729   -2.9358  -17.0839 C   0  0  0  0  0  0  0  0  0  0  0  0
   -7.8771   -1.0170  -17.9230 C   0  0  0  0  0  0  0  0  0  0  0  0
   -9.4759   -2.1861  -15.9836 C   0  0  0  0  0  0  0  0  0  0  0  0
   -8.2661   -0.2364  -16.8180 C   0  0  0  0  0  0  0  0  0  0  0  0
   -9.0563   -0.8562  -15.8392 C   0  0  0  0  0  0  0  0  0  0  0  0
   -7.5288    1.1652  -14.3391 C   0  0  0  0  0  0  0  0  0  0  0  0
   -8.1194   -0.9146  -12.9580 C   0  0  0  0  0  0  0  0  0  0  0  0
   -9.5469    1.1807  -12.8320 C   0  0  0  0  0  0  0  0  0  0  0  0
   -7.9522    1.9254  -15.5916 C   0  0  0  0  0  0  0  0  0  0  0  0
   -7.9466   -0.5812  -11.4795 C   0  0  0  0  0  0  0  0  0  0  0  0
  -10.2005    0.3588  -11.7215 C   0  0  0  0  0  0  0  0  0  0  0  0
   -8.6694    0.2917  -13.7617 C   0  0  0  0  0  0  0  0  0  0  0  0
   -7.8322    1.0767  -16.7591 N   0  0  0  0  0  0  0  0  0  0  0  0
   -9.2230   -0.2698  -10.8319 N   0  0  0  0  0  0  0  0  0  0  0  0
   -9.5875   -0.1821  -14.7734 O   0  0  0  0  0  0  0  0  0  0  0  0
   -7.9392   -2.9321  -18.9110 H   0  0  0  0  0  0  0  0  0  0  0  0
   -9.3771   -3.9736  -17.1786 H   0  0  0  0  0  0  0  0  0  0  0  0
   -7.2514   -0.5840  -18.7016 H   0  0  0  0  0  0  0  0  0  0  0  0
  -10.1192   -2.6429  -15.2370 H   0  0  0  0  0  0  0  0  0  0  0  0
   -6.6579    0.5413  -14.5674 H   0  0  0  0  0  0  0  0  0  0  0  0
   -7.1742    1.8787  -13.5853 H   0  0  0  0  0  0  0  0  0  0  0  0
   -7.1514   -1.2319  -13.3649 H   0  0  0  0  0  0  0  0  0  0  0  0
   -8.8048   -1.7658  -13.0417 H   0  0  0  0  0  0  0  0  0  0  0  0
  -10.3294    1.6752  -13.4092 H   0  0  0  0  0  0  0  0  0  0  0  0
   -8.9253    1.9609  -12.3852 H   0  0  0  0  0  0  0  0  0  0  0  0
   -9.0047    2.2152  -15.4936 H   0  0  0  0  0  0  0  0  0  0  0  0
   -7.3818    2.8513  -15.7253 H   0  0  0  0  0  0  0  0  0  0  0  0
   -7.4459   -1.4052  -10.9483 H   0  0  0  0  0  0  0  0  0  0  0  0
   -7.2857    0.2924  -11.3841 H   0  0  0  0  0  0  0  0  0  0  0  0
  -10.8432    1.0205  -11.1207 H   0  0  0  0  0  0  0  0  0  0  0  0
  -10.8672   -0.4088  -12.1444 H   0  0  0  0  0  0  0  0  0  0  0  0
   -7.4660    1.4949  -17.6071 H   0  0  0  0  0  0  0  0  0  0  0  0
   -9.6251   -1.1368  -10.4497 H   0  0  0  0  0  0  0  0  0  0  0  0
  1  2  2  0  0  0  0
  1  3  1  0  0  0  0
  2  4  1  0  0  0  0
  3  5  2  0  0  0  0
  4  6  2  0  0  0  0
  5  6  1  0  0  0  0
  5 14  1  0  0  0  0
  6 16  1  0  0  0  0
  7 10  1  0  0  0  0
  7 13  1  0  0  0  0
  8 11  1  0  0  0  0
  8 13  1  0  0  0  0
  9 12  1  0  0  0  0
  9 13  1  0  0  0  0
 10 14  1  0  0  0  0
 11 15  1  0  0  0  0
 12 15  1  0  0  0  0
 13 16  1  0  0  0  0
  1 17  1  0  0  0  0
  2 18  1  0  0  0  0
  3 19  1  0  0  0  0
  4 20  1  0  0  0  0
  7 21  1  0  0  0  0
  7 22  1  0  0  0  0
  8 23  1  0  0  0  0
  8 24  1  0  0  0  0
  9 25  1  0  0  0  0
  9 26  1  0  0  0  0
 10 27  1  0  0  0  0
 10 28  1  0  0  0  0
 11 29  1  0  0  0  0
 11 30  1  0  0  0  0
 12 31  1  0  0  0  0
 12 32  1  0  0  0  0
 14 33  1  0  0  0  0
 15 34  1  0  0  0  0
M  END
> <id>
EN300-10844180

> <smiles>
C1CC2(CCN1)CCNC=3C=CC=CC3O2

> <MDLNUMBER>
MFCD16038191

> <IUPAC Name>
4,5-dihydro-3H-spiro[1,5-benzoxazepine-2,4'-piperidine]

> <CAS>
867021-92-9

> <URL>
https://www.enaminestore.com/catalog/EN300-10844180

> <ROCS_ShapeQuery>
amalgated

> <ROCS_TanimotoCombo>
0.855 

> <ROCS_ShapeTanimoto>
0.560 

> <ROCS_ColorTanimoto>
0.295 

> <ROCS_RefTversky>
0.528 

> <ROCS_RefColorTversky>
0.456 

> <ROCS_RefTverskyCombo>
0.984 

> <ROCS_FitTversky>
1.124 

> <ROCS_FitColorTversky>
0.456 

> <ROCS_FitTverskyCombo>
1.580 

> <ROCS_ColorScore>
-3.192

> <ROCS_Overlap>
866.051

> <ROCS_Rank>
175                 

$$$$
untitled-dbase-31181_14
  -OEChem-10092318153D

 34 36  0     0  0  0  0  0  0999 V2000
   -8.2698   -2.3512  -18.0548 C   0  0  0  0  0  0  0  0  0  0  0  0
   -9.0729   -2.9358  -17.0839 C   0  0  0  0  0  0  0  0  0  0  0  0
   -7.8771   -1.0170  -17.9230 C   0  0  0  0  0  0  0  0  0  0  0  0
   -9.4759   -2.1861  -15.9836 C   0  0  0  0  0  0  0  0  0  0  0  0
   -8.2661   -0.2364  -16.8180 C   0  0  0  0  0  0  0  0  0  0  0  0
   -9.0563   -0.8562  -15.8392 C   0  0  0  0  0  0  0  0  0  0  0  0
   -7.5288    1.1652  -14.3391 C   0  0  0  0  0  0  0  0  0  0  0  0
   -8.1194   -0.9146  -12.9580 C   0  0  0  0  0  0  0  0  0  0  0  0
   -9.5469    1.1807  -12.8320 C   0  0  0  0  0  0  0  0  0  0  0  0
   -7.9522    1.9254  -15.5916 C   0  0  0  0  0  0  0  0  0  0  0  0
   -7.9466   -0.5812  -11.4795 C   0  0  0  0  0  0  0  0  0  0  0  0
  -10.2005    0.3588  -11.7215 C   0  0  0  0  0  0  0  0  0  0  0  0
   -8.6694    0.2917  -13.7617 C   0  0  0  0  0  0  0  0  0  0  0  0
   -7.8322    1.0767  -16.7591 N   0  0  0  0  0  0  0  0  0  0  0  0
   -9.2230   -0.2698  -10.8319 N   0  0  0  0  0  0  0  0  0  0  0  0
   -9.5875   -0.1821  -14.7734 O   0  0  0  0  0  0  0  0  0  0  0  0
   -7.9392   -2.9321  -18.9110 H   0  0  0  0  0  0  0  0  0  0  0  0
   -9.3771   -3.9736  -17.1786 H   0  0  0  0  0  0  0  0  0  0  0  0
   -7.2514   -0.5840  -18.7016 H   0  0  0  0  0  0  0  0  0  0  0  0
  -10.1192   -2.6429  -15.2370 H   0  0  0  0  0  0  0  0  0  0  0  0
   -6.6579    0.5413  -14.5674 H   0  0  0  0  0  0  0  0  0  0  0  0
   -7.1742    1.8787  -13.5853 H   0  0  0  0  0  0  0  0  0  0  0  0
   -7.1514   -1.2319  -13.3649 H   0  0  0  0  0  0  0  0  0  0  0  0
   -8.8048   -1.7658  -13.0417 H   0  0  0  0  0  0  0  0  0  0  0  0
  -10.3294    1.6752  -13.4092 H   0  0  0  0  0  0  0  0  0  0  0  0
   -8.9253    1.9609  -12.3852 H   0  0  0  0  0  0  0  0  0  0  0  0
   -9.0047    2.2152  -15.4936 H   0  0  0  0  0  0  0  0  0  0  0  0
   -7.3818    2.8513  -15.7253 H   0  0  0  0  0  0  0  0  0  0  0  0
   -7.4459   -1.4052  -10.9483 H   0  0  0  0  0  0  0  0  0  0  0  0
   -7.2857    0.2924  -11.3841 H   0  0  0  0  0  0  0  0  0  0  0  0
  -10.8432    1.0205  -11.1207 H   0  0  0  0  0  0  0  0  0  0  0  0
  -10.8672   -0.4088  -12.1444 H   0  0  0  0  0  0  0  0  0  0  0  0
   -7.4660    1.4949  -17.6071 H   0  0  0  0  0  0  0  0  0  0  0  0
   -9.6251   -1.1368  -10.4497 H   0  0  0  0  0  0  0  0  0  0  0  0
  1  2  2  0  0  0  0
  1  3  1  0  0  0  0
  2  4  1  0  0  0  0
  3  5  2  0  0  0  0
  4  6  2  0  0  0  0
  5  6  1  0  0  0  0
  5 14  1  0  0  0  0
  6 16  1  0  0  0  0
  7 10  1  0  0  0  0
  7 13  1  0  0  0  0
  8 11  1  0  0  0  0
  8 13  1  0  0  0  0
  9 12  1  0  0  0  0
  9 13  1  0  0  0  0
 10 14  1  0  0  0  0
 11 15  1  0  0  0  0
 12 15  1  0  0  0  0
 13 16  1  0  0  0  0
  1 17  1  0  0  0  0
  2 18  1  0  0  0  0
  3 19  1  0  0  0  0
  4 20  1  0  0  0  0
  7 21  1  0  0  0  0
  7 22  1  0  0  0  0
  8 23  1  0  0  0  0
  8 24  1  0  0  0  0
  9 25  1  0  0  0  0
  9 26  1  0  0  0  0
 10 27  1  0  0  0  0
 10 28  1  0  0  0  0
 11 29  1  0  0  0  0
 11 30  1  0  0  0  0
 12 31  1  0  0  0  0
 12 32  1  0  0  0  0
 14 33  1  0  0  0  0
 15 34  1  0  0  0  0
M  END
> <id>
EN300-22012051

> <smiles>
Cl.Cl.C1CC2(CCN1)CCNC=3C=CC=CC3O2

> <MDLNUMBER>
MFCD30145851

> <IUPAC Name>
4,5-dihydro-3H-spiro[1,5-benzoxazepine-2,4'-piperidine] dihydrochloride

> <CAS>
2197062-80-7

> <Purity>
95

> <URL>
https://www.enaminestore.com/catalog/EN300-22012051

> <ROCS_ShapeQuery>
amalgated

> <ROCS_TanimotoCombo>
0.855 

> <ROCS_ShapeTanimoto>
0.560 

> <ROCS_ColorTanimoto>
0.295 

> <ROCS_RefTversky>
0.528 

> <ROCS_RefColorTversky>
0.456 

> <ROCS_RefTverskyCombo>
0.984 

> <ROCS_FitTversky>
1.124 

> <ROCS_FitColorTversky>
0.456 

> <ROCS_FitTverskyCombo>
1.580 

> <ROCS_ColorScore>
-3.192

> <ROCS_Overlap>
866.051

> <ROCS_Rank>
176                 

$$$$
untitled-dbase-14160_57
  -OEChem-10092318153D

 41 42  0     0  0  0  0  0  0999 V2000
   -8.8778    0.2291  -13.3124 C   0  0  0  0  0  0  0  0  0  0  0  0
   -7.0704   -1.3602  -16.2173 C   0  0  0  0  0  0  0  0  0  0  0  0
   -8.6228    0.5282  -16.9085 C   0  0  0  0  0  0  0  0  0  0  0  0
   -7.3752   -1.1125  -14.7391 C   0  0  0  0  0  0  0  0  0  0  0  0
   -8.1437    1.0920  -15.5691 C   0  0  0  0  0  0  0  0  0  0  0  0
   -7.8801   -1.2149  -18.6185 C   0  0  0  0  0  0  0  0  0  0  0  0
   -9.0226   -3.1376  -17.8229 C   0  0  0  0  0  0  0  0  0  0  0  0
   -8.2409   -0.9516  -17.1489 C   0  0  0  0  0  0  0  0  0  0  0  0
   -9.4367   -1.9044  -17.0458 C   0  0  0  0  0  0  0  0  0  0  0  0
  -10.8661   -0.6594  -11.4571 C   0  0  0  0  0  0  0  0  0  0  0  0
   -9.0227   -2.0083  -10.4122 C   0  0  0  0  0  0  0  0  0  0  0  0
   -8.8669    0.4981  -10.4580 C   0  0  0  0  0  0  0  0  0  0  0  0
   -9.3626   -0.7436  -11.1979 C   0  0  0  0  0  0  0  0  0  0  0  0
   -8.0357   -2.6677  -18.8132 N   0  0  0  0  0  0  0  0  0  0  0  0
   -8.1855    0.0807  -14.5174 N   0  0  0  0  0  0  0  0  0  0  0  0
   -9.5831    1.1990  -13.0392 O   0  0  0  0  0  0  0  0  0  0  0  0
   -8.6867   -0.8237  -12.4580 O   0  0  0  0  0  0  0  0  0  0  0  0
   -9.7933   -2.1893  -15.7829 F   0  0  0  0  0  0  0  0  0  0  0  0
  -10.5271   -1.3706  -17.6575 F   0  0  0  0  0  0  0  0  0  0  0  0
   -6.1437   -0.8369  -16.4783 H   0  0  0  0  0  0  0  0  0  0  0  0
   -6.8629   -2.4306  -16.3477 H   0  0  0  0  0  0  0  0  0  0  0  0
   -9.7213    0.6319  -16.9659 H   0  0  0  0  0  0  0  0  0  0  0  0
   -8.2251    1.1613  -17.7203 H   0  0  0  0  0  0  0  0  0  0  0  0
   -7.8618   -2.0077  -14.3208 H   0  0  0  0  0  0  0  0  0  0  0  0
   -6.4423   -0.9812  -14.1663 H   0  0  0  0  0  0  0  0  0  0  0  0
   -7.1075    1.4426  -15.6456 H   0  0  0  0  0  0  0  0  0  0  0  0
   -8.7570    1.9581  -15.2976 H   0  0  0  0  0  0  0  0  0  0  0  0
   -8.5674   -0.6825  -19.2982 H   0  0  0  0  0  0  0  0  0  0  0  0
   -6.8595   -0.9026  -18.8836 H   0  0  0  0  0  0  0  0  0  0  0  0
   -8.5551   -3.8855  -17.1753 H   0  0  0  0  0  0  0  0  0  0  0  0
   -9.8807   -3.5949  -18.3254 H   0  0  0  0  0  0  0  0  0  0  0  0
  -11.1141    0.2471  -12.0208 H   0  0  0  0  0  0  0  0  0  0  0  0
  -11.2280   -1.5274  -12.0177 H   0  0  0  0  0  0  0  0  0  0  0  0
  -11.4226   -0.5994  -10.5148 H   0  0  0  0  0  0  0  0  0  0  0  0
   -7.9449   -2.0728  -10.2240 H   0  0  0  0  0  0  0  0  0  0  0  0
   -9.2908   -2.9055  -10.9818 H   0  0  0  0  0  0  0  0  0  0  0  0
   -9.5451   -2.0392   -9.4506 H   0  0  0  0  0  0  0  0  0  0  0  0
   -7.7885    0.4379  -10.2719 H   0  0  0  0  0  0  0  0  0  0  0  0
   -9.0693    1.4128  -11.0245 H   0  0  0  0  0  0  0  0  0  0  0  0
   -9.3458    0.5835   -9.4759 H   0  0  0  0  0  0  0  0  0  0  0  0
   -8.3453   -2.8706  -19.7592 H   0  0  0  0  0  0  0  0  0  0  0  0
  1 15  1  0  0  0  0
  1 16  2  0  0  0  0
  1 17  1  0  0  0  0
  2  4  1  0  0  0  0
  2  8  1  0  0  0  0
  3  5  1  0  0  0  0
  3  8  1  0  0  0  0
  4 15  1  0  0  0  0
  5 15  1  0  0  0  0
  6  8  1  0  0  0  0
  6 14  1  0  0  0  0
  7  9  1  0  0  0  0
  7 14  1  0  0  0  0
  8  9  1  0  0  0  0
  9 18  1  0  0  0  0
  9 19  1  0  0  0  0
 10 13  1  0  0  0  0
 11 13  1  0  0  0  0
 12 13  1  0  0  0  0
 13 17  1  0  0  0  0
  2 20  1  0  0  0  0
  2 21  1  0  0  0  0
  3 22  1  0  0  0  0
  3 23  1  0  0  0  0
  4 24  1  0  0  0  0
  4 25  1  0  0  0  0
  5 26  1  0  0  0  0
  5 27  1  0  0  0  0
  6 28  1  0  0  0  0
  6 29  1  0  0  0  0
  7 30  1  0  0  0  0
  7 31  1  0  0  0  0
 10 32  1  0  0  0  0
 10 33  1  0  0  0  0
 10 34  1  0  0  0  0
 11 35  1  0  0  0  0
 11 36  1  0  0  0  0
 11 37  1  0  0  0  0
 12 38  1  0  0  0  0
 12 39  1  0  0  0  0
 12 40  1  0  0  0  0
 14 41  1  0  0  0  0
M  END
> <id>
EN300-1105261

> <smiles>
CC(C)(C)OC(=O)N1CCC2(CNCC2(F)F)CC1

> <MDLNUMBER>
MFCD18791313

> <IUPAC Name>
tert-butyl 4,4-difluoro-2,8-diazaspiro[4.5]decane-8-carboxylate

> <CAS>
1263178-02-4

> <URL>
https://www.enaminestore.com/catalog/EN300-1105261

> <ROCS_ShapeQuery>
amalgated

> <ROCS_TanimotoCombo>
0.855 

> <ROCS_ShapeTanimoto>
0.622 

> <ROCS_ColorTanimoto>
0.233 

> <ROCS_RefTversky>
0.590 

> <ROCS_RefColorTversky>
0.354 

> <ROCS_RefTverskyCombo>
0.944 

> <ROCS_FitTversky>
1.095 

> <ROCS_FitColorTversky>
0.406 

> <ROCS_FitTverskyCombo>
1.501 

> <ROCS_ColorScore>
-2.458

> <ROCS_Overlap>
972.576

> <ROCS_Rank>
177                 

$$$$
untitled-dbase-44576_140
  -OEChem-10092318153D

 44 45  0     1  0  0  0  0  0999 V2000
   -8.8058   -0.5140  -14.2308 C   0  0  0  0  0  0  0  0  0  0  0  0
   -6.6172    1.1567  -16.8483 C   0  0  0  0  0  0  0  0  0  0  0  0
   -9.0634   -2.9795  -16.5270 C   0  0  0  0  0  0  0  0  0  0  0  0
   -7.5153    1.0430  -18.0624 C   0  0  0  0  0  0  0  0  0  0  0  0
   -9.9258   -1.7406  -16.7642 C   0  0  0  0  0  0  0  0  0  0  0  0
   -8.4689   -3.5766  -17.8013 C   0  0  0  0  0  0  0  0  0  0  0  0
   -7.4220    1.0387  -15.5676 C   0  0  0  0  0  0  0  0  0  0  0  0
   -7.3174   -1.4658  -18.3140 C   0  0  0  0  0  0  0  0  0  0  0  0
   -8.2817   -0.2846  -18.0514 C   0  0  1  0  0  0  0  0  0  0  0  0
   -9.1366   -0.4086  -16.7555 C   0  0  2  0  0  0  0  0  0  0  0  0
   -8.2475   -1.5634  -11.6190 C   0  0  0  0  0  0  0  0  0  0  0  0
   -7.9488    0.8314  -10.9226 C   0  0  0  0  0  0  0  0  0  0  0  0
  -10.1792    0.0432  -11.7665 C   0  0  0  0  0  0  0  0  0  0  0  0
   -8.6641   -0.1170  -11.8823 C   0  0  0  0  0  0  0  0  0  0  0  0
   -8.0241   -2.6361  -18.8219 N   0  0  0  0  0  0  0  0  0  0  0  0
   -8.3607   -0.0966  -15.5114 N   0  0  0  0  0  0  0  0  0  0  0  0
   -9.5835   -1.4375  -14.0071 O   0  0  0  0  0  0  0  0  0  0  0  0
   -8.2683    0.2363  -13.2133 O   0  0  0  0  0  0  0  0  0  0  0  0
   -5.8524    0.3721  -16.8763 H   0  0  0  0  0  0  0  0  0  0  0  0
   -6.0880    2.1178  -16.8631 H   0  0  0  0  0  0  0  0  0  0  0  0
   -8.2309   -2.7051  -15.8713 H   0  0  0  0  0  0  0  0  0  0  0  0
   -9.6379   -3.7394  -15.9896 H   0  0  0  0  0  0  0  0  0  0  0  0
   -8.2196    1.8851  -18.0755 H   0  0  0  0  0  0  0  0  0  0  0  0
   -6.8826    1.1419  -18.9520 H   0  0  0  0  0  0  0  0  0  0  0  0
  -10.3878   -1.8540  -17.7609 H   0  0  0  0  0  0  0  0  0  0  0  0
  -10.7660   -1.7116  -16.0494 H   0  0  0  0  0  0  0  0  0  0  0  0
   -7.6119   -4.2004  -17.5314 H   0  0  0  0  0  0  0  0  0  0  0  0
   -9.2039   -4.2545  -18.2437 H   0  0  0  0  0  0  0  0  0  0  0  0
   -6.7444    0.9317  -14.6942 H   0  0  0  0  0  0  0  0  0  0  0  0
   -7.9702    1.9869  -15.3896 H   0  0  0  0  0  0  0  0  0  0  0  0
   -6.4951   -1.1679  -18.9627 H   0  0  0  0  0  0  0  0  0  0  0  0
   -6.8715   -1.7498  -17.3599 H   0  0  0  0  0  0  0  0  0  0  0  0
   -8.9754   -0.2597  -18.8848 H   0  0  0  0  0  0  0  0  0  0  0  0
   -9.9092    0.3937  -16.8820 H   0  0  0  0  0  0  0  0  0  0  0  0
   -8.7587   -2.2473  -12.3059 H   0  0  0  0  0  0  0  0  0  0  0  0
   -7.1670   -1.6991  -11.7332 H   0  0  0  0  0  0  0  0  0  0  0  0
   -8.5301   -1.8736  -10.6065 H   0  0  0  0  0  0  0  0  0  0  0  0
   -8.2448    1.8703  -11.1079 H   0  0  0  0  0  0  0  0  0  0  0  0
   -6.8634    0.7890  -11.0685 H   0  0  0  0  0  0  0  0  0  0  0  0
   -8.1679    0.5897   -9.8775 H   0  0  0  0  0  0  0  0  0  0  0  0
  -10.4783    1.0806  -11.9553 H   0  0  0  0  0  0  0  0  0  0  0  0
  -10.7084   -0.6032  -12.4741 H   0  0  0  0  0  0  0  0  0  0  0  0
  -10.5202   -0.1973  -10.7530 H   0  0  0  0  0  0  0  0  0  0  0  0
   -7.4993   -3.1172  -19.5440 H   0  0  0  0  0  0  0  0  0  0  0  0
  1 16  1  0  0  0  0
  1 17  2  0  0  0  0
  1 18  1  0  0  0  0
  2  4  1  0  0  0  0
  2  7  1  0  0  0  0
  3  5  1  0  0  0  0
  3  6  1  0  0  0  0
  4  9  1  0  0  0  0
  5 10  1  0  0  0  0
  6 15  1  0  0  0  0
  7 16  1  0  0  0  0
  8  9  1  0  0  0  0
  8 15  1  0  0  0  0
  9 10  1  0  0  0  0
 10 16  1  0  0  0  0
 11 14  1  0  0  0  0
 12 14  1  0  0  0  0
 13 14  1  0  0  0  0
 14 18  1  0  0  0  0
  2 19  1  0  0  0  0
  2 20  1  0  0  0  0
  3 21  1  0  0  0  0
  3 22  1  0  0  0  0
  4 23  1  0  0  0  0
  4 24  1  0  0  0  0
  5 25  1  0  0  0  0
  5 26  1  0  0  0  0
  6 27  1  0  0  0  0
  6 28  1  0  0  0  0
  7 29  1  0  0  0  0
  7 30  1  0  0  0  0
  8 31  1  0  0  0  0
  8 32  1  0  0  0  0
  9 33  1  0  0  0  0
 10 34  1  0  0  0  0
 11 35  1  0  0  0  0
 11 36  1  0  0  0  0
 11 37  1  0  0  0  0
 12 38  1  0  0  0  0
 12 39  1  0  0  0  0
 12 40  1  0  0  0  0
 13 41  1  0  0  0  0
 13 42  1  0  0  0  0
 13 43  1  0  0  0  0
 15 44  1  0  0  0  0
M  END
> <id>
EN300-6898701

> <smiles>
CC(C)(C)OC(=O)N1CCCC2CNCCCC21

> <MDLNUMBER>
MFCD24533486

> <IUPAC Name>
tert-butyl decahydro-1H-pyrido[3,2-c]azepine-1-carboxylate

> <CAS>
1824411-26-8

> <URL>
https://www.enaminestore.com/catalog/EN300-6898701

> <ROCS_ShapeQuery>
amalgated

> <ROCS_TanimotoCombo>
0.855 

> <ROCS_ShapeTanimoto>
0.590 

> <ROCS_ColorTanimoto>
0.265 

> <ROCS_RefTversky>
0.556 

> <ROCS_RefColorTversky>
0.391 

> <ROCS_RefTverskyCombo>
0.948 

> <ROCS_FitTversky>
1.115 

> <ROCS_FitColorTversky>
0.449 

> <ROCS_FitTverskyCombo>
1.565 

> <ROCS_ColorScore>
-2.721

> <ROCS_Overlap>
914.643

> <ROCS_Rank>
178                 

$$$$
untitled-dbase-14409_60
  -OEChem-10092318153D

 37 37  0     1  0  0  0  0  0999 V2000
   -9.0704   -1.1982  -14.1053 C   0  0  0  0  0  0  0  0  0  0  0  0
   -8.2475   -0.1277  -17.6854 C   0  0  0  0  0  0  0  0  0  0  0  0
   -9.3755   -0.9591  -18.3023 C   0  0  0  0  0  0  0  0  0  0  0  0
   -8.3431    0.0213  -16.1689 C   0  0  0  0  0  0  0  0  0  0  0  0
   -8.0386   -2.4762  -15.9573 C   0  0  0  0  0  0  0  0  0  0  0  0
   -9.1425   -2.4789  -18.3033 C   0  0  2  0  0  0  0  0  0  0  0  0
   -9.0574   -3.1013  -16.9069 C   0  0  2  0  0  0  0  0  0  0  0  0
   -8.7413   -1.0718  -11.2650 C   0  0  0  0  0  0  0  0  0  0  0  0
   -8.9297    1.4179  -11.5391 C   0  0  0  0  0  0  0  0  0  0  0  0
  -10.8590   -0.0597  -12.1736 C   0  0  0  0  0  0  0  0  0  0  0  0
   -9.3372    0.0584  -12.1030 C   0  0  0  0  0  0  0  0  0  0  0  0
   -8.5148   -1.2111  -15.3962 N   0  0  0  0  0  0  0  0  0  0  0  0
   -7.9474   -2.8148  -19.0812 N   0  0  0  0  0  0  0  0  0  0  0  0
   -9.7156   -2.1246  -13.6175 O   0  0  0  0  0  0  0  0  0  0  0  0
   -8.8106   -0.0329  -13.4317 O   0  0  0  0  0  0  0  0  0  0  0  0
  -10.2933   -3.0286  -16.3309 F   0  0  0  0  0  0  0  0  0  0  0  0
   -7.2924   -0.5797  -17.9251 H   0  0  0  0  0  0  0  0  0  0  0  0
   -8.2656    0.8550  -18.1425 H   0  0  0  0  0  0  0  0  0  0  0  0
  -10.3014   -0.7411  -17.7797 H   0  0  0  0  0  0  0  0  0  0  0  0
   -9.5048   -0.6241  -19.3279 H   0  0  0  0  0  0  0  0  0  0  0  0
   -7.4436    0.5448  -15.7813 H   0  0  0  0  0  0  0  0  0  0  0  0
   -9.1780    0.7134  -15.9299 H   0  0  0  0  0  0  0  0  0  0  0  0
   -7.8572   -3.1727  -15.1358 H   0  0  0  0  0  0  0  0  0  0  0  0
   -7.0852   -2.3002  -16.4590 H   0  0  0  0  0  0  0  0  0  0  0  0
   -9.9944   -2.9266  -18.7976 H   0  0  0  0  0  0  0  0  0  0  0  0
   -8.8251   -4.1652  -17.0028 H   0  0  0  0  0  0  0  0  0  0  0  0
   -9.0315   -2.0493  -11.6666 H   0  0  0  0  0  0  0  0  0  0  0  0
   -7.6481   -1.0188  -11.2353 H   0  0  0  0  0  0  0  0  0  0  0  0
   -9.1176   -1.0362  -10.2363 H   0  0  0  0  0  0  0  0  0  0  0  0
   -9.3550    2.2318  -12.1372 H   0  0  0  0  0  0  0  0  0  0  0  0
   -7.8416    1.5448  -11.5745 H   0  0  0  0  0  0  0  0  0  0  0  0
   -9.2595    1.5406  -10.5024 H   0  0  0  0  0  0  0  0  0  0  0  0
  -11.2867    0.7510  -12.7746 H   0  0  0  0  0  0  0  0  0  0  0  0
  -11.1696   -1.0144  -12.6102 H   0  0  0  0  0  0  0  0  0  0  0  0
  -11.3034    0.0278  -11.1755 H   0  0  0  0  0  0  0  0  0  0  0  0
   -7.8623   -3.8033  -19.1086 H   0  0  0  0  0  0  0  0  0  0  0  0
   -8.0594   -2.4468  -19.9961 H   0  0  0  0  0  0  0  0  0  0  0  0
  1 12  1  0  0  0  0
  1 14  2  0  0  0  0
  1 15  1  0  0  0  0
  2  3  1  0  0  0  0
  2  4  1  0  0  0  0
  3  6  1  0  0  0  0
  4 12  1  0  0  0  0
  5  7  1  0  0  0  0
  5 12  1  0  0  0  0
  6  7  1  0  0  0  0
  6 13  1  0  0  0  0
  7 16  1  0  0  0  0
  8 11  1  0  0  0  0
  9 11  1  0  0  0  0
 10 11  1  0  0  0  0
 11 15  1  0  0  0  0
  2 17  1  0  0  0  0
  2 18  1  0  0  0  0
  3 19  1  0  0  0  0
  3 20  1  0  0  0  0
  4 21  1  0  0  0  0
  4 22  1  0  0  0  0
  5 23  1  0  0  0  0
  5 24  1  0  0  0  0
  6 25  1  0  0  0  0
  7 26  1  0  0  0  0
  8 27  1  0  0  0  0
  8 28  1  0  0  0  0
  8 29  1  0  0  0  0
  9 30  1  0  0  0  0
  9 31  1  0  0  0  0
  9 32  1  0  0  0  0
 10 33  1  0  0  0  0
 10 34  1  0  0  0  0
 10 35  1  0  0  0  0
 13 36  1  0  0  0  0
 13 37  1  0  0  0  0
M  END
> <id>
EN300-1073123

> <smiles>
CC(C)(C)OC(=O)N1CCCC(N)C(F)C1

> <MDLNUMBER>
MFCD30151391

> <IUPAC Name>
tert-butyl 4-amino-3-fluoroazepane-1-carboxylate

> <CAS>
1823996-36-6

> <Purity>
95

> <URL>
https://www.enaminestore.com/catalog/EN300-1073123

> <ROCS_ShapeQuery>
amalgated

> <ROCS_TanimotoCombo>
0.854 

> <ROCS_ShapeTanimoto>
0.535 

> <ROCS_ColorTanimoto>
0.320 

> <ROCS_RefTversky>
0.504 

> <ROCS_RefColorTversky>
0.421 

> <ROCS_RefTverskyCombo>
0.926 

> <ROCS_FitTversky>
1.127 

> <ROCS_FitColorTversky>
0.570 

> <ROCS_FitTverskyCombo>
1.697 

> <ROCS_ColorScore>
-2.908

> <ROCS_Overlap>
826.848

> <ROCS_Rank>
179                 

$$$$
untitled-dbase-11940_0
  -OEChem-10092318153D

 33 35  0     1  0  0  0  0  0999 V2000
   -8.0949   -0.6512  -17.4785 C   0  0  0  0  0  0  0  0  0  0  0  0
   -8.5741   -1.9355  -17.7513 C   0  0  0  0  0  0  0  0  0  0  0  0
   -9.2918   -2.1990  -15.4492 C   0  0  0  0  0  0  0  0  0  0  0  0
   -8.8189   -0.9194  -15.1899 C   0  0  0  0  0  0  0  0  0  0  0  0
   -8.2220   -0.1430  -16.1932 C   0  0  0  0  0  0  0  0  0  0  0  0
   -9.1689   -2.7044  -16.7429 C   0  0  0  0  0  0  0  0  0  0  0  0
   -7.7391   -0.7330  -12.9298 C   0  0  0  0  0  0  0  0  0  0  0  0
  -10.1756   -0.1522  -13.1758 C   0  0  0  0  0  0  0  0  0  0  0  0
   -7.7714   -0.0714  -11.5496 C   0  0  0  0  0  0  0  0  0  0  0  0
  -10.1020    0.5227  -11.8060 C   0  0  0  0  0  0  0  0  0  0  0  0
   -8.4213    1.2679  -14.3969 C   0  0  0  0  0  0  0  0  0  0  0  0
   -8.8084   -0.1585  -13.8827 C   0  0  0  0  0  0  0  0  0  0  0  0
   -7.4395    2.2034  -16.5487 C   0  0  0  0  0  0  0  0  0  0  0  0
   -9.1055   -0.1242  -10.9531 N   0  0  0  0  0  0  0  0  0  0  0  0
   -7.8089    1.0895  -15.7121 N   0  0  2  0  0  0  0  0  0  0  0  0
   -9.7447   -4.2870  -17.1022 Cl  0  0  0  0  0  0  0  0  0  0  0  0
   -7.6329   -0.0731  -18.2725 H   0  0  0  0  0  0  0  0  0  0  0  0
   -8.4747   -2.3300  -18.7600 H   0  0  0  0  0  0  0  0  0  0  0  0
   -9.7401   -2.7918  -14.6578 H   0  0  0  0  0  0  0  0  0  0  0  0
   -6.7349   -0.6244  -13.3596 H   0  0  0  0  0  0  0  0  0  0  0  0
   -7.8992   -1.8128  -12.8022 H   0  0  0  0  0  0  0  0  0  0  0  0
  -10.5357   -1.1807  -13.0385 H   0  0  0  0  0  0  0  0  0  0  0  0
  -10.9310    0.3504  -13.7932 H   0  0  0  0  0  0  0  0  0  0  0  0
   -7.0687   -0.5880  -10.8862 H   0  0  0  0  0  0  0  0  0  0  0  0
   -7.4309    0.9686  -11.6054 H   0  0  0  0  0  0  0  0  0  0  0  0
   -9.8750    1.5904  -11.9077 H   0  0  0  0  0  0  0  0  0  0  0  0
  -11.0801    0.4574  -11.3167 H   0  0  0  0  0  0  0  0  0  0  0  0
   -9.3149    1.8963  -14.5100 H   0  0  0  0  0  0  0  0  0  0  0  0
   -7.7368    1.7914  -13.7218 H   0  0  0  0  0  0  0  0  0  0  0  0
   -7.1523    3.0573  -15.9175 H   0  0  0  0  0  0  0  0  0  0  0  0
   -6.5902    1.9170  -17.1864 H   0  0  0  0  0  0  0  0  0  0  0  0
   -8.2939    2.4861  -17.1811 H   0  0  0  0  0  0  0  0  0  0  0  0
   -9.3690   -1.1009  -10.8197 H   0  0  0  0  0  0  0  0  0  0  0  0
  1  2  1  0  0  0  0
  1  5  2  0  0  0  0
  2  6  2  0  0  0  0
  3  4  2  0  0  0  0
  3  6  1  0  0  0  0
  4  5  1  0  0  0  0
  4 12  1  0  0  0  0
  5 15  1  0  0  0  0
  6 16  1  0  0  0  0
  7  9  1  0  0  0  0
  7 12  1  0  0  0  0
  8 10  1  0  0  0  0
  8 12  1  0  0  0  0
  9 14  1  0  0  0  0
 10 14  1  0  0  0  0
 11 12  1  0  0  0  0
 11 15  1  0  0  0  0
 13 15  1  0  0  0  0
  1 17  1  0  0  0  0
  2 18  1  0  0  0  0
  3 19  1  0  0  0  0
  7 20  1  0  0  0  0
  7 21  1  0  0  0  0
  8 22  1  0  0  0  0
  8 23  1  0  0  0  0
  9 24  1  0  0  0  0
  9 25  1  0  0  0  0
 10 26  1  0  0  0  0
 10 27  1  0  0  0  0
 11 28  1  0  0  0  0
 11 29  1  0  0  0  0
 13 30  1  0  0  0  0
 13 31  1  0  0  0  0
 13 32  1  0  0  0  0
 14 33  1  0  0  0  0
M  END
> <id>
EN300-27717222

> <smiles>
Cl.Cl.CN1CC2(CCNCC2)C=3C=C(Cl)C=CC13

> <IUPAC Name>
5-chloro-1-methyl-1,2-dihydrospiro[indole-3,4'-piperidine] dihydrochloride

> <CAS>
2770368-73-3

> <Purity>
95

> <URL>
https://www.enaminestore.com/catalog/EN300-27717222

> <ROCS_ShapeQuery>
amalgated

> <ROCS_TanimotoCombo>
0.854 

> <ROCS_ShapeTanimoto>
0.551 

> <ROCS_ColorTanimoto>
0.303 

> <ROCS_RefTversky>
0.520 

> <ROCS_RefColorTversky>
0.405 

> <ROCS_RefTverskyCombo>
0.925 

> <ROCS_FitTversky>
1.122 

> <ROCS_FitColorTversky>
0.546 

> <ROCS_FitTverskyCombo>
1.668 

> <ROCS_ColorScore>
-2.795

> <ROCS_Overlap>
853.383

> <ROCS_Rank>
180                 

$$$$
untitled-dbase-10089_9
  -OEChem-10092318153D

 35 37  0     0  0  0  0  0  0999 V2000
   -8.5534   -0.4338  -17.8987 C   0  0  0  0  0  0  0  0  0  0  0  0
   -8.9238   -1.6527  -18.4671 C   0  0  0  0  0  0  0  0  0  0  0  0
   -8.7379   -2.7229  -16.3081 C   0  0  0  0  0  0  0  0  0  0  0  0
   -8.2779   -0.3650  -16.5302 C   0  0  0  0  0  0  0  0  0  0  0  0
   -9.0114   -2.7965  -17.6742 C   0  0  0  0  0  0  0  0  0  0  0  0
   -8.3842   -1.5022  -15.7300 C   0  0  0  0  0  0  0  0  0  0  0  0
   -7.8339    0.9007  -15.9212 C   0  0  0  0  0  0  0  0  0  0  0  0
   -7.4418    0.8340  -14.4690 C   0  0  0  0  0  0  0  0  0  0  0  0
   -9.7502    0.1284  -13.5626 C   0  0  0  0  0  0  0  0  0  0  0  0
   -7.5774   -0.4403  -12.3261 C   0  0  0  0  0  0  0  0  0  0  0  0
  -10.0402    0.8381  -12.2448 C   0  0  0  0  0  0  0  0  0  0  0  0
   -8.5584   -1.0247  -11.3134 C   0  0  0  0  0  0  0  0  0  0  0  0
   -8.2447   -0.2380  -13.7153 C   0  0  0  0  0  0  0  0  0  0  0  0
   -9.7108   -0.0611  -11.0605 C   0  0  0  0  0  0  0  0  0  0  0  0
   -9.3958   -4.1005  -18.2876 C   0  0  0  0  0  0  0  0  0  0  0  0
   -7.7361    1.9280  -16.5819 O   0  0  0  0  0  0  0  0  0  0  0  0
   -8.1427   -1.5140  -14.3838 O   0  0  0  0  0  0  0  0  0  0  0  0
  -10.8096   -0.7819  -10.7155 F   0  0  0  0  0  0  0  0  0  0  0  0
   -9.4218    0.7240   -9.9898 F   0  0  0  0  0  0  0  0  0  0  0  0
   -8.4955    0.4469  -18.5319 H   0  0  0  0  0  0  0  0  0  0  0  0
   -9.1495   -1.7003  -19.5292 H   0  0  0  0  0  0  0  0  0  0  0  0
   -8.7888   -3.6192  -15.6942 H   0  0  0  0  0  0  0  0  0  0  0  0
   -6.3663    0.6278  -14.4009 H   0  0  0  0  0  0  0  0  0  0  0  0
   -7.6282    1.8314  -14.0488 H   0  0  0  0  0  0  0  0  0  0  0  0
  -10.3568   -0.7824  -13.6024 H   0  0  0  0  0  0  0  0  0  0  0  0
  -10.0601    0.7681  -14.3960 H   0  0  0  0  0  0  0  0  0  0  0  0
   -7.2056    0.5196  -11.9561 H   0  0  0  0  0  0  0  0  0  0  0  0
   -6.7217   -1.1151  -12.3956 H   0  0  0  0  0  0  0  0  0  0  0  0
   -9.4420    1.7514  -12.1828 H   0  0  0  0  0  0  0  0  0  0  0  0
  -11.0897    1.1424  -12.1937 H   0  0  0  0  0  0  0  0  0  0  0  0
   -8.9496   -1.9828  -11.6656 H   0  0  0  0  0  0  0  0  0  0  0  0
   -8.0373   -1.2195  -10.3727 H   0  0  0  0  0  0  0  0  0  0  0  0
   -8.5039   -4.6390  -18.6304 H   0  0  0  0  0  0  0  0  0  0  0  0
   -9.9316   -4.7356  -17.5703 H   0  0  0  0  0  0  0  0  0  0  0  0
  -10.0657   -3.9551  -19.1452 H   0  0  0  0  0  0  0  0  0  0  0  0
  1  2  1  0  0  0  0
  1  4  2  0  0  0  0
  2  5  2  0  0  0  0
  3  5  1  0  0  0  0
  3  6  2  0  0  0  0
  4  6  1  0  0  0  0
  4  7  1  0  0  0  0
  5 15  1  0  0  0  0
  6 17  1  0  0  0  0
  7  8  1  0  0  0  0
  7 16  2  0  0  0  0
  8 13  1  0  0  0  0
  9 11  1  0  0  0  0
  9 13  1  0  0  0  0
 10 12  1  0  0  0  0
 10 13  1  0  0  0  0
 11 14  1  0  0  0  0
 12 14  1  0  0  0  0
 13 17  1  0  0  0  0
 14 18  1  0  0  0  0
 14 19  1  0  0  0  0
  1 20  1  0  0  0  0
  2 21  1  0  0  0  0
  3 22  1  0  0  0  0
  8 23  1  0  0  0  0
  8 24  1  0  0  0  0
  9 25  1  0  0  0  0
  9 26  1  0  0  0  0
 10 27  1  0  0  0  0
 10 28  1  0  0  0  0
 11 29  1  0  0  0  0
 11 30  1  0  0  0  0
 12 31  1  0  0  0  0
 12 32  1  0  0  0  0
 15 33  1  0  0  0  0
 15 34  1  0  0  0  0
 15 35  1  0  0  0  0
M  END
> <id>
EN300-338200

> <smiles>
CC=1C=CC=2C(=O)CC3(CCC(F)(F)CC3)OC2C1

> <MDLNUMBER>
MFCD30499669

> <IUPAC Name>
4',4'-difluoro-7-methyl-3,4-dihydrospiro[1-benzopyran-2,1'-cyclohexane]-4-one

> <CAS>
2060059-68-7

> <URL>
https://www.enaminestore.com/catalog/EN300-338200

> <ROCS_ShapeQuery>
amalgated

> <ROCS_TanimotoCombo>
0.854 

> <ROCS_ShapeTanimoto>
0.656 

> <ROCS_ColorTanimoto>
0.198 

> <ROCS_RefTversky>
0.615 

> <ROCS_RefColorTversky>
0.288 

> <ROCS_RefTverskyCombo>
0.903 

> <ROCS_FitTversky>
1.113 

> <ROCS_FitColorTversky>
0.389 

> <ROCS_FitTverskyCombo>
1.502 

> <ROCS_ColorScore>
-1.988

> <ROCS_Overlap>
1013.519

> <ROCS_Rank>
181                 

$$$$
untitled-dbase-4879_75
  -OEChem-10092318153D

 34 35  0     1  0  0  0  0  0999 V2000
   -8.3099    0.0167  -16.6445 C   0  0  0  0  0  0  0  0  0  0  0  0
   -8.4086   -0.2582  -14.1321 C   0  0  0  0  0  0  0  0  0  0  0  0
   -7.4434   -1.5298  -18.4556 C   0  0  0  0  0  0  0  0  0  0  0  0
   -8.9112   -3.2833  -17.9654 C   0  0  0  0  0  0  0  0  0  0  0  0
   -9.0297   -2.0435  -15.7318 C   0  0  0  0  0  0  0  0  0  0  0  0
   -8.6490   -0.8826  -17.8072 C   0  0  1  0  0  0  0  0  0  0  0  0
   -9.4097   -2.0579  -17.2036 C   0  0  1  0  0  0  0  0  0  0  0  0
   -9.9570    0.6330  -12.2151 C   0  0  0  0  0  0  0  0  0  0  0  0
  -10.2935   -1.7352  -11.4484 C   0  0  0  0  0  0  0  0  0  0  0  0
   -8.1120   -0.5737  -11.0007 C   0  0  0  0  0  0  0  0  0  0  0  0
   -9.2831   -0.7166  -11.9718 C   0  0  0  0  0  0  0  0  0  0  0  0
   -7.9827   -2.7840  -18.9919 N   0  0  0  0  0  0  0  0  0  0  0  0
   -8.5833   -0.6930  -15.4540 N   0  0  0  0  0  0  0  0  0  0  0  0
   -7.8512    1.1441  -16.7674 O   0  0  0  0  0  0  0  0  0  0  0  0
   -7.9741    0.8499  -13.8242 O   0  0  0  0  0  0  0  0  0  0  0  0
   -8.7827   -1.2078  -13.2204 O   0  0  0  0  0  0  0  0  0  0  0  0
   -7.0403   -0.9184  -19.2611 H   0  0  0  0  0  0  0  0  0  0  0  0
   -6.6424   -1.7433  -17.7489 H   0  0  0  0  0  0  0  0  0  0  0  0
   -8.3837   -4.0058  -17.3039 H   0  0  0  0  0  0  0  0  0  0  0  0
   -9.7483   -3.8490  -18.4265 H   0  0  0  0  0  0  0  0  0  0  0  0
   -9.9044   -2.2332  -15.0990 H   0  0  0  0  0  0  0  0  0  0  0  0
   -8.2565   -2.7747  -15.4740 H   0  0  0  0  0  0  0  0  0  0  0  0
   -9.2749   -0.3332  -18.5257 H   0  0  0  0  0  0  0  0  0  0  0  0
  -10.4893   -1.9437  -17.3315 H   0  0  0  0  0  0  0  0  0  0  0  0
   -9.2350    1.3669  -12.5908 H   0  0  0  0  0  0  0  0  0  0  0  0
  -10.7764    0.5505  -12.9365 H   0  0  0  0  0  0  0  0  0  0  0  0
  -10.3579    1.0438  -11.2814 H   0  0  0  0  0  0  0  0  0  0  0  0
   -9.8143   -2.7050  -11.2724 H   0  0  0  0  0  0  0  0  0  0  0  0
  -11.0865   -1.9117  -12.1840 H   0  0  0  0  0  0  0  0  0  0  0  0
  -10.7556   -1.4021  -10.5135 H   0  0  0  0  0  0  0  0  0  0  0  0
   -7.6285   -1.5416  -10.8260 H   0  0  0  0  0  0  0  0  0  0  0  0
   -7.3588    0.1259  -11.3774 H   0  0  0  0  0  0  0  0  0  0  0  0
   -8.4577   -0.2198  -10.0227 H   0  0  0  0  0  0  0  0  0  0  0  0
   -8.5196   -2.5732  -19.8324 H   0  0  0  0  0  0  0  0  0  0  0  0
  1  6  1  0  0  0  0
  1 13  1  0  0  0  0
  1 14  2  0  0  0  0
  2 13  1  0  0  0  0
  2 15  2  0  0  0  0
  2 16  1  0  0  0  0
  3  6  1  0  0  0  0
  3 12  1  0  0  0  0
  4  7  1  0  0  0  0
  4 12  1  0  0  0  0
  5  7  1  0  0  0  0
  5 13  1  0  0  0  0
  6  7  1  0  0  0  0
  8 11  1  0  0  0  0
  9 11  1  0  0  0  0
 10 11  1  0  0  0  0
 11 16  1  0  0  0  0
  3 17  1  0  0  0  0
  3 18  1  0  0  0  0
  4 19  1  0  0  0  0
  4 20  1  0  0  0  0
  5 21  1  0  0  0  0
  5 22  1  0  0  0  0
  6 23  1  0  0  0  0
  7 24  1  0  0  0  0
  8 25  1  0  0  0  0
  8 26  1  0  0  0  0
  8 27  1  0  0  0  0
  9 28  1  0  0  0  0
  9 29  1  0  0  0  0
  9 30  1  0  0  0  0
 10 31  1  0  0  0  0
 10 32  1  0  0  0  0
 10 33  1  0  0  0  0
 12 34  1  0  0  0  0
M  END
> <id>
EN300-200203

> <smiles>
CC(C)(C)OC(=O)N1CC2CNCC2C1=O

> <MDLNUMBER>
MFCD28246445

> <IUPAC Name>
tert-butyl 1-oxo-octahydropyrrolo[3,4-c]pyrrole-2-carboxylate

> <CAS>
1803610-19-6

> <URL>
https://www.enaminestore.com/catalog/EN300-200203

> <ROCS_ShapeQuery>
amalgated

> <ROCS_TanimotoCombo>
0.854 

> <ROCS_ShapeTanimoto>
0.598 

> <ROCS_ColorTanimoto>
0.256 

> <ROCS_RefTversky>
0.549 

> <ROCS_RefColorTversky>
0.409 

> <ROCS_RefTverskyCombo>
0.958 

> <ROCS_FitTversky>
1.176 

> <ROCS_FitColorTversky>
0.405 

> <ROCS_FitTverskyCombo>
1.582 

> <ROCS_ColorScore>
-2.867

> <ROCS_Overlap>
900.933

> <ROCS_Rank>
182                 

$$$$
untitled-dbase-16648_18
  -OEChem-10092318153D

 37 39  0     0  0  0  0  0  0999 V2000
   -8.2877   -0.4391  -11.2775 C   0  0  0  0  0  0  0  0  0  0  0  0
   -9.8094   -0.3251  -11.3533 C   0  0  0  0  0  0  0  0  0  0  0  0
   -7.7578    0.0029  -12.6420 C   0  0  0  0  0  0  0  0  0  0  0  0
  -10.1072    0.3087  -12.7080 C   0  0  0  0  0  0  0  0  0  0  0  0
   -9.7969   -1.8026  -17.2330 C   0  0  0  0  0  0  0  0  0  0  0  0
   -7.5398   -0.7459  -17.2927 C   0  0  0  0  0  0  0  0  0  0  0  0
   -9.2079   -3.0145  -17.9568 C   0  0  0  0  0  0  0  0  0  0  0  0
   -7.0217   -1.9890  -18.0192 C   0  0  0  0  0  0  0  0  0  0  0  0
   -9.1556   -1.6056  -14.0700 C   0  0  0  0  0  0  0  0  0  0  0  0
   -8.7679    0.7798  -14.8335 C   0  0  0  0  0  0  0  0  0  0  0  0
   -8.9452   -0.1415  -13.6119 C   0  0  0  0  0  0  0  0  0  0  0  0
   -8.7519   -1.0485  -16.3826 C   0  0  0  0  0  0  0  0  0  0  0  0
   -8.0742   -2.6377  -18.8038 N   0  0  0  0  0  0  0  0  0  0  0  0
   -8.3334   -1.8997  -15.2458 N   0  0  0  0  0  0  0  0  0  0  0  0
   -9.3653    0.1983  -15.9916 O   0  0  0  0  0  0  0  0  0  0  0  0
   -7.9018    0.2108  -10.4845 H   0  0  0  0  0  0  0  0  0  0  0  0
   -7.9698   -1.4602  -11.0451 H   0  0  0  0  0  0  0  0  0  0  0  0
  -10.2965   -1.2982  -11.2518 H   0  0  0  0  0  0  0  0  0  0  0  0
  -10.1763    0.3129  -10.5433 H   0  0  0  0  0  0  0  0  0  0  0  0
   -7.3462    1.0185  -12.5998 H   0  0  0  0  0  0  0  0  0  0  0  0
   -6.9373   -0.6668  -12.9361 H   0  0  0  0  0  0  0  0  0  0  0  0
  -11.0582   -0.0820  -13.0870 H   0  0  0  0  0  0  0  0  0  0  0  0
  -10.1977    1.3956  -12.6390 H   0  0  0  0  0  0  0  0  0  0  0  0
  -10.2500   -1.1449  -17.9902 H   0  0  0  0  0  0  0  0  0  0  0  0
  -10.6287   -2.1387  -16.5894 H   0  0  0  0  0  0  0  0  0  0  0  0
   -6.7181   -0.3091  -16.7019 H   0  0  0  0  0  0  0  0  0  0  0  0
   -7.8152    0.0008  -18.0540 H   0  0  0  0  0  0  0  0  0  0  0  0
   -8.8641   -3.7478  -17.2173 H   0  0  0  0  0  0  0  0  0  0  0  0
   -9.9738   -3.5189  -18.5596 H   0  0  0  0  0  0  0  0  0  0  0  0
   -6.1752   -1.7358  -18.6708 H   0  0  0  0  0  0  0  0  0  0  0  0
   -6.6387   -2.7068  -17.2834 H   0  0  0  0  0  0  0  0  0  0  0  0
   -8.8846   -2.2992  -13.2707 H   0  0  0  0  0  0  0  0  0  0  0  0
  -10.2098   -1.7874  -14.2911 H   0  0  0  0  0  0  0  0  0  0  0  0
   -9.2033    1.7679  -14.6545 H   0  0  0  0  0  0  0  0  0  0  0  0
   -7.7119    0.9434  -15.0668 H   0  0  0  0  0  0  0  0  0  0  0  0
   -7.6927   -3.4772  -19.2349 H   0  0  0  0  0  0  0  0  0  0  0  0
   -7.3680   -1.7048  -15.0273 H   0  0  0  0  0  0  0  0  0  0  0  0
  1  2  1  0  0  0  0
  1  3  1  0  0  0  0
  2  4  1  0  0  0  0
  3 11  1  0  0  0  0
  4 11  1  0  0  0  0
  5  7  1  0  0  0  0
  5 12  1  0  0  0  0
  6  8  1  0  0  0  0
  6 12  1  0  0  0  0
  7 13  1  0  0  0  0
  8 13  1  0  0  0  0
  9 11  1  0  0  0  0
  9 14  1  0  0  0  0
 10 11  1  0  0  0  0
 10 15  1  0  0  0  0
 12 14  1  0  0  0  0
 12 15  1  0  0  0  0
  1 16  1  0  0  0  0
  1 17  1  0  0  0  0
  2 18  1  0  0  0  0
  2 19  1  0  0  0  0
  3 20  1  0  0  0  0
  3 21  1  0  0  0  0
  4 22  1  0  0  0  0
  4 23  1  0  0  0  0
  5 24  1  0  0  0  0
  5 25  1  0  0  0  0
  6 26  1  0  0  0  0
  6 27  1  0  0  0  0
  7 28  1  0  0  0  0
  7 29  1  0  0  0  0
  8 30  1  0  0  0  0
  8 31  1  0  0  0  0
  9 32  1  0  0  0  0
  9 33  1  0  0  0  0
 10 34  1  0  0  0  0
 10 35  1  0  0  0  0
 13 36  1  0  0  0  0
 14 37  1  0  0  0  0
M  END
> <id>
EN300-1278927

> <smiles>
C1CCC2(C1)CNC3(CCNCC3)OC2

> <IUPAC Name>
7-oxa-11,14-diazadispiro[4.2.5^{8}.2^{5}]pentadecane

> <CAS>
2172394-79-3

> <URL>
https://www.enaminestore.com/catalog/EN300-1278927

> <ROCS_ShapeQuery>
amalgated

> <ROCS_TanimotoCombo>
0.853 

> <ROCS_ShapeTanimoto>
0.535 

> <ROCS_ColorTanimoto>
0.319 

> <ROCS_RefTversky>
0.500 

> <ROCS_RefColorTversky>
0.514 

> <ROCS_RefTverskyCombo>
1.014 

> <ROCS_FitTversky>
1.149 

> <ROCS_FitColorTversky>
0.456 

> <ROCS_FitTverskyCombo>
1.605 

> <ROCS_ColorScore>
-3.627

> <ROCS_Overlap>
819.153

> <ROCS_Rank>
183                 

$$$$
untitled-dbase-28088_30
  -OEChem-10092318153D

 38 40  0     0  0  0  0  0  0999 V2000
   -7.4924   -0.8217  -17.3291 C   0  0  0  0  0  0  0  0  0  0  0  0
   -9.7915   -1.7940  -17.3353 C   0  0  0  0  0  0  0  0  0  0  0  0
   -7.6867    0.0314  -12.7919 C   0  0  0  0  0  0  0  0  0  0  0  0
  -10.1574    0.4167  -12.8934 C   0  0  0  0  0  0  0  0  0  0  0  0
   -7.0049   -2.0799  -18.0486 C   0  0  0  0  0  0  0  0  0  0  0  0
   -9.2363   -3.0131  -18.0729 C   0  0  0  0  0  0  0  0  0  0  0  0
   -9.1875   -1.5593  -14.1391 C   0  0  0  0  0  0  0  0  0  0  0  0
   -7.9027   -0.5560  -11.3992 C   0  0  0  0  0  0  0  0  0  0  0  0
  -10.2460   -0.2343  -11.5175 C   0  0  0  0  0  0  0  0  0  0  0  0
   -8.7254    0.7934  -14.9543 C   0  0  0  0  0  0  0  0  0  0  0  0
   -8.9368   -0.0919  -13.6983 C   0  0  0  0  0  0  0  0  0  0  0  0
   -8.7429   -1.0714  -16.4593 C   0  0  0  0  0  0  0  0  0  0  0  0
   -8.0628   -2.6635  -18.8717 N   0  0  0  0  0  0  0  0  0  0  0  0
   -8.3558   -1.8916  -15.2931 N   0  0  0  0  0  0  0  0  0  0  0  0
   -9.0530    0.0091  -10.7749 O   0  0  0  0  0  0  0  0  0  0  0  0
   -9.3280    0.2006  -16.1036 O   0  0  0  0  0  0  0  0  0  0  0  0
   -6.6712   -0.4308  -16.7014 H   0  0  0  0  0  0  0  0  0  0  0  0
   -7.6791   -0.0477  -18.0905 H   0  0  0  0  0  0  0  0  0  0  0  0
  -10.1982   -1.0948  -18.0883 H   0  0  0  0  0  0  0  0  0  0  0  0
  -10.6508   -2.1148  -16.7164 H   0  0  0  0  0  0  0  0  0  0  0  0
   -7.3683    1.0790  -12.7084 H   0  0  0  0  0  0  0  0  0  0  0  0
   -6.8574   -0.5148  -13.2652 H   0  0  0  0  0  0  0  0  0  0  0  0
  -11.0704    0.1592  -13.4445 H   0  0  0  0  0  0  0  0  0  0  0  0
  -10.1462    1.5052  -12.7811 H   0  0  0  0  0  0  0  0  0  0  0  0
   -6.1239   -1.8581  -18.6629 H   0  0  0  0  0  0  0  0  0  0  0  0
   -6.6939   -2.8192  -17.3023 H   0  0  0  0  0  0  0  0  0  0  0  0
   -8.9475   -3.7731  -17.3388 H   0  0  0  0  0  0  0  0  0  0  0  0
  -10.0059   -3.4645  -18.7103 H   0  0  0  0  0  0  0  0  0  0  0  0
   -8.9826   -2.2443  -13.3161 H   0  0  0  0  0  0  0  0  0  0  0  0
  -10.2338   -1.6927  -14.4136 H   0  0  0  0  0  0  0  0  0  0  0  0
   -8.0681   -1.6372  -11.4795 H   0  0  0  0  0  0  0  0  0  0  0  0
   -7.0261   -0.4135  -10.7545 H   0  0  0  0  0  0  0  0  0  0  0  0
  -11.1108    0.1187  -10.9498 H   0  0  0  0  0  0  0  0  0  0  0  0
  -10.3489   -1.3165  -11.6299 H   0  0  0  0  0  0  0  0  0  0  0  0
   -9.1757    1.7807  -14.8309 H   0  0  0  0  0  0  0  0  0  0  0  0
   -7.6614    0.9623  -15.1455 H   0  0  0  0  0  0  0  0  0  0  0  0
   -8.3333   -1.9986  -19.5957 H   0  0  0  0  0  0  0  0  0  0  0  0
   -7.3813   -1.7471  -15.0714 H   0  0  0  0  0  0  0  0  0  0  0  0
  1  5  1  0  0  0  0
  1 12  1  0  0  0  0
  2  6  1  0  0  0  0
  2 12  1  0  0  0  0
  3  8  1  0  0  0  0
  3 11  1  0  0  0  0
  4  9  1  0  0  0  0
  4 11  1  0  0  0  0
  5 13  1  0  0  0  0
  6 13  1  0  0  0  0
  7 11  1  0  0  0  0
  7 14  1  0  0  0  0
  8 15  1  0  0  0  0
  9 15  1  0  0  0  0
 10 11  1  0  0  0  0
 10 16  1  0  0  0  0
 12 14  1  0  0  0  0
 12 16  1  0  0  0  0
  1 17  1  0  0  0  0
  1 18  1  0  0  0  0
  2 19  1  0  0  0  0
  2 20  1  0  0  0  0
  3 21  1  0  0  0  0
  3 22  1  0  0  0  0
  4 23  1  0  0  0  0
  4 24  1  0  0  0  0
  5 25  1  0  0  0  0
  5 26  1  0  0  0  0
  6 27  1  0  0  0  0
  6 28  1  0  0  0  0
  7 29  1  0  0  0  0
  7 30  1  0  0  0  0
  8 31  1  0  0  0  0
  8 32  1  0  0  0  0
  9 33  1  0  0  0  0
  9 34  1  0  0  0  0
 10 35  1  0  0  0  0
 10 36  1  0  0  0  0
 13 37  1  0  0  0  0
 14 38  1  0  0  0  0
M  END
> <id>
EN300-1278974

> <smiles>
C1CC2(CCN1)NCC3(CCOCC3)CO2

> <IUPAC Name>
7,12-dioxa-3,16-diazadispiro[5.2.5^{9}.2^{6}]hexadecane

> <CAS>
2171927-72-1

> <URL>
https://www.enaminestore.com/catalog/EN300-1278974

> <ROCS_ShapeQuery>
amalgated

> <ROCS_TanimotoCombo>
0.853 

> <ROCS_ShapeTanimoto>
0.563 

> <ROCS_ColorTanimoto>
0.291 

> <ROCS_RefTversky>
0.526 

> <ROCS_RefColorTversky>
0.508 

> <ROCS_RefTverskyCombo>
1.033 

> <ROCS_FitTversky>
1.143 

> <ROCS_FitColorTversky>
0.405 

> <ROCS_FitTverskyCombo>
1.548 

> <ROCS_ColorScore>
-3.604

> <ROCS_Overlap>
862.580

> <ROCS_Rank>
184                 

$$$$
untitled-dbase-53106_22
  -OEChem-10092318153D

 41 42  0     0  0  0  0  0  0999 V2000
   -9.0018   -0.4254  -13.5104 C   0  0  0  0  0  0  0  0  0  0  0  0
   -7.9413   -2.6380  -16.6363 C   0  0  0  0  0  0  0  0  0  0  0  0
   -9.5734   -1.2813  -18.0776 C   0  0  0  0  0  0  0  0  0  0  0  0
   -7.3903   -1.2641  -16.2560 C   0  0  0  0  0  0  0  0  0  0  0  0
   -9.8563   -0.6398  -16.7221 C   0  0  0  0  0  0  0  0  0  0  0  0
   -8.0609    1.2128  -16.3619 C   0  0  0  0  0  0  0  0  0  0  0  0
   -8.5631    1.6154  -14.9758 C   0  0  0  0  0  0  0  0  0  0  0  0
   -8.7932   -2.6000  -17.9180 C   0  0  0  0  0  0  0  0  0  0  0  0
   -8.5231   -0.2431  -16.0785 C   0  0  0  0  0  0  0  0  0  0  0  0
   -8.3397   -1.0208  -10.7959 C   0  0  0  0  0  0  0  0  0  0  0  0
   -9.6224    1.0614  -10.2232 C   0  0  0  0  0  0  0  0  0  0  0  0
  -10.7958   -0.8675  -11.3235 C   0  0  0  0  0  0  0  0  0  0  0  0
   -9.4823   -0.0950  -11.2107 C   0  0  0  0  0  0  0  0  0  0  0  0
   -8.7056    0.1990  -14.6951 N   0  0  0  0  0  0  0  0  0  0  0  0
   -7.9626   -2.8312  -19.1015 N   0  0  0  0  0  0  0  0  0  0  0  0
   -9.0988   -1.6437  -13.3850 O   0  0  0  0  0  0  0  0  0  0  0  0
   -9.1721    0.4661  -12.4907 O   0  0  0  0  0  0  0  0  0  0  0  0
   -7.1028   -3.3435  -16.7674 H   0  0  0  0  0  0  0  0  0  0  0  0
   -8.5419   -3.0302  -15.7990 H   0  0  0  0  0  0  0  0  0  0  0  0
  -10.5223   -1.4680  -18.5949 H   0  0  0  0  0  0  0  0  0  0  0  0
   -9.0009   -0.5833  -18.7024 H   0  0  0  0  0  0  0  0  0  0  0  0
   -6.8115   -1.3544  -15.3211 H   0  0  0  0  0  0  0  0  0  0  0  0
   -6.6758   -0.9294  -17.0268 H   0  0  0  0  0  0  0  0  0  0  0  0
  -10.5065    0.2291  -16.8528 H   0  0  0  0  0  0  0  0  0  0  0  0
  -10.3896   -1.3546  -16.0895 H   0  0  0  0  0  0  0  0  0  0  0  0
   -8.5827    1.7148  -17.1827 H   0  0  0  0  0  0  0  0  0  0  0  0
   -6.9849    1.3476  -16.5056 H   0  0  0  0  0  0  0  0  0  0  0  0
   -7.8254    2.1035  -14.3363 H   0  0  0  0  0  0  0  0  0  0  0  0
   -9.5090    2.1592  -14.9634 H   0  0  0  0  0  0  0  0  0  0  0  0
   -9.5286   -3.4304  -17.8723 H   0  0  0  0  0  0  0  0  0  0  0  0
   -8.2358   -1.8522  -11.5022 H   0  0  0  0  0  0  0  0  0  0  0  0
   -7.3855   -0.4863  -10.7453 H   0  0  0  0  0  0  0  0  0  0  0  0
   -8.5369   -1.4705   -9.8160 H   0  0  0  0  0  0  0  0  0  0  0  0
  -10.4411    1.7282  -10.5169 H   0  0  0  0  0  0  0  0  0  0  0  0
   -8.7144    1.6750  -10.2093 H   0  0  0  0  0  0  0  0  0  0  0  0
   -9.8146    0.7035   -9.2065 H   0  0  0  0  0  0  0  0  0  0  0  0
  -11.6156   -0.2036  -11.6210 H   0  0  0  0  0  0  0  0  0  0  0  0
  -10.7251   -1.6787  -12.0554 H   0  0  0  0  0  0  0  0  0  0  0  0
  -11.0805   -1.2956  -10.3555 H   0  0  0  0  0  0  0  0  0  0  0  0
   -7.5118   -3.7082  -18.9953 H   0  0  0  0  0  0  0  0  0  0  0  0
   -8.5545   -2.8333  -19.8973 H   0  0  0  0  0  0  0  0  0  0  0  0
  1 14  1  0  0  0  0
  1 16  2  0  0  0  0
  1 17  1  0  0  0  0
  2  4  1  0  0  0  0
  2  8  1  0  0  0  0
  3  5  1  0  0  0  0
  3  8  1  0  0  0  0
  4  9  1  0  0  0  0
  5  9  1  0  0  0  0
  6  7  1  0  0  0  0
  6  9  1  6  0  0  0
  7 14  1  0  0  0  0
  8 15  1  6  0  0  0
  9 14  1  0  0  0  0
 10 13  1  0  0  0  0
 11 13  1  0  0  0  0
 12 13  1  0  0  0  0
 13 17  1  0  0  0  0
  2 18  1  0  0  0  0
  2 19  1  0  0  0  0
  3 20  1  0  0  0  0
  3 21  1  0  0  0  0
  4 22  1  0  0  0  0
  4 23  1  0  0  0  0
  5 24  1  0  0  0  0
  5 25  1  0  0  0  0
  6 26  1  0  0  0  0
  6 27  1  0  0  0  0
  7 28  1  0  0  0  0
  7 29  1  0  0  0  0
  8 30  1  0  0  0  0
 10 31  1  0  0  0  0
 10 32  1  0  0  0  0
 10 33  1  0  0  0  0
 11 34  1  0  0  0  0
 11 35  1  0  0  0  0
 11 36  1  0  0  0  0
 12 37  1  0  0  0  0
 12 38  1  0  0  0  0
 12 39  1  0  0  0  0
 15 40  1  0  0  0  0
 15 41  1  0  0  0  0
M  END
> <id>
EN300-43382266

> <smiles>
CC(C)(C)OC(=O)N1CC[C@]21CC[C@H](N)CC2

> <IUPAC Name>
tert-butyl (4r,7r)-7-amino-1-azaspiro[3.5]nonane-1-carboxylate

> <Purity>
95

> <URL>
https://www.enaminestore.com/catalog/EN300-43382266

> <ROCS_ShapeQuery>
amalgated

> <ROCS_TanimotoCombo>
0.853 

> <ROCS_ShapeTanimoto>
0.568 

> <ROCS_ColorTanimoto>
0.285 

> <ROCS_RefTversky>
0.536 

> <ROCS_RefColorTversky>
0.415 

> <ROCS_RefTverskyCombo>
0.951 

> <ROCS_FitTversky>
1.119 

> <ROCS_FitColorTversky>
0.476 

> <ROCS_FitTverskyCombo>
1.595 

> <ROCS_ColorScore>
-2.883

> <ROCS_Overlap>
880.379

> <ROCS_Rank>
185                 

$$$$
untitled-dbase-16409_8
  -OEChem-10092318153D

 44 47  0     1  0  0  0  0  0999 V2000
   -9.1598    0.2216  -10.4596 C   0  0  0  0  0  0  0  0  0  0  0  0
  -10.2000   -0.5539  -11.2597 C   0  0  0  0  0  0  0  0  0  0  0  0
   -7.7735    0.1225  -11.0853 C   0  0  0  0  0  0  0  0  0  0  0  0
   -8.9830   -0.4654  -18.7786 C   0  0  0  0  0  0  0  0  0  0  0  0
  -10.0971   -1.4730  -18.4903 C   0  0  0  0  0  0  0  0  0  0  0  0
  -10.2202   -0.1069  -12.7206 C   0  0  0  0  0  0  0  0  0  0  0  0
   -7.7805    0.5161  -12.5637 C   0  0  0  0  0  0  0  0  0  0  0  0
   -7.2219   -1.1316  -17.0156 C   0  0  0  0  0  0  0  0  0  0  0  0
   -9.0745   -2.8009  -16.5269 C   0  0  0  0  0  0  0  0  0  0  0  0
   -8.4873   -1.7385  -13.5803 C   0  0  0  0  0  0  0  0  0  0  0  0
   -8.8970    0.4341  -14.8102 C   0  0  0  0  0  0  0  0  0  0  0  0
   -7.6929   -1.2265  -18.4808 C   0  0  1  0  0  0  0  0  0  0  0  0
   -9.3644   -2.7352  -18.0404 C   0  0  2  0  0  0  0  0  0  0  0  0
   -8.8392   -0.2353  -13.4116 C   0  0  0  0  0  0  0  0  0  0  0  0
   -8.2903   -1.5750  -15.9814 C   0  0  0  0  0  0  0  0  0  0  0  0
   -7.5953   -1.9203  -14.7224 N   0  0  0  0  0  0  0  0  0  0  0  0
   -8.0738   -2.6248  -18.7394 N   0  0  0  0  0  0  0  0  0  0  0  0
   -9.2591   -0.5147  -15.8110 O   0  0  0  0  0  0  0  0  0  0  0  0
   -9.4577    1.2757  -10.4036 H   0  0  0  0  0  0  0  0  0  0  0  0
   -9.1288   -0.1553   -9.4315 H   0  0  0  0  0  0  0  0  0  0  0  0
   -9.9937   -1.6260  -11.1947 H   0  0  0  0  0  0  0  0  0  0  0  0
  -11.1885   -0.3963  -10.8179 H   0  0  0  0  0  0  0  0  0  0  0  0
   -7.0803    0.7758  -10.5396 H   0  0  0  0  0  0  0  0  0  0  0  0
   -7.3882   -0.8989  -10.9709 H   0  0  0  0  0  0  0  0  0  0  0  0
   -9.0217   -0.1823  -19.8380 H   0  0  0  0  0  0  0  0  0  0  0  0
   -9.0845    0.4528  -18.1929 H   0  0  0  0  0  0  0  0  0  0  0  0
  -10.8167   -1.1065  -17.7522 H   0  0  0  0  0  0  0  0  0  0  0  0
  -10.6524   -1.6669  -19.4167 H   0  0  0  0  0  0  0  0  0  0  0  0
  -10.9891   -0.6737  -13.2558 H   0  0  0  0  0  0  0  0  0  0  0  0
  -10.5409    0.9424  -12.7492 H   0  0  0  0  0  0  0  0  0  0  0  0
   -7.9653    1.5990  -12.6316 H   0  0  0  0  0  0  0  0  0  0  0  0
   -6.7764    0.3553  -12.9822 H   0  0  0  0  0  0  0  0  0  0  0  0
   -6.3297   -1.7674  -16.9164 H   0  0  0  0  0  0  0  0  0  0  0  0
   -6.8866   -0.1055  -16.8294 H   0  0  0  0  0  0  0  0  0  0  0  0
  -10.0273   -2.9008  -15.9909 H   0  0  0  0  0  0  0  0  0  0  0  0
   -8.5059   -3.7234  -16.3417 H   0  0  0  0  0  0  0  0  0  0  0  0
   -8.0167   -2.1216  -12.6739 H   0  0  0  0  0  0  0  0  0  0  0  0
   -9.3823   -2.3340  -13.7471 H   0  0  0  0  0  0  0  0  0  0  0  0
   -9.6493    1.2260  -14.8235 H   0  0  0  0  0  0  0  0  0  0  0  0
   -7.9451    0.9017  -15.0680 H   0  0  0  0  0  0  0  0  0  0  0  0
   -6.8808   -0.9125  -19.1453 H   0  0  0  0  0  0  0  0  0  0  0  0
   -9.9017   -3.6390  -18.3474 H   0  0  0  0  0  0  0  0  0  0  0  0
   -6.7700   -1.3496  -14.6112 H   0  0  0  0  0  0  0  0  0  0  0  0
   -8.2322   -2.7418  -19.7413 H   0  0  0  0  0  0  0  0  0  0  0  0
  1  2  1  0  0  0  0
  1  3  1  0  0  0  0
  2  6  1  0  0  0  0
  3  7  1  0  0  0  0
  4  5  1  0  0  0  0
  4 12  1  0  0  0  0
  5 13  1  0  0  0  0
  6 14  1  0  0  0  0
  7 14  1  0  0  0  0
  8 12  1  0  0  0  0
  8 15  1  0  0  0  0
  9 13  1  0  0  0  0
  9 15  1  0  0  0  0
 10 14  1  0  0  0  0
 10 16  1  0  0  0  0
 11 14  1  0  0  0  0
 11 18  1  0  0  0  0
 12 17  1  0  0  0  0
 13 17  1  0  0  0  0
 15 16  1  0  0  0  0
 15 18  1  0  0  0  0
  1 19  1  0  0  0  0
  1 20  1  0  0  0  0
  2 21  1  0  0  0  0
  2 22  1  0  0  0  0
  3 23  1  0  0  0  0
  3 24  1  0  0  0  0
  4 25  1  0  0  0  0
  4 26  1  0  0  0  0
  5 27  1  0  0  0  0
  5 28  1  0  0  0  0
  6 29  1  0  0  0  0
  6 30  1  0  0  0  0
  7 31  1  0  0  0  0
  7 32  1  0  0  0  0
  8 33  1  0  0  0  0
  8 34  1  0  0  0  0
  9 35  1  0  0  0  0
  9 36  1  0  0  0  0
 10 37  1  0  0  0  0
 10 38  1  0  0  0  0
 11 39  1  0  0  0  0
 11 40  1  0  0  0  0
 12 41  1  0  0  0  0
 13 42  1  0  0  0  0
 16 43  1  0  0  0  0
 17 44  1  0  0  0  0
M  END
> <id>
EN300-1279942

> <smiles>
C1CC2CC3(CC1N2)NCC4(CCCCC4)CO3

> <IUPAC Name>
dispiro[8-azabicyclo[3.2.1]octane-3,2'-[1,3]oxazinane-5',1''-cyclohexane]

> <URL>
https://www.enaminestore.com/catalog/EN300-1279942

> <ROCS_ShapeQuery>
amalgated

> <ROCS_TanimotoCombo>
0.853 

> <ROCS_ShapeTanimoto>
0.569 

> <ROCS_ColorTanimoto>
0.284 

> <ROCS_RefTversky>
0.550 

> <ROCS_RefColorTversky>
0.600 

> <ROCS_RefTverskyCombo>
1.150 

> <ROCS_FitTversky>
1.064 

> <ROCS_FitColorTversky>
0.350 

> <ROCS_FitTverskyCombo>
1.414 

> <ROCS_ColorScore>
-4.374

> <ROCS_Overlap>
905.930

> <ROCS_Rank>
186                 

$$$$
untitled-dbase-27975_353
  -OEChem-10092318153D

 47 48  0     1  0  0  0  0  0999 V2000
   -8.1379   -0.4845  -13.5835 C   0  0  0  0  0  0  0  0  0  0  0  0
  -10.1339   -1.7207  -16.7013 C   0  0  0  0  0  0  0  0  0  0  0  0
   -9.9907   -3.0359  -17.4561 C   0  0  0  0  0  0  0  0  0  0  0  0
   -6.9967    1.7946  -16.3867 C   0  0  0  0  0  0  0  0  0  0  0  0
   -9.4372   -0.5104  -17.3273 C   0  0  0  0  0  0  0  0  0  0  0  0
   -7.3928    0.9576  -17.6065 C   0  0  0  0  0  0  0  0  0  0  0  0
   -8.5654   -3.4686  -17.7770 C   0  0  0  0  0  0  0  0  0  0  0  0
   -7.7789    1.4501  -15.1319 C   0  0  0  0  0  0  0  0  0  0  0  0
   -7.2933   -1.4286  -18.4002 C   0  0  0  0  0  0  0  0  0  0  0  0
   -7.3172   -0.8908  -15.8961 C   0  0  0  0  0  0  0  0  0  0  0  0
   -7.8800   -0.5005  -17.2880 C   0  0  2  0  0  0  0  0  0  0  0  0
   -7.7718   -0.6506  -10.7511 C   0  0  0  0  0  0  0  0  0  0  0  0
   -9.3125    1.3289  -10.6210 C   0  0  0  0  0  0  0  0  0  0  0  0
  -10.1447   -0.8436  -11.5677 C   0  0  0  0  0  0  0  0  0  0  0  0
   -8.9371    0.0804  -11.4163 C   0  0  0  0  0  0  0  0  0  0  0  0
   -7.9915   -2.6402  -18.8184 N   0  0  0  0  0  0  0  0  0  0  0  0
   -7.7583    0.0181  -14.8332 N   0  0  0  0  0  0  0  0  0  0  0  0
   -8.1379   -1.6768  -13.2839 O   0  0  0  0  0  0  0  0  0  0  0  0
   -8.5232    0.5070  -12.7192 O   0  0  0  0  0  0  0  0  0  0  0  0
  -11.2195   -1.4799  -16.6571 H   0  0  0  0  0  0  0  0  0  0  0  0
   -9.8434   -1.8425  -15.6332 H   0  0  0  0  0  0  0  0  0  0  0  0
  -10.4544   -3.8379  -16.8545 H   0  0  0  0  0  0  0  0  0  0  0  0
  -10.5860   -2.9985  -18.3863 H   0  0  0  0  0  0  0  0  0  0  0  0
   -5.9160    1.6595  -16.1930 H   0  0  0  0  0  0  0  0  0  0  0  0
   -7.1162    2.8703  -16.6162 H   0  0  0  0  0  0  0  0  0  0  0  0
   -9.7669   -0.4285  -18.3700 H   0  0  0  0  0  0  0  0  0  0  0  0
   -9.8262    0.3822  -16.8270 H   0  0  0  0  0  0  0  0  0  0  0  0
   -8.1669    1.4958  -18.1804 H   0  0  0  0  0  0  0  0  0  0  0  0
   -6.5163    0.9052  -18.2769 H   0  0  0  0  0  0  0  0  0  0  0  0
   -7.9595   -3.3726  -16.8973 H   0  0  0  0  0  0  0  0  0  0  0  0
   -8.5690   -4.4940  -18.0875 H   0  0  0  0  0  0  0  0  0  0  0  0
   -7.3488    1.9667  -14.2566 H   0  0  0  0  0  0  0  0  0  0  0  0
   -8.8159    1.8112  -15.2264 H   0  0  0  0  0  0  0  0  0  0  0  0
   -7.0121   -0.8086  -19.3080 H   0  0  0  0  0  0  0  0  0  0  0  0
   -6.2774   -1.7771  -18.0548 H   0  0  0  0  0  0  0  0  0  0  0  0
   -7.5826   -1.9183  -15.6257 H   0  0  0  0  0  0  0  0  0  0  0  0
   -6.2166   -0.8485  -15.9032 H   0  0  0  0  0  0  0  0  0  0  0  0
   -7.4993   -1.5475  -11.3189 H   0  0  0  0  0  0  0  0  0  0  0  0
   -6.8880   -0.0096  -10.6682 H   0  0  0  0  0  0  0  0  0  0  0  0
   -8.0468   -0.9924   -9.7467 H   0  0  0  0  0  0  0  0  0  0  0  0
  -10.1482    1.8565  -11.0947 H   0  0  0  0  0  0  0  0  0  0  0  0
   -8.4774    2.0380  -10.5905 H   0  0  0  0  0  0  0  0  0  0  0  0
   -9.5961    1.0827   -9.5926 H   0  0  0  0  0  0  0  0  0  0  0  0
  -10.9807   -0.3195  -12.0448 H   0  0  0  0  0  0  0  0  0  0  0  0
   -9.9036   -1.7274  -12.1671 H   0  0  0  0  0  0  0  0  0  0  0  0
  -10.5066   -1.1755  -10.5878 H   0  0  0  0  0  0  0  0  0  0  0  0
   -7.4206   -3.2086  -19.4537 H   0  0  0  0  0  0  0  0  0  0  0  0
  1 17  1  0  0  0  0
  1 18  2  0  0  0  0
  1 19  1  0  0  0  0
  2  3  1  0  0  0  0
  2  5  1  0  0  0  0
  3  7  1  0  0  0  0
  4  6  1  0  0  0  0
  4  8  1  0  0  0  0
  5 11  1  0  0  0  0
  6 11  1  0  0  0  0
  7 16  1  0  0  0  0
  8 17  1  0  0  0  0
  9 11  1  0  0  0  0
  9 16  1  0  0  0  0
 10 11  1  0  0  0  0
 10 17  1  0  0  0  0
 12 15  1  0  0  0  0
 13 15  1  0  0  0  0
 14 15  1  0  0  0  0
 15 19  1  0  0  0  0
  2 20  1  0  0  0  0
  2 21  1  0  0  0  0
  3 22  1  0  0  0  0
  3 23  1  0  0  0  0
  4 24  1  0  0  0  0
  4 25  1  0  0  0  0
  5 26  1  0  0  0  0
  5 27  1  0  0  0  0
  6 28  1  0  0  0  0
  6 29  1  0  0  0  0
  7 30  1  0  0  0  0
  7 31  1  0  0  0  0
  8 32  1  0  0  0  0
  8 33  1  0  0  0  0
  9 34  1  0  0  0  0
  9 35  1  0  0  0  0
 10 36  1  0  0  0  0
 10 37  1  0  0  0  0
 12 38  1  0  0  0  0
 12 39  1  0  0  0  0
 12 40  1  0  0  0  0
 13 41  1  0  0  0  0
 13 42  1  0  0  0  0
 13 43  1  0  0  0  0
 14 44  1  0  0  0  0
 14 45  1  0  0  0  0
 14 46  1  0  0  0  0
 16 47  1  0  0  0  0
M  END
> <id>
EN300-1153657

> <smiles>
CC(C)(C)OC(=O)N1CCCC2(C1)CCCCNC2

> <IUPAC Name>
tert-butyl 2,8-diazaspiro[5.6]dodecane-2-carboxylate

> <CAS>
1782214-47-4

> <URL>
https://www.enaminestore.com/catalog/EN300-1153657

> <ROCS_ShapeQuery>
amalgated

> <ROCS_TanimotoCombo>
0.853 

> <ROCS_ShapeTanimoto>
0.601 

> <ROCS_ColorTanimoto>
0.252 

> <ROCS_RefTversky>
0.571 

> <ROCS_RefColorTversky>
0.377 

> <ROCS_RefTverskyCombo>
0.948 

> <ROCS_FitTversky>
1.095 

> <ROCS_FitColorTversky>
0.433 

> <ROCS_FitTverskyCombo>
1.527 

> <ROCS_ColorScore>
-2.617

> <ROCS_Overlap>
940.163

> <ROCS_Rank>
187                 

$$$$
untitled-dbase-2519_29
  -OEChem-10092318153D

 35 36  0     1  0  0  0  0  0999 V2000
   -9.6784   -0.8002  -15.0463 C   0  0  0  0  0  0  0  0  0  0  0  0
   -9.4259   -2.7988  -18.1236 C   0  0  0  0  0  0  0  0  0  0  0  0
   -9.4278   -2.7394  -16.5955 C   0  0  0  0  0  0  0  0  0  0  0  0
   -8.1002    0.0005  -18.0402 C   0  0  1  0  0  0  0  0  0  0  0  0
   -7.4340   -1.3483  -18.1205 C   0  0  1  0  0  0  0  0  0  0  0  0
   -7.8958   -0.8129  -16.7826 C   0  0  2  0  0  0  0  0  0  0  0  0
   -8.0995   -1.7096  -12.8417 C   0  0  0  0  0  0  0  0  0  0  0  0
   -7.7148    0.7236  -12.3508 C   0  0  0  0  0  0  0  0  0  0  0  0
  -10.0419   -0.2172  -12.2635 C   0  0  0  0  0  0  0  0  0  0  0  0
   -7.3074    1.2438  -18.2533 C   0  0  0  0  0  0  0  0  0  0  0  0
   -8.6784   -0.2995  -12.9482 C   0  0  0  0  0  0  0  0  0  0  0  0
   -8.0977   -2.5405  -18.6891 N   0  0  0  0  0  0  0  0  0  0  0  0
   -9.0208   -1.4193  -16.1098 N   0  0  0  0  0  0  0  0  0  0  0  0
  -10.8657   -0.9617  -14.7732 O   0  0  0  0  0  0  0  0  0  0  0  0
   -8.8439    0.0215  -14.3339 O   0  0  0  0  0  0  0  0  0  0  0  0
   -7.8733    2.3072  -17.6327 F   0  0  0  0  0  0  0  0  0  0  0  0
   -6.0471    1.1190  -17.7717 F   0  0  0  0  0  0  0  0  0  0  0  0
   -7.2080    1.5508  -19.5694 F   0  0  0  0  0  0  0  0  0  0  0  0
   -9.8010   -3.7766  -18.4685 H   0  0  0  0  0  0  0  0  0  0  0  0
  -10.1268   -2.0442  -18.5117 H   0  0  0  0  0  0  0  0  0  0  0  0
  -10.4237   -2.9281  -16.2087 H   0  0  0  0  0  0  0  0  0  0  0  0
   -8.7524   -3.4834  -16.1906 H   0  0  0  0  0  0  0  0  0  0  0  0
   -9.1076    0.0980  -18.4245 H   0  0  0  0  0  0  0  0  0  0  0  0
   -6.3389   -1.3537  -18.2730 H   0  0  0  0  0  0  0  0  0  0  0  0
   -7.1066   -0.5185  -16.1021 H   0  0  0  0  0  0  0  0  0  0  0  0
   -8.7882   -2.4470  -13.2694 H   0  0  0  0  0  0  0  0  0  0  0  0
   -7.1378   -1.7910  -13.3588 H   0  0  0  0  0  0  0  0  0  0  0  0
   -7.9539   -1.9943  -11.7933 H   0  0  0  0  0  0  0  0  0  0  0  0
   -8.1261    1.7367  -12.4251 H   0  0  0  0  0  0  0  0  0  0  0  0
   -6.7667    0.7343  -12.9006 H   0  0  0  0  0  0  0  0  0  0  0  0
   -7.5026    0.5119  -11.2978 H   0  0  0  0  0  0  0  0  0  0  0  0
  -10.4574    0.7941  -12.3398 H   0  0  0  0  0  0  0  0  0  0  0  0
  -10.7575   -0.9189  -12.7042 H   0  0  0  0  0  0  0  0  0  0  0  0
   -9.9542   -0.4355  -11.1931 H   0  0  0  0  0  0  0  0  0  0  0  0
   -7.5025   -3.3718  -18.5436 H   0  0  0  0  0  0  0  0  0  0  0  0
  1 13  1  0  0  0  0
  1 14  2  0  0  0  0
  1 15  1  0  0  0  0
  2  3  1  0  0  0  0
  2 12  1  0  0  0  0
  3 13  1  0  0  0  0
  4  5  1  0  0  0  0
  4  6  1  0  0  0  0
  4 10  1  0  0  0  0
  5  6  1  0  0  0  0
  5 12  1  0  0  0  0
  6 13  1  0  0  0  0
  7 11  1  0  0  0  0
  8 11  1  0  0  0  0
  9 11  1  0  0  0  0
 10 16  1  0  0  0  0
 10 17  1  0  0  0  0
 10 18  1  0  0  0  0
 11 15  1  0  0  0  0
  2 19  1  0  0  0  0
  2 20  1  0  0  0  0
  3 21  1  0  0  0  0
  3 22  1  0  0  0  0
  4 23  1  0  0  0  0
  5 24  1  0  0  0  0
  6 25  1  0  0  0  0
  7 26  1  0  0  0  0
  7 27  1  0  0  0  0
  7 28  1  0  0  0  0
  8 29  1  0  0  0  0
  8 30  1  0  0  0  0
  8 31  1  0  0  0  0
  9 32  1  0  0  0  0
  9 33  1  0  0  0  0
  9 34  1  0  0  0  0
 12 35  1  0  0  0  0
M  END
> <id>
EN300-89357

> <smiles>
CC(C)(C)OC(=O)N1CCNC2C(C21)C(F)(F)F

> <MDLNUMBER>
MFCD16040172

> <IUPAC Name>
tert-butyl 7-(trifluoromethyl)-2,5-diazabicyclo[4.1.0]heptane-2-carboxylate

> <CAS>
1235439-95-8

> <URL>
https://www.enaminestore.com/catalog/EN300-89357

> <ROCS_ShapeQuery>
amalgated

> <ROCS_TanimotoCombo>
0.853 

> <ROCS_ShapeTanimoto>
0.549 

> <ROCS_ColorTanimoto>
0.304 

> <ROCS_RefTversky>
0.536 

> <ROCS_RefColorTversky>
0.491 

> <ROCS_RefTverskyCombo>
1.027 

> <ROCS_FitTversky>
1.044 

> <ROCS_FitColorTversky>
0.444 

> <ROCS_FitTverskyCombo>
1.488 

> <ROCS_ColorScore>
-3.454

> <ROCS_Overlap>
882.470

> <ROCS_Rank>
188                 

$$$$
untitled-dbase-51511_29
  -OEChem-10092318153D

 35 36  0     1  0  0  0  0  0999 V2000
   -9.6784   -0.8002  -15.0463 C   0  0  0  0  0  0  0  0  0  0  0  0
   -9.4259   -2.7988  -18.1236 C   0  0  0  0  0  0  0  0  0  0  0  0
   -9.4278   -2.7394  -16.5955 C   0  0  0  0  0  0  0  0  0  0  0  0
   -8.1002    0.0005  -18.0402 C   0  0  1  0  0  0  0  0  0  0  0  0
   -7.4340   -1.3483  -18.1205 C   0  0  1  0  0  0  0  0  0  0  0  0
   -7.8958   -0.8129  -16.7826 C   0  0  2  0  0  0  0  0  0  0  0  0
   -8.0995   -1.7096  -12.8417 C   0  0  0  0  0  0  0  0  0  0  0  0
   -7.7148    0.7236  -12.3508 C   0  0  0  0  0  0  0  0  0  0  0  0
  -10.0419   -0.2172  -12.2635 C   0  0  0  0  0  0  0  0  0  0  0  0
   -7.3074    1.2438  -18.2533 C   0  0  0  0  0  0  0  0  0  0  0  0
   -8.6784   -0.2995  -12.9482 C   0  0  0  0  0  0  0  0  0  0  0  0
   -8.0977   -2.5405  -18.6891 N   0  0  0  0  0  0  0  0  0  0  0  0
   -9.0208   -1.4193  -16.1098 N   0  0  0  0  0  0  0  0  0  0  0  0
  -10.8657   -0.9617  -14.7732 O   0  0  0  0  0  0  0  0  0  0  0  0
   -8.8439    0.0215  -14.3339 O   0  0  0  0  0  0  0  0  0  0  0  0
   -7.8733    2.3072  -17.6327 F   0  0  0  0  0  0  0  0  0  0  0  0
   -6.0471    1.1190  -17.7717 F   0  0  0  0  0  0  0  0  0  0  0  0
   -7.2080    1.5508  -19.5694 F   0  0  0  0  0  0  0  0  0  0  0  0
   -9.8010   -3.7766  -18.4685 H   0  0  0  0  0  0  0  0  0  0  0  0
  -10.1268   -2.0442  -18.5117 H   0  0  0  0  0  0  0  0  0  0  0  0
  -10.4237   -2.9281  -16.2087 H   0  0  0  0  0  0  0  0  0  0  0  0
   -8.7524   -3.4834  -16.1906 H   0  0  0  0  0  0  0  0  0  0  0  0
   -9.1076    0.0980  -18.4245 H   0  0  0  0  0  0  0  0  0  0  0  0
   -6.3389   -1.3537  -18.2730 H   0  0  0  0  0  0  0  0  0  0  0  0
   -7.1066   -0.5185  -16.1021 H   0  0  0  0  0  0  0  0  0  0  0  0
   -8.7882   -2.4470  -13.2694 H   0  0  0  0  0  0  0  0  0  0  0  0
   -7.1378   -1.7910  -13.3588 H   0  0  0  0  0  0  0  0  0  0  0  0
   -7.9539   -1.9943  -11.7933 H   0  0  0  0  0  0  0  0  0  0  0  0
   -8.1261    1.7367  -12.4251 H   0  0  0  0  0  0  0  0  0  0  0  0
   -6.7667    0.7343  -12.9006 H   0  0  0  0  0  0  0  0  0  0  0  0
   -7.5026    0.5119  -11.2978 H   0  0  0  0  0  0  0  0  0  0  0  0
  -10.4574    0.7941  -12.3398 H   0  0  0  0  0  0  0  0  0  0  0  0
  -10.7575   -0.9189  -12.7042 H   0  0  0  0  0  0  0  0  0  0  0  0
   -9.9542   -0.4355  -11.1931 H   0  0  0  0  0  0  0  0  0  0  0  0
   -7.5025   -3.3718  -18.5436 H   0  0  0  0  0  0  0  0  0  0  0  0
  1 13  1  0  0  0  0
  1 14  2  0  0  0  0
  1 15  1  0  0  0  0
  2  3  1  0  0  0  0
  2 12  1  0  0  0  0
  3 13  1  0  0  0  0
  4  5  1  0  0  0  0
  4  6  1  0  0  0  0
  4 10  1  0  0  0  0
  5  6  1  0  0  0  0
  5 12  1  0  0  0  0
  6 13  1  0  0  0  0
  7 11  1  0  0  0  0
  8 11  1  0  0  0  0
  9 11  1  0  0  0  0
 10 16  1  0  0  0  0
 10 17  1  0  0  0  0
 10 18  1  0  0  0  0
 11 15  1  0  0  0  0
  2 19  1  0  0  0  0
  2 20  1  0  0  0  0
  3 21  1  0  0  0  0
  3 22  1  0  0  0  0
  4 23  1  0  0  0  0
  5 24  1  0  0  0  0
  6 25  1  0  0  0  0
  7 26  1  0  0  0  0
  7 27  1  0  0  0  0
  7 28  1  0  0  0  0
  8 29  1  0  0  0  0
  8 30  1  0  0  0  0
  8 31  1  0  0  0  0
  9 32  1  0  0  0  0
  9 33  1  0  0  0  0
  9 34  1  0  0  0  0
 12 35  1  0  0  0  0
M  END
> <id>
EN300-43346552

> <smiles>
Cl.CC(C)(C)OC(=O)N1CCNC2C(C21)C(F)(F)F

> <IUPAC Name>
tert-butyl 7-(trifluoromethyl)-2,5-diazabicyclo[4.1.0]heptane-2-carboxylate hydrochloride

> <Purity>
95

> <URL>
https://www.enaminestore.com/catalog/EN300-43346552

> <ROCS_ShapeQuery>
amalgated

> <ROCS_TanimotoCombo>
0.853 

> <ROCS_ShapeTanimoto>
0.549 

> <ROCS_ColorTanimoto>
0.304 

> <ROCS_RefTversky>
0.536 

> <ROCS_RefColorTversky>
0.491 

> <ROCS_RefTverskyCombo>
1.027 

> <ROCS_FitTversky>
1.044 

> <ROCS_FitColorTversky>
0.444 

> <ROCS_FitTverskyCombo>
1.488 

> <ROCS_ColorScore>
-3.454

> <ROCS_Overlap>
882.470

> <ROCS_Rank>
189                 

$$$$
untitled-dbase-14615_59
  -OEChem-10092318153D

 43 44  0     1  0  0  0  0  0999 V2000
   -8.0484    0.3190  -17.5181 C   0  0  0  0  0  0  0  0  0  0  0  0
   -8.4778   -0.4091  -13.3002 C   0  0  0  0  0  0  0  0  0  0  0  0
   -7.8247    1.4273  -16.5159 C   0  0  0  0  0  0  0  0  0  0  0  0
   -8.5601    1.1306  -15.2228 C   0  0  0  0  0  0  0  0  0  0  0  0
   -9.2483   -2.9802  -18.0596 C   0  0  0  0  0  0  0  0  0  0  0  0
   -7.1661   -2.0006  -17.8627 C   0  0  0  0  0  0  0  0  0  0  0  0
   -7.5698   -1.1508  -15.5347 C   0  0  0  0  0  0  0  0  0  0  0  0
   -9.5075   -1.7198  -17.2327 C   0  0  2  0  0  0  0  0  0  0  0  0
   -8.0903   -1.1250  -16.9846 C   0  0  1  0  0  0  0  0  0  0  0  0
  -10.3793   -2.0354  -16.0231 C   0  0  0  0  0  0  0  0  0  0  0  0
   -8.7190    0.5234  -10.6064 C   0  0  0  0  0  0  0  0  0  0  0  0
  -11.1292    0.9542  -11.1671 C   0  0  0  0  0  0  0  0  0  0  0  0
  -10.2254   -1.3877  -11.2489 C   0  0  0  0  0  0  0  0  0  0  0  0
   -9.9057    0.0906  -11.4661 C   0  0  0  0  0  0  0  0  0  0  0  0
   -8.0601   -2.6355  -18.8313 N   0  0  0  0  0  0  0  0  0  0  0  0
   -8.2119   -0.1688  -14.6535 N   0  0  0  0  0  0  0  0  0  0  0  0
   -8.1590    0.5778  -18.7180 O   0  0  0  0  0  0  0  0  0  0  0  0
   -7.8136   -1.1635  -12.5913 O   0  0  0  0  0  0  0  0  0  0  0  0
   -9.5659    0.2860  -12.8435 O   0  0  0  0  0  0  0  0  0  0  0  0
   -6.7478    1.5256  -16.3423 H   0  0  0  0  0  0  0  0  0  0  0  0
   -8.1858    2.3705  -16.9395 H   0  0  0  0  0  0  0  0  0  0  0  0
   -8.3745    1.9367  -14.4925 H   0  0  0  0  0  0  0  0  0  0  0  0
   -9.6510    1.1173  -15.3983 H   0  0  0  0  0  0  0  0  0  0  0  0
   -9.0479   -3.8436  -17.4361 H   0  0  0  0  0  0  0  0  0  0  0  0
  -10.0847   -3.1951  -18.7133 H   0  0  0  0  0  0  0  0  0  0  0  0
   -6.4283   -1.3861  -18.3928 H   0  0  0  0  0  0  0  0  0  0  0  0
   -6.6106   -2.7501  -17.2916 H   0  0  0  0  0  0  0  0  0  0  0  0
   -7.7723   -2.1368  -15.0683 H   0  0  0  0  0  0  0  0  0  0  0  0
   -6.4681   -1.0409  -15.5017 H   0  0  0  0  0  0  0  0  0  0  0  0
  -10.0783   -1.0307  -17.8701 H   0  0  0  0  0  0  0  0  0  0  0  0
   -9.8568   -2.7197  -15.3542 H   0  0  0  0  0  0  0  0  0  0  0  0
  -11.3115   -2.4999  -16.3455 H   0  0  0  0  0  0  0  0  0  0  0  0
  -10.6108   -1.1187  -15.4801 H   0  0  0  0  0  0  0  0  0  0  0  0
   -7.8387   -0.0941  -10.8180 H   0  0  0  0  0  0  0  0  0  0  0  0
   -8.4574    1.5725  -10.7787 H   0  0  0  0  0  0  0  0  0  0  0  0
   -8.9396    0.3923   -9.5408 H   0  0  0  0  0  0  0  0  0  0  0  0
  -11.9831    0.6472  -11.7818 H   0  0  0  0  0  0  0  0  0  0  0  0
  -10.9347    2.0047  -11.4118 H   0  0  0  0  0  0  0  0  0  0  0  0
  -11.4201    0.8917  -10.1135 H   0  0  0  0  0  0  0  0  0  0  0  0
  -11.0767   -1.6984  -11.8655 H   0  0  0  0  0  0  0  0  0  0  0  0
   -9.3701   -2.0256  -11.4941 H   0  0  0  0  0  0  0  0  0  0  0  0
  -10.5128   -1.5754  -10.2080 H   0  0  0  0  0  0  0  0  0  0  0  0
   -7.6300   -3.4851  -19.1672 H   0  0  0  0  0  0  0  0  0  0  0  0
  1  3  1  0  0  0  0
  1  9  1  0  0  0  0
  1 17  2  0  0  0  0
  2 16  1  0  0  0  0
  2 18  2  0  0  0  0
  2 19  1  0  0  0  0
  3  4  1  0  0  0  0
  4 16  1  0  0  0  0
  5  8  1  0  0  0  0
  5 15  1  0  0  0  0
  6  9  1  0  0  0  0
  6 15  1  0  0  0  0
  7  9  1  0  0  0  0
  7 16  1  0  0  0  0
  8  9  1  0  0  0  0
  8 10  1  0  0  0  0
 11 14  1  0  0  0  0
 12 14  1  0  0  0  0
 13 14  1  0  0  0  0
 14 19  1  0  0  0  0
  3 20  1  0  0  0  0
  3 21  1  0  0  0  0
  4 22  1  0  0  0  0
  4 23  1  0  0  0  0
  5 24  1  0  0  0  0
  5 25  1  0  0  0  0
  6 26  1  0  0  0  0
  6 27  1  0  0  0  0
  7 28  1  0  0  0  0
  7 29  1  0  0  0  0
  8 30  1  0  0  0  0
 10 31  1  0  0  0  0
 10 32  1  0  0  0  0
 10 33  1  0  0  0  0
 11 34  1  0  0  0  0
 11 35  1  0  0  0  0
 11 36  1  0  0  0  0
 12 37  1  0  0  0  0
 12 38  1  0  0  0  0
 12 39  1  0  0  0  0
 13 40  1  0  0  0  0
 13 41  1  0  0  0  0
 13 42  1  0  0  0  0
 15 43  1  0  0  0  0
M  END
> <id>
EN300-1085402

> <smiles>
CC1CNCC21CN(CCC2=O)C(=O)OC(C)(C)C

> <IUPAC Name>
tert-butyl 4-methyl-10-oxo-2,7-diazaspiro[4.5]decane-7-carboxylate

> <CAS>
2137577-12-7

> <URL>
https://www.enaminestore.com/catalog/EN300-1085402

> <ROCS_ShapeQuery>
amalgated

> <ROCS_TanimotoCombo>
0.852 

> <ROCS_ShapeTanimoto>
0.641 

> <ROCS_ColorTanimoto>
0.211 

> <ROCS_RefTversky>
0.599 

> <ROCS_RefColorTversky>
0.349 

> <ROCS_RefTverskyCombo>
0.948 

> <ROCS_FitTversky>
1.124 

> <ROCS_FitColorTversky>
0.349 

> <ROCS_FitTverskyCombo>
1.473 

> <ROCS_ColorScore>
-2.443

> <ROCS_Overlap>
985.978

> <ROCS_Rank>
190                 

$$$$
untitled-dbase-13920_62
  -OEChem-10092318153D

 35 35  0     1  0  0  0  0  0999 V2000
   -8.5013   -0.1937  -14.3887 C   0  0  0  0  0  0  0  0  0  0  0  0
   -8.6236   -0.6585  -18.1082 C   0  0  0  0  0  0  0  0  0  0  0  0
   -7.8262   -0.3708  -16.8367 C   0  0  0  0  0  0  0  0  0  0  0  0
   -9.4725   -1.9409  -15.8093 C   0  0  0  0  0  0  0  0  0  0  0  0
   -8.9560   -2.1474  -18.2764 C   0  0  2  0  0  0  0  0  0  0  0  0
   -9.0427   -2.8736  -16.9301 C   0  0  2  0  0  0  0  0  0  0  0  0
  -10.2526   -1.1880  -11.1809 C   0  0  0  0  0  0  0  0  0  0  0  0
   -7.9657   -0.1691  -11.3230 C   0  0  0  0  0  0  0  0  0  0  0  0
   -9.9791    1.1629  -12.0015 C   0  0  0  0  0  0  0  0  0  0  0  0
   -9.3510   -0.2353  -11.9744 C   0  0  0  0  0  0  0  0  0  0  0  0
   -8.5249   -0.8371  -15.6280 N   0  0  0  0  0  0  0  0  0  0  0  0
   -7.9420   -2.8112  -19.0996 N   0  0  0  0  0  0  0  0  0  0  0  0
   -9.2132   -0.7256  -13.3331 N   0  0  0  0  0  0  0  0  0  0  0  0
   -7.8670    0.8553  -14.2096 O   0  0  0  0  0  0  0  0  0  0  0  0
   -9.9564   -3.8782  -17.0373 F   0  0  0  0  0  0  0  0  0  0  0  0
   -9.5589   -0.0824  -18.0788 H   0  0  0  0  0  0  0  0  0  0  0  0
   -8.0665   -0.2916  -18.9805 H   0  0  0  0  0  0  0  0  0  0  0  0
   -6.8605   -0.8846  -16.8608 H   0  0  0  0  0  0  0  0  0  0  0  0
   -7.6176    0.6995  -16.7744 H   0  0  0  0  0  0  0  0  0  0  0  0
  -10.4641   -1.5623  -16.0601 H   0  0  0  0  0  0  0  0  0  0  0  0
   -9.5346   -2.4723  -14.8544 H   0  0  0  0  0  0  0  0  0  0  0  0
   -9.9219   -2.2371  -18.7935 H   0  0  0  0  0  0  0  0  0  0  0  0
   -8.0837   -3.3368  -16.6827 H   0  0  0  0  0  0  0  0  0  0  0  0
  -11.2515   -1.2526  -11.6280 H   0  0  0  0  0  0  0  0  0  0  0  0
   -9.8329   -2.1995  -11.1478 H   0  0  0  0  0  0  0  0  0  0  0  0
  -10.3815   -0.8419  -10.1488 H   0  0  0  0  0  0  0  0  0  0  0  0
   -7.3017    0.5073  -11.8738 H   0  0  0  0  0  0  0  0  0  0  0  0
   -7.4864   -1.1550  -11.3121 H   0  0  0  0  0  0  0  0  0  0  0  0
   -8.0276    0.1873  -10.2888 H   0  0  0  0  0  0  0  0  0  0  0  0
   -9.3537    1.8661  -12.5638 H   0  0  0  0  0  0  0  0  0  0  0  0
  -10.9706    1.1459  -12.4673 H   0  0  0  0  0  0  0  0  0  0  0  0
  -10.0901    1.5668  -10.9884 H   0  0  0  0  0  0  0  0  0  0  0  0
   -8.2023   -3.7627  -19.2017 H   0  0  0  0  0  0  0  0  0  0  0  0
   -7.9151   -2.3566  -19.9807 H   0  0  0  0  0  0  0  0  0  0  0  0
   -9.7405   -1.6289  -13.5427 H   0  0  0  0  0  0  0  0  0  0  0  0
  1 11  1  0  0  0  0
  1 13  1  0  0  0  0
  1 14  2  0  0  0  0
  2  3  1  0  0  0  0
  2  5  1  0  0  0  0
  3 11  1  0  0  0  0
  4  6  1  0  0  0  0
  4 11  1  0  0  0  0
  5  6  1  0  0  0  0
  5 12  1  0  0  0  0
  6 15  1  0  0  0  0
  7 10  1  0  0  0  0
  8 10  1  0  0  0  0
  9 10  1  0  0  0  0
 10 13  1  0  0  0  0
  2 16  1  0  0  0  0
  2 17  1  0  0  0  0
  3 18  1  0  0  0  0
  3 19  1  0  0  0  0
  4 20  1  0  0  0  0
  4 21  1  0  0  0  0
  5 22  1  0  0  0  0
  6 23  1  0  0  0  0
  7 24  1  0  0  0  0
  7 25  1  0  0  0  0
  7 26  1  0  0  0  0
  8 27  1  0  0  0  0
  8 28  1  0  0  0  0
  8 29  1  0  0  0  0
  9 30  1  0  0  0  0
  9 31  1  0  0  0  0
  9 32  1  0  0  0  0
 12 33  1  0  0  0  0
 12 34  1  0  0  0  0
 13 35  1  0  0  0  0
M  END
> <id>
EN300-763502

> <smiles>
CC(C)(C)NC(=O)N1CCC(N)C(F)C1

> <MDLNUMBER>
MFCD31457523

> <IUPAC Name>
4-amino-N-tert-butyl-3-fluoropiperidine-1-carboxamide

> <CAS>
2138436-57-2

> <URL>
https://www.enaminestore.com/catalog/EN300-763502

> <ROCS_ShapeQuery>
amalgated

> <ROCS_TanimotoCombo>
0.852 

> <ROCS_ShapeTanimoto>
0.568 

> <ROCS_ColorTanimoto>
0.284 

> <ROCS_RefTversky>
0.515 

> <ROCS_RefColorTversky>
0.414 

> <ROCS_RefTverskyCombo>
0.929 

> <ROCS_FitTversky>
1.224 

> <ROCS_FitColorTversky>
0.476 

> <ROCS_FitTverskyCombo>
1.700 

> <ROCS_ColorScore>
-2.877

> <ROCS_Overlap>
842.572

> <ROCS_Rank>
191                 

$$$$
untitled-dbase-45684_9
  -OEChem-10092318153D

 40 42  0     0  0  0  0  0  0999 V2000
   -9.1044   -1.7005  -15.9348 C   0  0  0  0  0  0  0  0  0  0  0  0
   -9.1758   -2.6764  -16.9298 C   0  0  0  0  0  0  0  0  0  0  0  0
   -8.0026   -1.2249  -18.4733 C   0  0  0  0  0  0  0  0  0  0  0  0
   -7.9235   -0.2395  -17.4887 C   0  0  0  0  0  0  0  0  0  0  0  0
   -8.4785   -0.4956  -16.2306 C   0  0  0  0  0  0  0  0  0  0  0  0
   -8.6278   -2.4410  -18.1936 C   0  0  0  0  0  0  0  0  0  0  0  0
   -8.7023    0.7442  -14.0745 C   0  0  0  0  0  0  0  0  0  0  0  0
   -6.2478    2.6967  -18.6437 C   0  0  0  0  0  0  0  0  0  0  0  0
   -5.8247    1.3455  -18.0356 C   0  0  0  0  0  0  0  0  0  0  0  0
   -7.6880    2.1508  -18.6907 C   0  0  0  0  0  0  0  0  0  0  0  0
   -7.5602    1.7174  -16.1138 C   0  0  0  0  0  0  0  0  0  0  0  0
   -7.2933    1.1770  -17.5379 C   0  0  0  0  0  0  0  0  0  0  0  0
  -10.5606    0.0638  -12.0035 C   0  0  0  0  0  0  0  0  0  0  0  0
   -9.0910   -1.9315  -11.5932 C   0  0  0  0  0  0  0  0  0  0  0  0
   -8.1725    0.3845  -11.2762 C   0  0  0  0  0  0  0  0  0  0  0  0
   -9.1368   -0.4853  -12.0815 C   0  0  0  0  0  0  0  0  0  0  0  0
   -8.2835    0.6328  -15.3983 N   0  0  0  0  0  0  0  0  0  0  0  0
   -9.0219    1.7827  -13.5030 O   0  0  0  0  0  0  0  0  0  0  0  0
   -8.7203   -0.4792  -13.4520 O   0  0  0  0  0  0  0  0  0  0  0  0
   -8.7330   -3.7750  -19.5291 Br  0  0  0  0  0  0  0  0  0  0  0  0
   -9.5384   -1.9133  -14.9658 H   0  0  0  0  0  0  0  0  0  0  0  0
   -9.6645   -3.6213  -16.7048 H   0  0  0  0  0  0  0  0  0  0  0  0
   -7.5738   -1.0332  -19.4534 H   0  0  0  0  0  0  0  0  0  0  0  0
   -6.1190    3.5473  -17.9646 H   0  0  0  0  0  0  0  0  0  0  0  0
   -5.8014    2.9435  -19.6101 H   0  0  0  0  0  0  0  0  0  0  0  0
   -5.5152    0.6105  -18.7887 H   0  0  0  0  0  0  0  0  0  0  0  0
   -5.0480    1.3988  -17.2676 H   0  0  0  0  0  0  0  0  0  0  0  0
   -8.4738    2.8793  -18.4719 H   0  0  0  0  0  0  0  0  0  0  0  0
   -7.9316    1.6549  -19.6382 H   0  0  0  0  0  0  0  0  0  0  0  0
   -6.6381    1.9336  -15.5628 H   0  0  0  0  0  0  0  0  0  0  0  0
   -8.1949    2.6105  -16.1112 H   0  0  0  0  0  0  0  0  0  0  0  0
  -10.5976    1.1017  -12.3532 H   0  0  0  0  0  0  0  0  0  0  0  0
  -11.2557   -0.5308  -12.6051 H   0  0  0  0  0  0  0  0  0  0  0  0
  -10.9198    0.0734  -10.9681 H   0  0  0  0  0  0  0  0  0  0  0  0
   -8.0713   -2.3296  -11.6475 H   0  0  0  0  0  0  0  0  0  0  0  0
   -9.7086   -2.5774  -12.2278 H   0  0  0  0  0  0  0  0  0  0  0  0
   -9.4435   -2.0207  -10.5606 H   0  0  0  0  0  0  0  0  0  0  0  0
   -7.1511   -0.0092  -11.3320 H   0  0  0  0  0  0  0  0  0  0  0  0
   -8.1646    1.4182  -11.6369 H   0  0  0  0  0  0  0  0  0  0  0  0
   -8.4449    0.3881  -10.2146 H   0  0  0  0  0  0  0  0  0  0  0  0
  1  2  1  0  0  0  0
  1  5  2  0  0  0  0
  2  6  2  0  0  0  0
  3  4  2  0  0  0  0
  3  6  1  0  0  0  0
  4  5  1  0  0  0  0
  4 12  1  0  0  0  0
  5 17  1  0  0  0  0
  6 20  1  0  0  0  0
  7 17  1  0  0  0  0
  7 18  2  0  0  0  0
  7 19  1  0  0  0  0
  8  9  1  0  0  0  0
  8 10  1  0  0  0  0
  9 12  1  0  0  0  0
 10 12  1  0  0  0  0
 11 12  1  0  0  0  0
 11 17  1  0  0  0  0
 13 16  1  0  0  0  0
 14 16  1  0  0  0  0
 15 16  1  0  0  0  0
 16 19  1  0  0  0  0
  1 21  1  0  0  0  0
  2 22  1  0  0  0  0
  3 23  1  0  0  0  0
  8 24  1  0  0  0  0
  8 25  1  0  0  0  0
  9 26  1  0  0  0  0
  9 27  1  0  0  0  0
 10 28  1  0  0  0  0
 10 29  1  0  0  0  0
 11 30  1  0  0  0  0
 11 31  1  0  0  0  0
 13 32  1  0  0  0  0
 13 33  1  0  0  0  0
 13 34  1  0  0  0  0
 14 35  1  0  0  0  0
 14 36  1  0  0  0  0
 14 37  1  0  0  0  0
 15 38  1  0  0  0  0
 15 39  1  0  0  0  0
 15 40  1  0  0  0  0
M  END
> <id>
EN300-28296723

> <smiles>
CC(C)(C)OC(=O)N1CC2(CCC2)C=3C=C(Br)C=CC13

> <IUPAC Name>
tert-butyl 5'-bromo-1',2'-dihydrospiro[cyclobutane-1,3'-indole]-1'-carboxylate

> <CAS>
2680690-60-0

> <URL>
https://www.enaminestore.com/catalog/EN300-28296723

> <ROCS_ShapeQuery>
amalgated

> <ROCS_TanimotoCombo>
0.852 

> <ROCS_ShapeTanimoto>
0.677 

> <ROCS_ColorTanimoto>
0.175 

> <ROCS_RefTversky>
0.632 

> <ROCS_RefColorTversky>
0.279 

> <ROCS_RefTverskyCombo>
0.910 

> <ROCS_FitTversky>
1.120 

> <ROCS_FitColorTversky>
0.319 

> <ROCS_FitTverskyCombo>
1.439 

> <ROCS_ColorScore>
-1.936

> <ROCS_Overlap>
1042.188

> <ROCS_Rank>
192                 

$$$$
untitled-dbase-34747_128
  -OEChem-10092318153D

 42 43  0     1  0  0  0  0  0999 V2000
   -8.4646   -0.5787  -13.4881 C   0  0  0  0  0  0  0  0  0  0  0  0
   -9.8908   -2.5373  -17.2032 C   0  0  0  0  0  0  0  0  0  0  0  0
   -9.6167   -1.0328  -17.2403 C   0  0  0  0  0  0  0  0  0  0  0  0
   -8.7466   -3.3691  -17.7852 C   0  0  0  0  0  0  0  0  0  0  0  0
   -8.0682    1.2958  -15.1042 C   0  0  0  0  0  0  0  0  0  0  0  0
   -7.3470   -1.4495  -18.2686 C   0  0  0  0  0  0  0  0  0  0  0  0
   -7.5440   -1.0379  -15.7533 C   0  0  0  0  0  0  0  0  0  0  0  0
   -7.4074    1.5229  -16.4531 C   0  0  0  0  0  0  0  0  0  0  0  0
   -8.1160   -0.6935  -17.1505 C   0  0  2  0  0  0  0  0  0  0  0  0
   -8.1968   -0.6295  -10.6409 C   0  0  0  0  0  0  0  0  0  0  0  0
   -9.7661    1.3318  -10.6424 C   0  0  0  0  0  0  0  0  0  0  0  0
  -10.5366   -0.8871  -11.5317 C   0  0  0  0  0  0  0  0  0  0  0  0
   -9.3470    0.0588  -11.3745 C   0  0  0  0  0  0  0  0  0  0  0  0
   -8.0150   -2.6392  -18.8143 N   0  0  0  0  0  0  0  0  0  0  0  0
   -8.0453   -0.1176  -14.7365 N   0  0  0  0  0  0  0  0  0  0  0  0
   -8.4593   -1.7588  -13.1445 O   0  0  0  0  0  0  0  0  0  0  0  0
   -8.0122    0.7141  -17.4570 O   0  0  0  0  0  0  0  0  0  0  0  0
   -8.8926    0.4405  -12.6779 O   0  0  0  0  0  0  0  0  0  0  0  0
  -10.0880   -2.8543  -16.1656 H   0  0  0  0  0  0  0  0  0  0  0  0
  -10.8168   -2.7518  -17.7611 H   0  0  0  0  0  0  0  0  0  0  0  0
  -10.0249   -0.6166  -18.1746 H   0  0  0  0  0  0  0  0  0  0  0  0
  -10.1890   -0.5485  -16.4368 H   0  0  0  0  0  0  0  0  0  0  0  0
   -8.0544   -3.6474  -16.9814 H   0  0  0  0  0  0  0  0  0  0  0  0
   -9.1358   -4.3088  -18.1986 H   0  0  0  0  0  0  0  0  0  0  0  0
   -7.5142    1.8293  -14.3172 H   0  0  0  0  0  0  0  0  0  0  0  0
   -9.0948    1.6871  -15.1062 H   0  0  0  0  0  0  0  0  0  0  0  0
   -7.1080   -0.7503  -19.0975 H   0  0  0  0  0  0  0  0  0  0  0  0
   -6.3475   -1.7480  -17.8924 H   0  0  0  0  0  0  0  0  0  0  0  0
   -7.7398   -2.0792  -15.4775 H   0  0  0  0  0  0  0  0  0  0  0  0
   -6.4516   -0.9114  -15.7554 H   0  0  0  0  0  0  0  0  0  0  0  0
   -7.4399    2.5765  -16.7452 H   0  0  0  0  0  0  0  0  0  0  0  0
   -6.3526    1.2392  -16.3952 H   0  0  0  0  0  0  0  0  0  0  0  0
   -7.8930   -1.5437  -11.1633 H   0  0  0  0  0  0  0  0  0  0  0  0
   -7.3248    0.0266  -10.5524 H   0  0  0  0  0  0  0  0  0  0  0  0
   -8.5029   -0.9360   -9.6341 H   0  0  0  0  0  0  0  0  0  0  0  0
  -10.5911    1.8290  -11.1653 H   0  0  0  0  0  0  0  0  0  0  0  0
   -8.9416    2.0532  -10.6105 H   0  0  0  0  0  0  0  0  0  0  0  0
  -10.0829    1.1217   -9.6157 H   0  0  0  0  0  0  0  0  0  0  0  0
  -11.3618   -0.3936  -12.0579 H   0  0  0  0  0  0  0  0  0  0  0  0
  -10.2633   -1.7900  -12.0873 H   0  0  0  0  0  0  0  0  0  0  0  0
  -10.9289   -1.1859  -10.5529 H   0  0  0  0  0  0  0  0  0  0  0  0
   -7.3171   -3.2544  -19.2375 H   0  0  0  0  0  0  0  0  0  0  0  0
  1 15  1  0  0  0  0
  1 16  2  0  0  0  0
  1 18  1  0  0  0  0
  2  3  1  0  0  0  0
  2  4  1  0  0  0  0
  3  9  1  0  0  0  0
  4 14  1  0  0  0  0
  5  8  1  0  0  0  0
  5 15  1  0  0  0  0
  6  9  1  0  0  0  0
  6 14  1  0  0  0  0
  7  9  1  0  0  0  0
  7 15  1  0  0  0  0
  8 17  1  0  0  0  0
  9 17  1  0  0  0  0
 10 13  1  0  0  0  0
 11 13  1  0  0  0  0
 12 13  1  0  0  0  0
 13 18  1  0  0  0  0
  2 19  1  0  0  0  0
  2 20  1  0  0  0  0
  3 21  1  0  0  0  0
  3 22  1  0  0  0  0
  4 23  1  0  0  0  0
  4 24  1  0  0  0  0
  5 25  1  0  0  0  0
  5 26  1  0  0  0  0
  6 27  1  0  0  0  0
  6 28  1  0  0  0  0
  7 29  1  0  0  0  0
  7 30  1  0  0  0  0
  8 31  1  0  0  0  0
  8 32  1  0  0  0  0
 10 33  1  0  0  0  0
 10 34  1  0  0  0  0
 10 35  1  0  0  0  0
 11 36  1  0  0  0  0
 11 37  1  0  0  0  0
 11 38  1  0  0  0  0
 12 39  1  0  0  0  0
 12 40  1  0  0  0  0
 12 41  1  0  0  0  0
 14 42  1  0  0  0  0
M  END
> <id>
EN300-268901

> <smiles>
CC(C)(C)OC(=O)N1CCOC2(CCCNC2)C1

> <MDLNUMBER>
MFCD11227069

> <IUPAC Name>
tert-butyl 1-oxa-4,8-diazaspiro[5.5]undecane-4-carboxylate

> <CAS>
1160247-06-2

> <Purity>
95

> <URL>
https://www.enaminestore.com/catalog/EN300-268901

> <ROCS_ShapeQuery>
amalgated

> <ROCS_TanimotoCombo>
0.852 

> <ROCS_ShapeTanimoto>
0.628 

> <ROCS_ColorTanimoto>
0.224 

> <ROCS_RefTversky>
0.581 

> <ROCS_RefColorTversky>
0.366 

> <ROCS_RefTverskyCombo>
0.947 

> <ROCS_FitTversky>
1.147 

> <ROCS_FitColorTversky>
0.366 

> <ROCS_FitTverskyCombo>
1.513 

> <ROCS_ColorScore>
-2.560

> <ROCS_Overlap>
956.449

> <ROCS_Rank>
193                 

$$$$
untitled-dbase-50035_31
  -OEChem-10092318153D

 38 39  0     1  0  0  0  0  0999 V2000
   -8.1919   -0.7759  -14.1034 C   0  0  0  0  0  0  0  0  0  0  0  0
   -9.2496   -3.0511  -18.3118 C   0  0  0  0  0  0  0  0  0  0  0  0
   -7.2669   -1.7836  -18.2078 C   0  0  0  0  0  0  0  0  0  0  0  0
   -9.3145   -2.0958  -15.9332 C   0  0  0  0  0  0  0  0  0  0  0  0
   -9.5133   -1.8350  -17.4279 C   0  0  1  0  0  0  0  0  0  0  0  0
   -8.3939   -0.8533  -17.7829 C   0  0  1  0  0  0  0  0  0  0  0  0
   -8.1315   -0.0598  -16.5038 C   0  0  1  0  0  0  0  0  0  0  0  0
   -8.9437    1.2349  -16.4732 C   0  0  0  0  0  0  0  0  0  0  0  0
   -9.6737    0.7434  -12.1886 C   0  0  0  0  0  0  0  0  0  0  0  0
  -10.2828   -1.4728  -11.1753 C   0  0  0  0  0  0  0  0  0  0  0  0
   -7.8778   -0.7533  -11.2562 C   0  0  0  0  0  0  0  0  0  0  0  0
   -9.2292   -0.7017  -11.9675 C   0  0  0  0  0  0  0  0  0  0  0  0
   -7.9738   -2.7956  -18.9900 N   0  0  0  0  0  0  0  0  0  0  0  0
   -8.5539   -0.9580  -15.4304 N   0  0  0  0  0  0  0  0  0  0  0  0
   -7.1798   -0.1832  -13.7366 O   0  0  0  0  0  0  0  0  0  0  0  0
   -9.0974   -1.3382  -13.2434 O   0  0  0  0  0  0  0  0  0  0  0  0
   -9.2168   -3.9945  -17.7354 H   0  0  0  0  0  0  0  0  0  0  0  0
  -10.0516   -3.1679  -19.0659 H   0  0  0  0  0  0  0  0  0  0  0  0
   -6.5702   -1.2588  -18.8492 H   0  0  0  0  0  0  0  0  0  0  0  0
   -6.7296   -2.2269  -17.3832 H   0  0  0  0  0  0  0  0  0  0  0  0
  -10.2732   -2.1298  -15.4068 H   0  0  0  0  0  0  0  0  0  0  0  0
   -8.7741   -3.0185  -15.7039 H   0  0  0  0  0  0  0  0  0  0  0  0
  -10.5049   -1.4001  -17.6080 H   0  0  0  0  0  0  0  0  0  0  0  0
   -8.6791   -0.2213  -18.6223 H   0  0  0  0  0  0  0  0  0  0  0  0
   -7.0725    0.1882  -16.3763 H   0  0  0  0  0  0  0  0  0  0  0  0
  -10.0004    1.0081  -16.5986 H   0  0  0  0  0  0  0  0  0  0  0  0
   -8.6197    1.8903  -17.2789 H   0  0  0  0  0  0  0  0  0  0  0  0
   -8.7957    1.7382  -15.5200 H   0  0  0  0  0  0  0  0  0  0  0  0
   -8.9201    1.3003  -12.7569 H   0  0  0  0  0  0  0  0  0  0  0  0
  -10.6247    0.7948  -12.7288 H   0  0  0  0  0  0  0  0  0  0  0  0
   -9.7897    1.2674  -11.2330 H   0  0  0  0  0  0  0  0  0  0  0  0
   -9.9680   -2.5102  -11.0143 H   0  0  0  0  0  0  0  0  0  0  0  0
  -11.2289   -1.5193  -11.7265 H   0  0  0  0  0  0  0  0  0  0  0  0
  -10.4720   -1.0126  -10.2001 H   0  0  0  0  0  0  0  0  0  0  0  0
   -7.5587   -1.7898  -11.0975 H   0  0  0  0  0  0  0  0  0  0  0  0
   -7.1008   -0.2363  -11.8286 H   0  0  0  0  0  0  0  0  0  0  0  0
   -7.9424   -0.2941  -10.2631 H   0  0  0  0  0  0  0  0  0  0  0  0
   -7.4218   -3.6573  -18.9864 H   0  0  0  0  0  0  0  0  0  0  0  0
  1 14  1  0  0  0  0
  1 15  2  0  0  0  0
  1 16  1  0  0  0  0
  2  5  1  0  0  0  0
  2 13  1  0  0  0  0
  3  6  1  0  0  0  0
  3 13  1  0  0  0  0
  4  5  1  0  0  0  0
  4 14  1  0  0  0  0
  5  6  1  0  0  0  0
  6  7  1  0  0  0  0
  7  8  1  0  0  0  0
  7 14  1  0  0  0  0
  9 12  1  0  0  0  0
 10 12  1  0  0  0  0
 11 12  1  0  0  0  0
 12 16  1  0  0  0  0
  2 17  1  0  0  0  0
  2 18  1  0  0  0  0
  3 19  1  0  0  0  0
  3 20  1  0  0  0  0
  4 21  1  0  0  0  0
  4 22  1  0  0  0  0
  5 23  1  0  0  0  0
  6 24  1  0  0  0  0
  7 25  1  0  0  0  0
  8 26  1  0  0  0  0
  8 27  1  0  0  0  0
  8 28  1  0  0  0  0
  9 29  1  0  0  0  0
  9 30  1  0  0  0  0
  9 31  1  0  0  0  0
 10 32  1  0  0  0  0
 10 33  1  0  0  0  0
 10 34  1  0  0  0  0
 11 35  1  0  0  0  0
 11 36  1  0  0  0  0
 11 37  1  0  0  0  0
 13 38  1  0  0  0  0
M  END
> <id>
EN300-3106335

> <smiles>
CC1C2CNCC2CN1C(=O)OC(C)(C)C

> <MDLNUMBER>
MFCD28620870

> <IUPAC Name>
tert-butyl 1-methyl-octahydropyrrolo[3,4-c]pyrrole-2-carboxylate

> <CAS>
1784049-94-0

> <Purity>
95

> <URL>
https://www.enaminestore.com/catalog/EN300-3106335

> <ROCS_ShapeQuery>
amalgated

> <ROCS_TanimotoCombo>
0.852 

> <ROCS_ShapeTanimoto>
0.568 

> <ROCS_ColorTanimoto>
0.284 

> <ROCS_RefTversky>
0.529 

> <ROCS_RefColorTversky>
0.416 

> <ROCS_RefTverskyCombo>
0.944 

> <ROCS_FitTversky>
1.150 

> <ROCS_FitColorTversky>
0.472 

> <ROCS_FitTverskyCombo>
1.622 

> <ROCS_ColorScore>
-2.891

> <ROCS_Overlap>
867.643

> <ROCS_Rank>
194                 

$$$$
untitled-dbase-40761_130
  -OEChem-10092318153D

 41 42  0     1  0  0  0  0  0999 V2000
   -8.6509   -0.2674  -14.2308 C   0  0  0  0  0  0  0  0  0  0  0  0
   -9.3615   -4.7371  -18.4105 C   0  0  0  0  0  0  0  0  0  0  0  0
  -10.0143   -3.7080  -17.4859 C   0  0  0  0  0  0  0  0  0  0  0  0
   -8.3223   -0.6615  -18.0115 C   0  0  0  0  0  0  0  0  0  0  0  0
   -8.0105   -4.2785  -18.9574 C   0  0  0  0  0  0  0  0  0  0  0  0
   -8.2255    0.0776  -16.6773 C   0  0  0  0  0  0  0  0  0  0  0  0
   -9.6846   -1.7868  -15.8996 C   0  0  0  0  0  0  0  0  0  0  0  0
   -8.9750   -2.8128  -16.7977 C   0  0  2  0  0  0  0  0  0  0  0  0
   -8.0110   -2.1511  -17.8230 C   0  0  1  0  0  0  0  0  0  0  0  0
   -9.5093    1.2612  -11.9699 C   0  0  0  0  0  0  0  0  0  0  0  0
  -10.9116   -0.7382  -11.3824 C   0  0  0  0  0  0  0  0  0  0  0  0
   -8.4094   -0.9433  -11.4550 C   0  0  0  0  0  0  0  0  0  0  0  0
   -9.6321   -0.2589  -12.0645 C   0  0  0  0  0  0  0  0  0  0  0  0
   -7.9690   -2.8289  -19.1278 N   0  0  0  0  0  0  0  0  0  0  0  0
   -8.8155   -0.6650  -15.5611 N   0  0  0  0  0  0  0  0  0  0  0  0
   -7.6674    0.3307  -13.7993 O   0  0  0  0  0  0  0  0  0  0  0  0
   -9.7172   -0.6241  -13.4467 O   0  0  0  0  0  0  0  0  0  0  0  0
   -9.2332   -5.6871  -17.8653 H   0  0  0  0  0  0  0  0  0  0  0  0
  -10.0409   -4.9651  -19.2496 H   0  0  0  0  0  0  0  0  0  0  0  0
  -10.7352   -3.1048  -18.0488 H   0  0  0  0  0  0  0  0  0  0  0  0
  -10.5845   -4.2431  -16.7160 H   0  0  0  0  0  0  0  0  0  0  0  0
   -9.3131   -0.5247  -18.4361 H   0  0  0  0  0  0  0  0  0  0  0  0
   -7.6032   -0.2318  -18.7059 H   0  0  0  0  0  0  0  0  0  0  0  0
   -7.2025   -4.6051  -18.2927 H   0  0  0  0  0  0  0  0  0  0  0  0
   -7.8390   -4.7554  -19.9278 H   0  0  0  0  0  0  0  0  0  0  0  0
   -7.1674    0.3226  -16.4775 H   0  0  0  0  0  0  0  0  0  0  0  0
   -8.7513    1.0495  -16.7317 H   0  0  0  0  0  0  0  0  0  0  0  0
  -10.5721   -1.3607  -16.3904 H   0  0  0  0  0  0  0  0  0  0  0  0
  -10.0434   -2.2809  -14.9849 H   0  0  0  0  0  0  0  0  0  0  0  0
   -8.3799   -3.4622  -16.1328 H   0  0  0  0  0  0  0  0  0  0  0  0
   -6.9680   -2.1997  -17.3951 H   0  0  0  0  0  0  0  0  0  0  0  0
   -8.5921    1.6092  -12.4584 H   0  0  0  0  0  0  0  0  0  0  0  0
  -10.3633    1.7646  -12.4346 H   0  0  0  0  0  0  0  0  0  0  0  0
   -9.4442    1.5839  -10.9245 H   0  0  0  0  0  0  0  0  0  0  0  0
  -11.0038   -1.8284  -11.4479 H   0  0  0  0  0  0  0  0  0  0  0  0
  -11.7969   -0.3233  -11.8776 H   0  0  0  0  0  0  0  0  0  0  0  0
  -10.9384   -0.4509  -10.3263 H   0  0  0  0  0  0  0  0  0  0  0  0
   -8.4973   -2.0337  -11.5228 H   0  0  0  0  0  0  0  0  0  0  0  0
   -7.4851   -0.6393  -11.9567 H   0  0  0  0  0  0  0  0  0  0  0  0
   -8.3212   -0.7059  -10.3886 H   0  0  0  0  0  0  0  0  0  0  0  0
   -7.1161   -2.5708  -19.6172 H   0  0  0  0  0  0  0  0  0  0  0  0
  1 15  1  0  0  0  0
  1 16  2  0  0  0  0
  1 17  1  0  0  0  0
  2  3  1  0  0  0  0
  2  5  1  0  0  0  0
  3  8  1  6  0  0  0
  4  6  1  0  0  0  0
  4  9  1  6  0  0  0
  5 14  1  0  0  0  0
  6 15  1  0  0  0  0
  7  8  1  0  0  0  0
  7 15  1  0  0  0  0
  8  9  1  0  0  0  0
  9 14  1  0  0  0  0
 10 13  1  0  0  0  0
 11 13  1  0  0  0  0
 12 13  1  0  0  0  0
 13 17  1  0  0  0  0
  2 18  1  0  0  0  0
  2 19  1  0  0  0  0
  3 20  1  0  0  0  0
  3 21  1  0  0  0  0
  4 22  1  0  0  0  0
  4 23  1  0  0  0  0
  5 24  1  0  0  0  0
  5 25  1  0  0  0  0
  6 26  1  0  0  0  0
  6 27  1  0  0  0  0
  7 28  1  0  0  0  0
  7 29  1  0  0  0  0
  8 30  1  0  0  0  0
  9 31  1  0  0  0  0
 10 32  1  0  0  0  0
 10 33  1  0  0  0  0
 10 34  1  0  0  0  0
 11 35  1  0  0  0  0
 11 36  1  0  0  0  0
 11 37  1  0  0  0  0
 12 38  1  0  0  0  0
 12 39  1  0  0  0  0
 12 40  1  0  0  0  0
 14 41  1  0  0  0  0
M  END
> <id>
EN300-7100404

> <smiles>
CC(C)(C)OC(=O)N1CC[C@@H]2NCCC[C@@H]2C1 |&1:10,15,r|

> <MDLNUMBER>
MFCD17017444

> <IUPAC Name>
rac-tert-butyl (4aR,8aS)-decahydro-1,6-naphthyridine-6-carboxylate

> <CAS>
616875-90-2

> <Purity>
95

> <URL>
https://www.enaminestore.com/catalog/EN300-7100404

> <ROCS_ShapeQuery>
amalgated

> <ROCS_TanimotoCombo>
0.852 

> <ROCS_ShapeTanimoto>
0.581 

> <ROCS_ColorTanimoto>
0.270 

> <ROCS_RefTversky>
0.543 

> <ROCS_RefColorTversky>
0.398 

> <ROCS_RefTverskyCombo>
0.942 

> <ROCS_FitTversky>
1.137 

> <ROCS_FitColorTversky>
0.456 

> <ROCS_FitTverskyCombo>
1.593 

> <ROCS_ColorScore>
-2.767

> <ROCS_Overlap>
892.468

> <ROCS_Rank>
195                 

$$$$
untitled-dbase-4725_166
  -OEChem-10092318153D

 44 45  0     1  0  0  0  0  0999 V2000
   -8.7383   -0.3809  -14.1368 C   0  0  0  0  0  0  0  0  0  0  0  0
   -9.8219   -4.4476  -18.8271 C   0  0  0  0  0  0  0  0  0  0  0  0
   -8.1531    0.0677  -17.5475 C   0  0  0  0  0  0  0  0  0  0  0  0
   -9.9290   -4.0521  -17.3558 C   0  0  0  0  0  0  0  0  0  0  0  0
   -7.2628   -1.1719  -17.4387 C   0  0  0  0  0  0  0  0  0  0  0  0
   -8.4166   -4.2069  -19.3734 C   0  0  0  0  0  0  0  0  0  0  0  0
   -9.2636    0.1774  -16.4923 C   0  0  0  0  0  0  0  0  0  0  0  0
   -9.5400   -2.1942  -15.6863 C   0  0  0  0  0  0  0  0  0  0  0  0
   -9.4051   -2.6197  -17.1561 C   0  0  1  0  0  0  0  0  0  0  0  0
   -7.9566   -2.5255  -17.6867 C   0  0  1  0  0  0  0  0  0  0  0  0
  -10.4640    0.6846  -12.1181 C   0  0  0  0  0  0  0  0  0  0  0  0
  -10.1023   -1.4931  -10.9198 C   0  0  0  0  0  0  0  0  0  0  0  0
   -8.1549    0.0309  -11.3594 C   0  0  0  0  0  0  0  0  0  0  0  0
   -9.4974   -0.4756  -11.8847 C   0  0  0  0  0  0  0  0  0  0  0  0
   -7.9622   -2.8352  -19.1283 N   0  0  0  0  0  0  0  0  0  0  0  0
   -9.1501   -0.8014  -15.4091 N   0  0  0  0  0  0  0  0  0  0  0  0
   -7.9827    0.5668  -13.9294 O   0  0  0  0  0  0  0  0  0  0  0  0
   -9.2764   -1.1427  -13.1326 O   0  0  0  0  0  0  0  0  0  0  0  0
  -10.0900   -5.5041  -18.9464 H   0  0  0  0  0  0  0  0  0  0  0  0
  -10.5477   -3.8674  -19.4126 H   0  0  0  0  0  0  0  0  0  0  0  0
   -7.5384    0.9795  -17.5360 H   0  0  0  0  0  0  0  0  0  0  0  0
   -8.6437    0.0607  -18.5322 H   0  0  0  0  0  0  0  0  0  0  0  0
  -10.9726   -4.1255  -17.0372 H   0  0  0  0  0  0  0  0  0  0  0  0
   -9.3497   -4.7525  -16.7456 H   0  0  0  0  0  0  0  0  0  0  0  0
   -6.3698   -1.0641  -18.0923 H   0  0  0  0  0  0  0  0  0  0  0  0
   -6.8534   -1.1773  -16.4057 H   0  0  0  0  0  0  0  0  0  0  0  0
   -7.7099   -4.9215  -18.9309 H   0  0  0  0  0  0  0  0  0  0  0  0
   -8.4165   -4.3912  -20.4547 H   0  0  0  0  0  0  0  0  0  0  0  0
   -9.2386    1.1654  -16.0398 H   0  0  0  0  0  0  0  0  0  0  0  0
  -10.2267    0.0598  -16.9814 H   0  0  0  0  0  0  0  0  0  0  0  0
  -10.5935   -2.3227  -15.3567 H   0  0  0  0  0  0  0  0  0  0  0  0
   -8.9628   -2.8648  -15.0112 H   0  0  0  0  0  0  0  0  0  0  0  0
  -10.0435   -1.9561  -17.7657 H   0  0  0  0  0  0  0  0  0  0  0  0
   -7.3487   -3.3068  -17.1814 H   0  0  0  0  0  0  0  0  0  0  0  0
  -10.0335    1.4172  -12.8101 H   0  0  0  0  0  0  0  0  0  0  0  0
  -11.4184    0.3383  -12.5278 H   0  0  0  0  0  0  0  0  0  0  0  0
  -10.6629    1.2218  -11.1837 H   0  0  0  0  0  0  0  0  0  0  0  0
   -9.4121   -2.3274  -10.7495 H   0  0  0  0  0  0  0  0  0  0  0  0
  -11.0174   -1.9297  -11.3361 H   0  0  0  0  0  0  0  0  0  0  0  0
  -10.3432   -1.0395   -9.9530 H   0  0  0  0  0  0  0  0  0  0  0  0
   -7.4614   -0.8011  -11.1919 H   0  0  0  0  0  0  0  0  0  0  0  0
   -7.6885    0.7345  -12.0566 H   0  0  0  0  0  0  0  0  0  0  0  0
   -8.2785    0.5301  -10.3915 H   0  0  0  0  0  0  0  0  0  0  0  0
   -7.0225   -2.7283  -19.5045 H   0  0  0  0  0  0  0  0  0  0  0  0
  1 16  1  0  0  0  0
  1 17  2  0  0  0  0
  1 18  1  0  0  0  0
  2  4  1  0  0  0  0
  2  6  1  0  0  0  0
  3  5  1  0  0  0  0
  3  7  1  0  0  0  0
  4  9  1  0  0  0  0
  5 10  1  0  0  0  0
  6 15  1  0  0  0  0
  7 16  1  0  0  0  0
  8  9  1  0  0  0  0
  8 16  1  0  0  0  0
  9 10  1  0  0  0  0
 10 15  1  0  0  0  0
 11 14  1  0  0  0  0
 12 14  1  0  0  0  0
 13 14  1  0  0  0  0
 14 18  1  0  0  0  0
  2 19  1  0  0  0  0
  2 20  1  0  0  0  0
  3 21  1  0  0  0  0
  3 22  1  0  0  0  0
  4 23  1  0  0  0  0
  4 24  1  0  0  0  0
  5 25  1  0  0  0  0
  5 26  1  0  0  0  0
  6 27  1  0  0  0  0
  6 28  1  0  0  0  0
  7 29  1  0  0  0  0
  7 30  1  0  0  0  0
  8 31  1  0  0  0  0
  8 32  1  0  0  0  0
  9 33  1  0  0  0  0
 10 34  1  0  0  0  0
 11 35  1  0  0  0  0
 11 36  1  0  0  0  0
 11 37  1  0  0  0  0
 12 38  1  0  0  0  0
 12 39  1  0  0  0  0
 12 40  1  0  0  0  0
 13 41  1  0  0  0  0
 13 42  1  0  0  0  0
 13 43  1  0  0  0  0
 15 44  1  0  0  0  0
M  END
> <id>
EN300-193217

> <smiles>
CC(C)(C)OC(=O)N1CCCC2NCCCC2C1

> <MDLNUMBER>
MFCD28139461

> <IUPAC Name>
tert-butyl decahydro-1H-pyrido[3,2-c]azepine-6-carboxylate

> <CAS>
1784016-95-0

> <Purity>
95

> <URL>
https://www.enaminestore.com/catalog/EN300-193217

> <ROCS_ShapeQuery>
amalgated

> <ROCS_TanimotoCombo>
0.851 

> <ROCS_ShapeTanimoto>
0.586 

> <ROCS_ColorTanimoto>
0.266 

> <ROCS_RefTversky>
0.554 

> <ROCS_RefColorTversky>
0.392 

> <ROCS_RefTverskyCombo>
0.946 

> <ROCS_FitTversky>
1.110 

> <ROCS_FitColorTversky>
0.451 

> <ROCS_FitTverskyCombo>
1.561 

> <ROCS_ColorScore>
-2.728

> <ROCS_Overlap>
910.478

> <ROCS_Rank>
196                 

$$$$
untitled-dbase-34886_16
  -OEChem-10092318153D

 38 39  0     1  0  0  0  0  0999 V2000
   -8.9900   -0.9933  -13.9418 C   0  0  0  0  0  0  0  0  0  0  0  0
   -8.3209    0.7027  -17.1655 C   0  0  0  0  0  0  0  0  0  0  0  0
   -9.5066   -2.3743  -16.7856 C   0  0  0  0  0  0  0  0  0  0  0  0
   -8.4399    0.7706  -15.6537 C   0  0  0  0  0  0  0  0  0  0  0  0
   -9.0880   -3.2585  -17.9708 C   0  0  0  0  0  0  0  0  0  0  0  0
   -8.0952   -1.2134  -18.8238 C   0  0  0  0  0  0  0  0  0  0  0  0
   -7.7416   -0.6933  -17.4260 C   0  0  2  0  0  0  0  0  0  0  0  0
   -8.3170   -1.5549  -16.2863 C   0  0  1  0  0  0  0  0  0  0  0  0
   -8.3436   -1.1418  -11.1609 C   0  0  0  0  0  0  0  0  0  0  0  0
   -9.4728    1.0935  -10.9677 C   0  0  0  0  0  0  0  0  0  0  0  0
  -10.7884   -0.9120  -11.7129 C   0  0  0  0  0  0  0  0  0  0  0  0
   -9.4233   -0.2258  -11.7352 C   0  0  0  0  0  0  0  0  0  0  0  0
   -8.0607   -2.6712  -18.8388 N   0  0  0  0  0  0  0  0  0  0  0  0
   -8.6576   -0.6062  -15.2320 N   0  0  0  0  0  0  0  0  0  0  0  0
   -9.1723   -2.1574  -13.5926 O   0  0  0  0  0  0  0  0  0  0  0  0
   -9.0878    0.0778  -13.0939 O   0  0  0  0  0  0  0  0  0  0  0  0
   -9.3114    0.8197  -17.6318 H   0  0  0  0  0  0  0  0  0  0  0  0
   -7.6727    1.4962  -17.5643 H   0  0  0  0  0  0  0  0  0  0  0  0
  -10.3174   -1.7212  -17.1131 H   0  0  0  0  0  0  0  0  0  0  0  0
   -9.8970   -3.0018  -15.9855 H   0  0  0  0  0  0  0  0  0  0  0  0
   -7.5104    1.1214  -15.1892 H   0  0  0  0  0  0  0  0  0  0  0  0
   -9.2629    1.4107  -15.3181 H   0  0  0  0  0  0  0  0  0  0  0  0
   -8.7537   -4.2538  -17.6020 H   0  0  0  0  0  0  0  0  0  0  0  0
   -9.9876   -3.4698  -18.5863 H   0  0  0  0  0  0  0  0  0  0  0  0
   -9.0855   -0.8734  -19.0977 H   0  0  0  0  0  0  0  0  0  0  0  0
   -7.3855   -0.8232  -19.5440 H   0  0  0  0  0  0  0  0  0  0  0  0
   -6.6618   -0.6405  -17.3444 H   0  0  0  0  0  0  0  0  0  0  0  0
   -7.5336   -2.2549  -15.9199 H   0  0  0  0  0  0  0  0  0  0  0  0
   -8.3049   -2.0899  -11.7091 H   0  0  0  0  0  0  0  0  0  0  0  0
   -7.3541   -0.6750  -11.2032 H   0  0  0  0  0  0  0  0  0  0  0  0
   -8.5616   -1.3968  -10.1174 H   0  0  0  0  0  0  0  0  0  0  0  0
  -10.2462    1.7539  -11.3765 H   0  0  0  0  0  0  0  0  0  0  0  0
   -8.5243    1.6348  -11.0603 H   0  0  0  0  0  0  0  0  0  0  0  0
   -9.6791    0.9348   -9.9043 H   0  0  0  0  0  0  0  0  0  0  0  0
  -11.5631   -0.2551  -12.1249 H   0  0  0  0  0  0  0  0  0  0  0  0
  -10.7816   -1.8424  -12.2899 H   0  0  0  0  0  0  0  0  0  0  0  0
  -11.0923   -1.1417  -10.6852 H   0  0  0  0  0  0  0  0  0  0  0  0
   -7.1387   -2.9880  -18.5216 H   0  0  0  0  0  0  0  0  0  0  0  0
  1 14  1  0  0  0  0
  1 15  2  0  0  0  0
  1 16  1  0  0  0  0
  2  4  1  0  0  0  0
  2  7  1  6  0  0  0
  3  5  1  0  0  0  0
  3  8  1  6  0  0  0
  4 14  1  0  0  0  0
  5 13  1  0  0  0  0
  6  7  1  0  0  0  0
  6 13  1  0  0  0  0
  7  8  1  0  0  0  0
  8 14  1  0  0  0  0
  9 12  1  0  0  0  0
 10 12  1  0  0  0  0
 11 12  1  0  0  0  0
 12 16  1  0  0  0  0
  2 17  1  0  0  0  0
  2 18  1  0  0  0  0
  3 19  1  0  0  0  0
  3 20  1  0  0  0  0
  4 21  1  0  0  0  0
  4 22  1  0  0  0  0
  5 23  1  0  0  0  0
  5 24  1  0  0  0  0
  6 25  1  0  0  0  0
  6 26  1  0  0  0  0
  7 27  1  0  0  0  0
  8 28  1  0  0  0  0
  9 29  1  0  0  0  0
  9 30  1  0  0  0  0
  9 31  1  0  0  0  0
 10 32  1  0  0  0  0
 10 33  1  0  0  0  0
 10 34  1  0  0  0  0
 11 35  1  0  0  0  0
 11 36  1  0  0  0  0
 11 37  1  0  0  0  0
 13 38  1  0  0  0  0
M  END
> <id>
EN300-6734926

> <smiles>
CC(C)(C)OC(=O)N1CC[C@@H]2CNCC[C@@H]21 |&1:10,15,r|

> <MDLNUMBER>
MFCD28396659

> <IUPAC Name>
rac-tert-butyl (3aR,7aS)-octahydro-1H-pyrrolo[3,2-c]pyridine-1-carboxylate

> <CAS>
848410-13-9

> <Purity>
95

> <URL>
https://www.enaminestore.com/catalog/EN300-6734926

> <ROCS_ShapeQuery>
amalgated

> <ROCS_TanimotoCombo>
0.851 

> <ROCS_ShapeTanimoto>
0.593 

> <ROCS_ColorTanimoto>
0.258 

> <ROCS_RefTversky>
0.542 

> <ROCS_RefColorTversky>
0.384 

> <ROCS_RefTverskyCombo>
0.927 

> <ROCS_FitTversky>
1.186 

> <ROCS_FitColorTversky>
0.440 

> <ROCS_FitTverskyCombo>
1.626 

> <ROCS_ColorScore>
-2.672

> <ROCS_Overlap>
889.802

> <ROCS_Rank>
197                 

$$$$
untitled-dbase-42479_6
  -OEChem-10092318153D

 34 36  0     1  0  0  0  0  0999 V2000
   -8.0883   -2.1061  -18.2017 C   0  0  0  0  0  0  0  0  0  0  0  0
   -9.1931   -2.7328  -17.6348 C   0  0  0  0  0  0  0  0  0  0  0  0
   -7.5350   -0.9793  -17.5908 C   0  0  0  0  0  0  0  0  0  0  0  0
   -9.7342   -2.2417  -16.4493 C   0  0  0  0  0  0  0  0  0  0  0  0
   -8.0850   -0.4535  -16.4091 C   0  0  0  0  0  0  0  0  0  0  0  0
   -9.1723   -1.1206  -15.8283 C   0  0  0  0  0  0  0  0  0  0  0  0
   -8.0020   -0.6488  -12.9908 C   0  0  0  0  0  0  0  0  0  0  0  0
  -10.0827    0.7979  -12.8565 C   0  0  0  0  0  0  0  0  0  0  0  0
   -8.4202    1.2955  -14.6583 C   0  0  0  0  0  0  0  0  0  0  0  0
   -7.8366   -0.1058  -11.5743 C   0  0  0  0  0  0  0  0  0  0  0  0
  -10.2892   -0.0566  -11.6069 C   0  0  0  0  0  0  0  0  0  0  0  0
   -7.4829    0.7637  -15.7485 C   0  0  2  0  0  0  0  0  0  0  0  0
   -9.0338    0.1674  -13.8096 C   0  0  0  0  0  0  0  0  0  0  0  0
   -9.0742   -0.1562  -10.7958 N   0  0  0  0  0  0  0  0  0  0  0  0
   -7.2129    1.8621  -16.6836 N   0  0  0  0  0  0  0  0  0  0  0  0
   -9.7684   -0.7433  -14.6543 O   0  0  0  0  0  0  0  0  0  0  0  0
   -7.6528   -2.4944  -19.1182 H   0  0  0  0  0  0  0  0  0  0  0  0
   -9.6310   -3.6030  -18.1137 H   0  0  0  0  0  0  0  0  0  0  0  0
   -6.6622   -0.5114  -18.0431 H   0  0  0  0  0  0  0  0  0  0  0  0
  -10.5984   -2.7354  -16.0121 H   0  0  0  0  0  0  0  0  0  0  0  0
   -7.0306   -0.6355  -13.4977 H   0  0  0  0  0  0  0  0  0  0  0  0
   -8.3252   -1.6929  -12.9214 H   0  0  0  0  0  0  0  0  0  0  0  0
  -11.0521    0.8870  -13.3493 H   0  0  0  0  0  0  0  0  0  0  0  0
   -9.7581    1.8003  -12.5638 H   0  0  0  0  0  0  0  0  0  0  0  0
   -7.8188    1.9334  -13.9996 H   0  0  0  0  0  0  0  0  0  0  0  0
   -9.1960    1.9345  -15.0884 H   0  0  0  0  0  0  0  0  0  0  0  0
   -7.0347   -0.6476  -11.0418 H   0  0  0  0  0  0  0  0  0  0  0  0
   -7.5024    0.9438  -11.6309 H   0  0  0  0  0  0  0  0  0  0  0  0
  -11.0813    0.3937  -10.9936 H   0  0  0  0  0  0  0  0  0  0  0  0
  -10.6427   -1.0618  -11.8797 H   0  0  0  0  0  0  0  0  0  0  0  0
   -6.5410    0.4976  -15.2650 H   0  0  0  0  0  0  0  0  0  0  0  0
   -9.1000   -1.0370  -10.2623 H   0  0  0  0  0  0  0  0  0  0  0  0
   -6.8520    2.6256  -16.1643 H   0  0  0  0  0  0  0  0  0  0  0  0
   -6.5508    1.5424  -17.3486 H   0  0  0  0  0  0  0  0  0  0  0  0
  1  2  2  0  0  0  0
  1  3  1  0  0  0  0
  2  4  1  0  0  0  0
  3  5  2  0  0  0  0
  4  6  2  0  0  0  0
  5  6  1  0  0  0  0
  5 12  1  0  0  0  0
  6 16  1  0  0  0  0
  7 10  1  0  0  0  0
  7 13  1  0  0  0  0
  8 11  1  0  0  0  0
  8 13  1  0  0  0  0
  9 12  1  0  0  0  0
  9 13  1  0  0  0  0
 10 14  1  0  0  0  0
 11 14  1  0  0  0  0
 12 15  1  0  0  0  0
 13 16  1  0  0  0  0
  1 17  1  0  0  0  0
  2 18  1  0  0  0  0
  3 19  1  0  0  0  0
  4 20  1  0  0  0  0
  7 21  1  0  0  0  0
  7 22  1  0  0  0  0
  8 23  1  0  0  0  0
  8 24  1  0  0  0  0
  9 25  1  0  0  0  0
  9 26  1  0  0  0  0
 10 27  1  0  0  0  0
 10 28  1  0  0  0  0
 11 29  1  0  0  0  0
 11 30  1  0  0  0  0
 12 31  1  0  0  0  0
 14 32  1  0  0  0  0
 15 33  1  0  0  0  0
 15 34  1  0  0  0  0
M  END
> <id>
EN300-1694501

> <smiles>
NC1CC2(CCNCC2)OC=3C=CC=CC13

> <IUPAC Name>
3,4-dihydrospiro[1-benzopyran-2,4'-piperidine]-4-amine

> <CAS>
1603300-00-0

> <URL>
https://www.enaminestore.com/catalog/EN300-1694501

> <ROCS_ShapeQuery>
amalgated

> <ROCS_TanimotoCombo>
0.851 

> <ROCS_ShapeTanimoto>
0.574 

> <ROCS_ColorTanimoto>
0.277 

> <ROCS_RefTversky>
0.535 

> <ROCS_RefColorTversky>
0.461 

> <ROCS_RefTverskyCombo>
0.997 

> <ROCS_FitTversky>
1.144 

> <ROCS_FitColorTversky>
0.409 

> <ROCS_FitTverskyCombo>
1.553 

> <ROCS_ColorScore>
-3.253

> <ROCS_Overlap>
878.581

> <ROCS_Rank>
198                 

$$$$
untitled-dbase-40088_38
  -OEChem-10092318153D

 37 39  0     0  0  0  0  0  0999 V2000
   -8.1668   -1.8955  -18.4136 C   0  0  0  0  0  0  0  0  0  0  0  0
   -8.6718   -2.8879  -17.5742 C   0  0  0  0  0  0  0  0  0  0  0  0
   -8.1243   -0.5681  -17.9838 C   0  0  0  0  0  0  0  0  0  0  0  0
   -9.1272   -2.5580  -16.2989 C   0  0  0  0  0  0  0  0  0  0  0  0
   -8.5831   -0.2249  -16.7068 C   0  0  0  0  0  0  0  0  0  0  0  0
   -9.0601   -1.2354  -15.8599 C   0  0  0  0  0  0  0  0  0  0  0  0
   -8.5612    1.1998  -16.2283 C   0  0  0  0  0  0  0  0  0  0  0  0
   -8.2992   -1.4166  -12.6503 C   0  0  0  0  0  0  0  0  0  0  0  0
   -9.5638    0.7664  -12.9410 C   0  0  0  0  0  0  0  0  0  0  0  0
   -8.1891   -0.8948  -11.2185 C   0  0  0  0  0  0  0  0  0  0  0  0
  -10.3418    0.1608  -11.7702 C   0  0  0  0  0  0  0  0  0  0  0  0
   -7.4008    0.3548  -14.2239 C   0  0  0  0  0  0  0  0  0  0  0  0
   -8.6944   -0.2999  -13.6572 C   0  0  0  0  0  0  0  0  0  0  0  0
  -10.1438   -1.2339   -9.8149 C   0  0  0  0  0  0  0  0  0  0  0  0
   -7.5841    1.4590  -15.1726 N   0  0  0  0  0  0  0  0  0  0  0  0
   -9.4422   -0.3195  -10.7122 N   0  0  0  0  0  0  0  0  0  0  0  0
   -9.5587   -0.9591  -14.6185 O   0  0  0  0  0  0  0  0  0  0  0  0
   -7.8211   -2.1547  -19.4110 H   0  0  0  0  0  0  0  0  0  0  0  0
   -8.7126   -3.9188  -17.9167 H   0  0  0  0  0  0  0  0  0  0  0  0
   -7.7456    0.1877  -18.6606 H   0  0  0  0  0  0  0  0  0  0  0  0
   -9.5163   -3.3367  -15.6541 H   0  0  0  0  0  0  0  0  0  0  0  0
   -8.3006    1.8619  -17.0634 H   0  0  0  0  0  0  0  0  0  0  0  0
   -9.5721    1.5032  -15.9255 H   0  0  0  0  0  0  0  0  0  0  0  0
   -7.3349   -1.8441  -12.9481 H   0  0  0  0  0  0  0  0  0  0  0  0
   -9.0226   -2.2353  -12.6553 H   0  0  0  0  0  0  0  0  0  0  0  0
  -10.2824    1.1972  -13.6443 H   0  0  0  0  0  0  0  0  0  0  0  0
   -8.9352    1.5802  -12.5672 H   0  0  0  0  0  0  0  0  0  0  0  0
   -7.8337   -1.6963  -10.5461 H   0  0  0  0  0  0  0  0  0  0  0  0
   -7.4013   -0.1195  -11.2014 H   0  0  0  0  0  0  0  0  0  0  0  0
  -11.0032    0.9406  -11.3634 H   0  0  0  0  0  0  0  0  0  0  0  0
  -10.9955   -0.6502  -12.1288 H   0  0  0  0  0  0  0  0  0  0  0  0
   -6.7530    0.6915  -13.3927 H   0  0  0  0  0  0  0  0  0  0  0  0
   -6.8123   -0.4166  -14.7523 H   0  0  0  0  0  0  0  0  0  0  0  0
  -11.0727   -0.7617   -9.4624 H   0  0  0  0  0  0  0  0  0  0  0  0
  -10.3859   -2.1620  -10.3534 H   0  0  0  0  0  0  0  0  0  0  0  0
   -9.5011   -1.4669   -8.9532 H   0  0  0  0  0  0  0  0  0  0  0  0
   -6.6831    1.7517  -15.5776 H   0  0  0  0  0  0  0  0  0  0  0  0
  1  2  2  0  0  0  0
  1  3  1  0  0  0  0
  2  4  1  0  0  0  0
  3  5  2  0  0  0  0
  4  6  2  0  0  0  0
  5  6  1  0  0  0  0
  5  7  1  0  0  0  0
  6 17  1  0  0  0  0
  7 15  1  0  0  0  0
  8 10  1  0  0  0  0
  8 13  1  0  0  0  0
  9 11  1  0  0  0  0
  9 13  1  0  0  0  0
 10 16  1  0  0  0  0
 11 16  1  0  0  0  0
 12 13  1  0  0  0  0
 12 15  1  0  0  0  0
 13 17  1  0  0  0  0
 14 16  1  0  0  0  0
  1 18  1  0  0  0  0
  2 19  1  0  0  0  0
  3 20  1  0  0  0  0
  4 21  1  0  0  0  0
  7 22  1  0  0  0  0
  7 23  1  0  0  0  0
  8 24  1  0  0  0  0
  8 25  1  0  0  0  0
  9 26  1  0  0  0  0
  9 27  1  0  0  0  0
 10 28  1  0  0  0  0
 10 29  1  0  0  0  0
 11 30  1  0  0  0  0
 11 31  1  0  0  0  0
 12 32  1  0  0  0  0
 12 33  1  0  0  0  0
 14 34  1  0  0  0  0
 14 35  1  0  0  0  0
 14 36  1  0  0  0  0
 15 37  1  0  0  0  0
M  END
> <id>
EN300-1663253

> <smiles>
CN1CCC2(CC1)CNCC=3C=CC=CC3O2

> <MDLNUMBER>
MFCD28897670

> <IUPAC Name>
1'-methyl-4,5-dihydro-3H-spiro[1,4-benzoxazepine-2,4'-piperidine]

> <CAS>
1381722-41-3

> <URL>
https://www.enaminestore.com/catalog/EN300-1663253

> <ROCS_ShapeQuery>
amalgated

> <ROCS_TanimotoCombo>
0.850 

> <ROCS_ShapeTanimoto>
0.597 

> <ROCS_ColorTanimoto>
0.254 

> <ROCS_RefTversky>
0.557 

> <ROCS_RefColorTversky>
0.405 

> <ROCS_RefTverskyCombo>
0.963 

> <ROCS_FitTversky>
1.133 

> <ROCS_FitColorTversky>
0.405 

> <ROCS_FitTverskyCombo>
1.538 

> <ROCS_ColorScore>
-2.835

> <ROCS_Overlap>
916.379

> <ROCS_Rank>
199                 

$$$$
untitled-dbase-530_1
  -OEChem-10092318153D

 34 34  0     0  0  0  0  0  0999 V2000
   -8.4629   -0.2756  -14.6821 C   0  0  0  0  0  0  0  0  0  0  0  0
   -9.5238   -2.7569  -17.1109 C   0  0  0  0  0  0  0  0  0  0  0  0
   -8.8015   -0.6085  -18.2407 C   0  0  0  0  0  0  0  0  0  0  0  0
   -8.5527   -2.4513  -15.9697 C   0  0  0  0  0  0  0  0  0  0  0  0
   -7.8356   -0.3616  -17.0828 C   0  0  0  0  0  0  0  0  0  0  0  0
   -9.1157   -2.0962  -18.4331 C   0  0  0  0  0  0  0  0  0  0  0  0
  -10.1144    0.7090  -12.5619 C   0  0  0  0  0  0  0  0  0  0  0  0
   -9.5033   -1.4062  -11.3529 C   0  0  0  0  0  0  0  0  0  0  0  0
   -7.7139    0.2472  -11.9631 C   0  0  0  0  0  0  0  0  0  0  0  0
   -9.0484   -0.3702  -12.3786 C   0  0  0  0  0  0  0  0  0  0  0  0
   -8.3096   -1.0099  -15.8615 N   0  0  0  0  0  0  0  0  0  0  0  0
   -7.9696   -2.7749  -19.0044 N   0  0  0  0  0  0  0  0  0  0  0  0
   -8.2600    0.9335  -14.5874 O   0  0  0  0  0  0  0  0  0  0  0  0
   -8.8678   -1.0492  -13.6268 O   0  0  0  0  0  0  0  0  0  0  0  0
   -9.6179   -3.8428  -17.2348 H   0  0  0  0  0  0  0  0  0  0  0  0
  -10.5204   -2.3923  -16.8290 H   0  0  0  0  0  0  0  0  0  0  0  0
   -9.7383   -0.0723  -18.0387 H   0  0  0  0  0  0  0  0  0  0  0  0
   -8.3923   -0.1762  -19.1621 H   0  0  0  0  0  0  0  0  0  0  0  0
   -8.9510   -2.8600  -15.0369 H   0  0  0  0  0  0  0  0  0  0  0  0
   -7.5829   -2.9324  -16.1409 H   0  0  0  0  0  0  0  0  0  0  0  0
   -6.8405   -0.7633  -17.3048 H   0  0  0  0  0  0  0  0  0  0  0  0
   -7.7196    0.7158  -16.9264 H   0  0  0  0  0  0  0  0  0  0  0  0
   -9.9417   -2.1897  -19.1432 H   0  0  0  0  0  0  0  0  0  0  0  0
   -9.7917    1.4546  -13.2974 H   0  0  0  0  0  0  0  0  0  0  0  0
  -11.0669    0.2829  -12.8937 H   0  0  0  0  0  0  0  0  0  0  0  0
  -10.2858    1.2524  -11.6257 H   0  0  0  0  0  0  0  0  0  0  0  0
   -8.7414   -2.1825  -11.2182 H   0  0  0  0  0  0  0  0  0  0  0  0
  -10.4103   -1.9194  -11.6924 H   0  0  0  0  0  0  0  0  0  0  0  0
   -9.7077   -0.9484  -10.3797 H   0  0  0  0  0  0  0  0  0  0  0  0
   -6.9490   -0.5267  -11.8316 H   0  0  0  0  0  0  0  0  0  0  0  0
   -7.3536    0.9664  -12.7059 H   0  0  0  0  0  0  0  0  0  0  0  0
   -7.8049    0.7591  -10.9983 H   0  0  0  0  0  0  0  0  0  0  0  0
   -8.2162   -3.7242  -19.1440 H   0  0  0  0  0  0  0  0  0  0  0  0
   -7.7529   -2.3340  -19.8646 H   0  0  0  0  0  0  0  0  0  0  0  0
  1 11  1  0  0  0  0
  1 13  2  0  0  0  0
  1 14  1  0  0  0  0
  2  4  1  0  0  0  0
  2  6  1  0  0  0  0
  3  5  1  0  0  0  0
  3  6  1  0  0  0  0
  4 11  1  0  0  0  0
  5 11  1  0  0  0  0
  6 12  1  0  0  0  0
  7 10  1  0  0  0  0
  8 10  1  0  0  0  0
  9 10  1  0  0  0  0
 10 14  1  0  0  0  0
  2 15  1  0  0  0  0
  2 16  1  0  0  0  0
  3 17  1  0  0  0  0
  3 18  1  0  0  0  0
  4 19  1  0  0  0  0
  4 20  1  0  0  0  0
  5 21  1  0  0  0  0
  5 22  1  0  0  0  0
  6 23  1  0  0  0  0
  7 24  1  0  0  0  0
  7 25  1  0  0  0  0
  7 26  1  0  0  0  0
  8 27  1  0  0  0  0
  8 28  1  0  0  0  0
  8 29  1  0  0  0  0
  9 30  1  0  0  0  0
  9 31  1  0  0  0  0
  9 32  1  0  0  0  0
 12 33  1  0  0  0  0
 12 34  1  0  0  0  0
M  END
> <id>
EN300-39611

> <smiles>
CC(C)(C)OC(=O)N1CCC(N)CC1

> <MDLNUMBER>
MFCD01076201

> <IUPAC Name>
tert-butyl 4-aminopiperidine-1-carboxylate

> <CAS>
87120-72-7

> <Purity>
95

> <URL>
https://www.enaminestore.com/catalog/EN300-39611

> <MP>
44-48

> <ROCS_ShapeQuery>
amalgated

> <ROCS_TanimotoCombo>
0.850 

> <ROCS_ShapeTanimoto>
0.519 

> <ROCS_ColorTanimoto>
0.331 

> <ROCS_RefTversky>
0.477 

> <ROCS_RefColorTversky>
0.433 

> <ROCS_RefTverskyCombo>
0.910 

> <ROCS_FitTversky>
1.203 

> <ROCS_FitColorTversky>
0.586 

> <ROCS_FitTverskyCombo>
1.789 

> <ROCS_ColorScore>
-2.986

> <ROCS_Overlap>
780.144

> <ROCS_Rank>
200                 

$$$$
untitled-dbase-43704_831
  -OEChem-10092318153D

 48 49  0     1  0  0  0  0  0999 V2000
   -8.1242   -0.1415  -14.1897 C   0  0  0  0  0  0  0  0  0  0  0  0
   -8.2766    1.9513  -18.3237 C   0  0  0  0  0  0  0  0  0  0  0  0
   -6.5092    0.7598  -17.0182 C   0  0  0  0  0  0  0  0  0  0  0  0
   -8.0659   -0.5480  -18.5857 C   0  0  0  0  0  0  0  0  0  0  0  0
   -8.9746   -1.9611  -15.6796 C   0  0  0  0  0  0  0  0  0  0  0  0
   -8.9842    0.4630  -16.4312 C   0  0  0  0  0  0  0  0  0  0  0  0
   -7.1822    2.3695  -19.3014 C   0  0  0  0  0  0  0  0  0  0  0  0
   -5.5080    1.2386  -18.0660 C   0  0  0  0  0  0  0  0  0  0  0  0
   -7.9176   -1.9683  -18.0299 C   0  0  1  0  0  0  0  0  0  0  0  0
   -9.0614   -2.4404  -17.1269 C   0  0  2  0  0  0  0  0  0  0  0  0
   -7.9490    0.6247  -17.5768 C   0  0  0  0  0  0  0  0  0  0  0  0
  -10.0372    0.9679  -12.7756 C   0  0  0  0  0  0  0  0  0  0  0  0
  -10.3295   -1.2049  -11.5497 C   0  0  0  0  0  0  0  0  0  0  0  0
   -8.3438    0.2519  -11.0567 C   0  0  0  0  0  0  0  0  0  0  0  0
   -9.3201   -0.2190  -12.1338 C   0  0  0  0  0  0  0  0  0  0  0  0
   -8.6373   -0.5548  -15.4357 N   0  0  0  0  0  0  0  0  0  0  0  0
   -7.3548    0.8050  -14.0326 O   0  0  0  0  0  0  0  0  0  0  0  0
   -5.9251    2.4754  -18.6385 O   0  0  0  0  0  0  0  0  0  0  0  0
   -7.8865   -2.8347  -19.1751 O   0  0  0  0  0  0  0  0  0  0  0  0
  -10.3330   -2.0897  -17.6696 O   0  0  0  0  0  0  0  0  0  0  0  0
   -8.5814   -0.9083  -13.1489 O   0  0  0  0  0  0  0  0  0  0  0  0
   -8.3872    2.7563  -17.5844 H   0  0  0  0  0  0  0  0  0  0  0  0
   -9.2300    1.8739  -18.8587 H   0  0  0  0  0  0  0  0  0  0  0  0
   -6.1629   -0.1822  -16.5846 H   0  0  0  0  0  0  0  0  0  0  0  0
   -6.5182    1.5017  -16.2108 H   0  0  0  0  0  0  0  0  0  0  0  0
   -7.3280   -0.4168  -19.3941 H   0  0  0  0  0  0  0  0  0  0  0  0
   -9.0294   -0.4752  -19.1195 H   0  0  0  0  0  0  0  0  0  0  0  0
   -9.9401   -2.1922  -15.1693 H   0  0  0  0  0  0  0  0  0  0  0  0
   -8.2273   -2.5794  -15.1253 H   0  0  0  0  0  0  0  0  0  0  0  0
   -9.1186    1.4106  -15.8978 H   0  0  0  0  0  0  0  0  0  0  0  0
   -9.9672    0.2146  -16.8459 H   0  0  0  0  0  0  0  0  0  0  0  0
   -7.0976    1.6763  -20.1465 H   0  0  0  0  0  0  0  0  0  0  0  0
   -7.4195    3.3553  -19.7165 H   0  0  0  0  0  0  0  0  0  0  0  0
   -4.5366    1.4074  -17.5908 H   0  0  0  0  0  0  0  0  0  0  0  0
   -5.3513    0.5012  -18.8590 H   0  0  0  0  0  0  0  0  0  0  0  0
   -6.9497   -2.0902  -17.5293 H   0  0  0  0  0  0  0  0  0  0  0  0
   -9.0514   -3.5512  -17.1047 H   0  0  0  0  0  0  0  0  0  0  0  0
   -9.3161    1.6779  -13.1960 H   0  0  0  0  0  0  0  0  0  0  0  0
  -10.7145    0.6465  -13.5736 H   0  0  0  0  0  0  0  0  0  0  0  0
  -10.6189    1.5227  -12.0305 H   0  0  0  0  0  0  0  0  0  0  0  0
   -9.8193   -2.0581  -11.0882 H   0  0  0  0  0  0  0  0  0  0  0  0
  -10.9717   -1.6178  -12.3361 H   0  0  0  0  0  0  0  0  0  0  0  0
  -10.9660   -0.7320  -10.7950 H   0  0  0  0  0  0  0  0  0  0  0  0
   -7.8293   -0.5993  -10.5962 H   0  0  0  0  0  0  0  0  0  0  0  0
   -7.5894    0.9317  -11.4656 H   0  0  0  0  0  0  0  0  0  0  0  0
   -8.8747    0.7667  -10.2478 H   0  0  0  0  0  0  0  0  0  0  0  0
   -7.1234   -2.5563  -19.7003 H   0  0  0  0  0  0  0  0  0  0  0  0
  -10.3383   -2.4133  -18.5827 H   0  0  0  0  0  0  0  0  0  0  0  0
  1 16  1  0  0  0  0
  1 17  2  0  0  0  0
  1 21  1  0  0  0  0
  2  7  1  0  0  0  0
  2 11  1  0  0  0  0
  3  8  1  0  0  0  0
  3 11  1  0  0  0  0
  4  9  1  0  0  0  0
  4 11  1  0  0  0  0
  5 10  1  0  0  0  0
  5 16  1  0  0  0  0
  6 11  1  0  0  0  0
  6 16  1  0  0  0  0
  7 18  1  0  0  0  0
  8 18  1  0  0  0  0
  9 10  1  0  0  0  0
  9 19  1  1  0  0  0
 10 20  1  1  0  0  0
 12 15  1  0  0  0  0
 13 15  1  0  0  0  0
 14 15  1  0  0  0  0
 15 21  1  0  0  0  0
  2 22  1  0  0  0  0
  2 23  1  0  0  0  0
  3 24  1  0  0  0  0
  3 25  1  0  0  0  0
  4 26  1  0  0  0  0
  4 27  1  0  0  0  0
  5 28  1  0  0  0  0
  5 29  1  0  0  0  0
  6 30  1  0  0  0  0
  6 31  1  0  0  0  0
  7 32  1  0  0  0  0
  7 33  1  0  0  0  0
  8 34  1  0  0  0  0
  8 35  1  0  0  0  0
  9 36  1  0  0  0  0
 10 37  1  0  0  0  0
 12 38  1  0  0  0  0
 12 39  1  0  0  0  0
 12 40  1  0  0  0  0
 13 41  1  0  0  0  0
 13 42  1  0  0  0  0
 13 43  1  0  0  0  0
 14 44  1  0  0  0  0
 14 45  1  0  0  0  0
 14 46  1  0  0  0  0
 19 47  1  0  0  0  0
 20 48  1  0  0  0  0
M  END
> <id>
EN300-28229262

> <smiles>
CC(C)(C)OC(=O)N1C[C@@H](O)[C@@H](O)CC2(CCOCC2)C1 |&1:9,11,r|

> <IUPAC Name>
rac-tert-butyl (10R,11S)-10,11-dihydroxy-3-oxa-8-azaspiro[5.6]dodecane-8-carboxylate

> <CAS>
2639374-58-4

> <URL>
https://www.enaminestore.com/catalog/EN300-28229262

> <ROCS_ShapeQuery>
amalgated

> <ROCS_TanimotoCombo>
0.850 

> <ROCS_ShapeTanimoto>
0.682 

> <ROCS_ColorTanimoto>
0.168 

> <ROCS_RefTversky>
0.639 

> <ROCS_RefColorTversky>
0.324 

> <ROCS_RefTverskyCombo>
0.963 

> <ROCS_FitTversky>
1.110 

> <ROCS_FitColorTversky>
0.259 

> <ROCS_FitTverskyCombo>
1.369 

> <ROCS_ColorScore>
-2.303

> <ROCS_Overlap>
1054.943

> <ROCS_Rank>
201                 

$$$$
untitled-dbase-22_2
  -OEChem-10092318153D

 37 40  0     0  0  0  0  0  0999 V2000
   -8.9136   -2.2336  -14.8978 C   0  0  0  0  0  0  0  0  0  0  0  0
   -8.3191    0.4273  -15.4648 C   0  0  0  0  0  0  0  0  0  0  0  0
   -8.6055   -1.8548  -16.2157 C   0  0  0  0  0  0  0  0  0  0  0  0
   -8.2975   -0.5078  -16.5152 C   0  0  0  0  0  0  0  0  0  0  0  0
   -8.9066   -1.2930  -13.8719 C   0  0  0  0  0  0  0  0  0  0  0  0
   -8.6331    0.0407  -14.1595 C   0  0  0  0  0  0  0  0  0  0  0  0
   -8.6922   -2.9077  -17.2957 C   0  0  0  0  0  0  0  0  0  0  0  0
   -7.2192    2.2465  -18.2142 C   0  0  0  0  0  0  0  0  0  0  0  0
   -6.0435    1.4147  -17.7230 C   0  0  0  0  0  0  0  0  0  0  0  0
   -8.4068    1.2913  -18.3760 C   0  0  0  0  0  0  0  0  0  0  0  0
   -6.3897   -0.0154  -18.1077 C   0  0  0  0  0  0  0  0  0  0  0  0
   -8.5075   -1.1685  -18.9331 C   0  0  0  0  0  0  0  0  0  0  0  0
   -8.8258   -0.7839  -11.6102 C   0  0  0  0  0  0  0  0  0  0  0  0
   -9.3035    0.5990  -12.0081 C   0  0  0  0  0  0  0  0  0  0  0  0
   -7.9260   -0.1187  -17.9539 C   0  0  0  0  0  0  0  0  0  0  0  0
   -8.0925   -2.5243  -18.5733 N   0  0  0  0  0  0  0  0  0  0  0  0
   -9.1920   -1.7398  -12.6089 O   0  0  0  0  0  0  0  0  0  0  0  0
   -8.6459    1.0245  -13.2048 O   0  0  0  0  0  0  0  0  0  0  0  0
   -9.1487   -3.2727  -14.6756 H   0  0  0  0  0  0  0  0  0  0  0  0
   -8.1066    1.4764  -15.6600 H   0  0  0  0  0  0  0  0  0  0  0  0
   -8.2151   -3.8284  -16.9242 H   0  0  0  0  0  0  0  0  0  0  0  0
   -9.7500   -3.1454  -17.4828 H   0  0  0  0  0  0  0  0  0  0  0  0
   -7.4554    3.0790  -17.5220 H   0  0  0  0  0  0  0  0  0  0  0  0
   -6.9751    2.7137  -19.1907 H   0  0  0  0  0  0  0  0  0  0  0  0
   -5.0930    1.7446  -18.1669 H   0  0  0  0  0  0  0  0  0  0  0  0
   -5.9430    1.5100  -16.6308 H   0  0  0  0  0  0  0  0  0  0  0  0
   -9.2295    1.6558  -17.7334 H   0  0  0  0  0  0  0  0  0  0  0  0
   -8.7982    1.3339  -19.4075 H   0  0  0  0  0  0  0  0  0  0  0  0
   -6.0893   -0.1681  -19.1509 H   0  0  0  0  0  0  0  0  0  0  0  0
   -5.8278   -0.7396  -17.5124 H   0  0  0  0  0  0  0  0  0  0  0  0
   -9.6056   -1.1260  -18.9178 H   0  0  0  0  0  0  0  0  0  0  0  0
   -8.2057   -0.9516  -19.9693 H   0  0  0  0  0  0  0  0  0  0  0  0
   -7.7369   -0.8135  -11.4796 H   0  0  0  0  0  0  0  0  0  0  0  0
   -9.2914   -1.0906  -10.6685 H   0  0  0  0  0  0  0  0  0  0  0  0
  -10.3872    0.6189  -12.1783 H   0  0  0  0  0  0  0  0  0  0  0  0
   -9.0676    1.3235  -11.2225 H   0  0  0  0  0  0  0  0  0  0  0  0
   -7.0767   -2.5591  -18.4884 H   0  0  0  0  0  0  0  0  0  0  0  0
  1  3  2  0  0  0  0
  1  5  1  0  0  0  0
  2  4  2  0  0  0  0
  2  6  1  0  0  0  0
  3  4  1  0  0  0  0
  3  7  1  0  0  0  0
  4 15  1  0  0  0  0
  5  6  2  0  0  0  0
  5 17  1  0  0  0  0
  6 18  1  0  0  0  0
  7 16  1  0  0  0  0
  8  9  1  0  0  0  0
  8 10  1  0  0  0  0
  9 11  1  0  0  0  0
 10 15  1  0  0  0  0
 11 15  1  0  0  0  0
 12 15  1  0  0  0  0
 12 16  1  0  0  0  0
 13 14  1  0  0  0  0
 13 17  1  0  0  0  0
 14 18  1  0  0  0  0
  1 19  1  0  0  0  0
  2 20  1  0  0  0  0
  7 21  1  0  0  0  0
  7 22  1  0  0  0  0
  8 23  1  0  0  0  0
  8 24  1  0  0  0  0
  9 25  1  0  0  0  0
  9 26  1  0  0  0  0
 10 27  1  0  0  0  0
 10 28  1  0  0  0  0
 11 29  1  0  0  0  0
 11 30  1  0  0  0  0
 12 31  1  0  0  0  0
 12 32  1  0  0  0  0
 13 33  1  0  0  0  0
 13 34  1  0  0  0  0
 14 35  1  0  0  0  0
 14 36  1  0  0  0  0
 16 37  1  0  0  0  0
M  END
> <id>
EN300-26188

> <smiles>
Cl.C1CCC2(C1)CNCC=3C=C4OCCOC4=CC32

> <MDLNUMBER>
MFCD00573362

> <IUPAC Name>
3,6,7,8-tetrahydro-2H-spiro[[1,4]dioxino[2,3-g]isoquinoline-9,1'-cyclopentane] hydrochloride

> <CAS>
153643-88-0

> <Purity>
95

> <URL>
https://www.enaminestore.com/catalog/EN300-26188

> <Saltdate>
Cl

> <ROCS_ShapeQuery>
amalgated

> <ROCS_TanimotoCombo>
0.849 

> <ROCS_ShapeTanimoto>
0.573 

> <ROCS_ColorTanimoto>
0.276 

> <ROCS_RefTversky>
0.557 

> <ROCS_RefColorTversky>
0.461 

> <ROCS_RefTverskyCombo>
1.018 

> <ROCS_FitTversky>
1.053 

> <ROCS_FitColorTversky>
0.408 

> <ROCS_FitTverskyCombo>
1.461 

> <ROCS_ColorScore>
-3.249

> <ROCS_Overlap>
917.825

> <ROCS_Rank>
202                 

$$$$
untitled-dbase-4387_2
  -OEChem-10092318153D

 37 40  0     0  0  0  0  0  0999 V2000
   -8.9136   -2.2336  -14.8978 C   0  0  0  0  0  0  0  0  0  0  0  0
   -8.3191    0.4273  -15.4648 C   0  0  0  0  0  0  0  0  0  0  0  0
   -8.6055   -1.8548  -16.2157 C   0  0  0  0  0  0  0  0  0  0  0  0
   -8.2975   -0.5078  -16.5152 C   0  0  0  0  0  0  0  0  0  0  0  0
   -8.9066   -1.2930  -13.8719 C   0  0  0  0  0  0  0  0  0  0  0  0
   -8.6331    0.0407  -14.1595 C   0  0  0  0  0  0  0  0  0  0  0  0
   -8.6922   -2.9077  -17.2957 C   0  0  0  0  0  0  0  0  0  0  0  0
   -7.2192    2.2465  -18.2142 C   0  0  0  0  0  0  0  0  0  0  0  0
   -6.0435    1.4147  -17.7230 C   0  0  0  0  0  0  0  0  0  0  0  0
   -8.4068    1.2913  -18.3760 C   0  0  0  0  0  0  0  0  0  0  0  0
   -6.3897   -0.0154  -18.1077 C   0  0  0  0  0  0  0  0  0  0  0  0
   -8.5075   -1.1685  -18.9331 C   0  0  0  0  0  0  0  0  0  0  0  0
   -8.8258   -0.7839  -11.6102 C   0  0  0  0  0  0  0  0  0  0  0  0
   -9.3035    0.5990  -12.0081 C   0  0  0  0  0  0  0  0  0  0  0  0
   -7.9260   -0.1187  -17.9539 C   0  0  0  0  0  0  0  0  0  0  0  0
   -8.0925   -2.5243  -18.5733 N   0  0  0  0  0  0  0  0  0  0  0  0
   -9.1920   -1.7398  -12.6089 O   0  0  0  0  0  0  0  0  0  0  0  0
   -8.6459    1.0245  -13.2048 O   0  0  0  0  0  0  0  0  0  0  0  0
   -9.1487   -3.2727  -14.6756 H   0  0  0  0  0  0  0  0  0  0  0  0
   -8.1066    1.4764  -15.6600 H   0  0  0  0  0  0  0  0  0  0  0  0
   -8.2151   -3.8284  -16.9242 H   0  0  0  0  0  0  0  0  0  0  0  0
   -9.7500   -3.1454  -17.4828 H   0  0  0  0  0  0  0  0  0  0  0  0
   -7.4554    3.0790  -17.5220 H   0  0  0  0  0  0  0  0  0  0  0  0
   -6.9751    2.7137  -19.1907 H   0  0  0  0  0  0  0  0  0  0  0  0
   -5.0930    1.7446  -18.1669 H   0  0  0  0  0  0  0  0  0  0  0  0
   -5.9430    1.5100  -16.6308 H   0  0  0  0  0  0  0  0  0  0  0  0
   -9.2295    1.6558  -17.7334 H   0  0  0  0  0  0  0  0  0  0  0  0
   -8.7982    1.3339  -19.4075 H   0  0  0  0  0  0  0  0  0  0  0  0
   -6.0893   -0.1681  -19.1509 H   0  0  0  0  0  0  0  0  0  0  0  0
   -5.8278   -0.7396  -17.5124 H   0  0  0  0  0  0  0  0  0  0  0  0
   -9.6056   -1.1260  -18.9178 H   0  0  0  0  0  0  0  0  0  0  0  0
   -8.2057   -0.9516  -19.9693 H   0  0  0  0  0  0  0  0  0  0  0  0
   -7.7369   -0.8135  -11.4796 H   0  0  0  0  0  0  0  0  0  0  0  0
   -9.2914   -1.0906  -10.6685 H   0  0  0  0  0  0  0  0  0  0  0  0
  -10.3872    0.6189  -12.1783 H   0  0  0  0  0  0  0  0  0  0  0  0
   -9.0676    1.3235  -11.2225 H   0  0  0  0  0  0  0  0  0  0  0  0
   -7.0767   -2.5591  -18.4884 H   0  0  0  0  0  0  0  0  0  0  0  0
  1  3  2  0  0  0  0
  1  5  1  0  0  0  0
  2  4  2  0  0  0  0
  2  6  1  0  0  0  0
  3  4  1  0  0  0  0
  3  7  1  0  0  0  0
  4 15  1  0  0  0  0
  5  6  2  0  0  0  0
  5 17  1  0  0  0  0
  6 18  1  0  0  0  0
  7 16  1  0  0  0  0
  8  9  1  0  0  0  0
  8 10  1  0  0  0  0
  9 11  1  0  0  0  0
 10 15  1  0  0  0  0
 11 15  1  0  0  0  0
 12 15  1  0  0  0  0
 12 16  1  0  0  0  0
 13 14  1  0  0  0  0
 13 17  1  0  0  0  0
 14 18  1  0  0  0  0
  1 19  1  0  0  0  0
  2 20  1  0  0  0  0
  7 21  1  0  0  0  0
  7 22  1  0  0  0  0
  8 23  1  0  0  0  0
  8 24  1  0  0  0  0
  9 25  1  0  0  0  0
  9 26  1  0  0  0  0
 10 27  1  0  0  0  0
 10 28  1  0  0  0  0
 11 29  1  0  0  0  0
 11 30  1  0  0  0  0
 12 31  1  0  0  0  0
 12 32  1  0  0  0  0
 13 33  1  0  0  0  0
 13 34  1  0  0  0  0
 14 35  1  0  0  0  0
 14 36  1  0  0  0  0
 16 37  1  0  0  0  0
M  END
> <id>
EN300-57495

> <smiles>
C1CCC2(C1)CNCC=3C=C4OCCOC4=CC32

> <MDLNUMBER>
MFCD00439343

> <IUPAC Name>
3,6,7,8-tetrahydro-2H-spiro[[1,4]dioxino[2,3-g]isoquinoline-9,1'-cyclopentane]

> <CAS>
506418-57-1

> <URL>
https://www.enaminestore.com/catalog/EN300-57495

> <ROCS_ShapeQuery>
amalgated

> <ROCS_TanimotoCombo>
0.849 

> <ROCS_ShapeTanimoto>
0.573 

> <ROCS_ColorTanimoto>
0.276 

> <ROCS_RefTversky>
0.557 

> <ROCS_RefColorTversky>
0.461 

> <ROCS_RefTverskyCombo>
1.018 

> <ROCS_FitTversky>
1.053 

> <ROCS_FitColorTversky>
0.408 

> <ROCS_FitTverskyCombo>
1.461 

> <ROCS_ColorScore>
-3.249

> <ROCS_Overlap>
917.825

> <ROCS_Rank>
203                 

$$$$
untitled-dbase-42118_0
  -OEChem-10092318153D

 33 35  0     0  0  0  0  0  0999 V2000
   -8.5249   -2.1666  -15.3039 C   0  0  0  0  0  0  0  0  0  0  0  0
   -8.3697   -2.8229  -16.5262 C   0  0  0  0  0  0  0  0  0  0  0  0
   -8.3691   -0.7003  -17.6634 C   0  0  0  0  0  0  0  0  0  0  0  0
   -8.5985   -0.7640  -15.2376 C   0  0  0  0  0  0  0  0  0  0  0  0
   -8.5391   -0.0342  -16.4407 C   0  0  0  0  0  0  0  0  0  0  0  0
   -8.2875   -2.0899  -17.7050 C   0  0  0  0  0  0  0  0  0  0  0  0
   -8.6088    1.4672  -16.4195 C   0  0  0  0  0  0  0  0  0  0  0  0
  -10.1217   -0.3891  -13.2383 C   0  0  0  0  0  0  0  0  0  0  0  0
   -7.6343   -0.4218  -12.9131 C   0  0  0  0  0  0  0  0  0  0  0  0
  -10.2509    0.2255  -11.8418 C   0  0  0  0  0  0  0  0  0  0  0  0
   -7.8534    0.1874  -11.5237 C   0  0  0  0  0  0  0  0  0  0  0  0
   -9.3273    1.9371  -15.1690 C   0  0  0  0  0  0  0  0  0  0  0  0
   -8.7661   -0.0406  -13.8989 C   0  0  0  0  0  0  0  0  0  0  0  0
   -9.1527   -0.1935  -10.9718 N   0  0  0  0  0  0  0  0  0  0  0  0
   -8.6658    1.3962  -14.0318 O   0  0  0  0  0  0  0  0  0  0  0  0
   -8.1297   -2.7291  -18.8955 O   0  0  0  0  0  0  0  0  0  0  0  0
   -8.5895   -2.7686  -14.4011 H   0  0  0  0  0  0  0  0  0  0  0  0
   -8.3125   -3.9079  -16.5490 H   0  0  0  0  0  0  0  0  0  0  0  0
   -8.3032   -0.1307  -18.5875 H   0  0  0  0  0  0  0  0  0  0  0  0
   -7.5819    1.8519  -16.4297 H   0  0  0  0  0  0  0  0  0  0  0  0
   -9.1312    1.8461  -17.3048 H   0  0  0  0  0  0  0  0  0  0  0  0
  -10.2407   -1.4774  -13.1536 H   0  0  0  0  0  0  0  0  0  0  0  0
  -10.9583   -0.0355  -13.8519 H   0  0  0  0  0  0  0  0  0  0  0  0
   -6.6688   -0.0679  -13.2980 H   0  0  0  0  0  0  0  0  0  0  0  0
   -7.5520   -1.5099  -12.8024 H   0  0  0  0  0  0  0  0  0  0  0  0
  -10.2921    1.3196  -11.9023 H   0  0  0  0  0  0  0  0  0  0  0  0
  -11.1964   -0.1024  -11.3959 H   0  0  0  0  0  0  0  0  0  0  0  0
   -7.0666   -0.1717  -10.8511 H   0  0  0  0  0  0  0  0  0  0  0  0
   -7.7625    1.2796  -11.5600 H   0  0  0  0  0  0  0  0  0  0  0  0
   -9.2762    3.0285  -15.0999 H   0  0  0  0  0  0  0  0  0  0  0  0
  -10.3868    1.6596  -15.1709 H   0  0  0  0  0  0  0  0  0  0  0  0
   -9.2676    0.2354  -10.0541 H   0  0  0  0  0  0  0  0  0  0  0  0
   -8.0917   -3.6895  -18.7598 H   0  0  0  0  0  0  0  0  0  0  0  0
  1  2  1  0  0  0  0
  1  4  2  0  0  0  0
  2  6  2  0  0  0  0
  3  5  2  0  0  0  0
  3  6  1  0  0  0  0
  4  5  1  0  0  0  0
  4 13  1  0  0  0  0
  5  7  1  0  0  0  0
  6 16  1  0  0  0  0
  7 12  1  0  0  0  0
  8 10  1  0  0  0  0
  8 13  1  0  0  0  0
  9 11  1  0  0  0  0
  9 13  1  0  0  0  0
 10 14  1  0  0  0  0
 11 14  1  0  0  0  0
 12 15  1  0  0  0  0
 13 15  1  0  0  0  0
  1 17  1  0  0  0  0
  2 18  1  0  0  0  0
  3 19  1  0  0  0  0
  7 20  1  0  0  0  0
  7 21  1  0  0  0  0
  8 22  1  0  0  0  0
  8 23  1  0  0  0  0
  9 24  1  0  0  0  0
  9 25  1  0  0  0  0
 10 26  1  0  0  0  0
 10 27  1  0  0  0  0
 11 28  1  0  0  0  0
 11 29  1  0  0  0  0
 12 30  1  0  0  0  0
 12 31  1  0  0  0  0
 14 32  1  0  0  0  0
 16 33  1  0  0  0  0
M  END
> <id>
EN300-27664357

> <smiles>
OC=1C=CC2=C(CCOC32CCNCC3)C1

> <MDLNUMBER>
MFCD32879100

> <IUPAC Name>
3,4-dihydrospiro[2-benzopyran-1,4'-piperidin]-6-ol

> <CAS>
1679331-09-9

> <URL>
https://www.enaminestore.com/catalog/EN300-27664357

> <ROCS_ShapeQuery>
amalgated

> <ROCS_TanimotoCombo>
0.849 

> <ROCS_ShapeTanimoto>
0.519 

> <ROCS_ColorTanimoto>
0.331 

> <ROCS_RefTversky>
0.502 

> <ROCS_RefColorTversky>
0.529 

> <ROCS_RefTverskyCombo>
1.031 

> <ROCS_FitTversky>
1.071 

> <ROCS_FitColorTversky>
0.469 

> <ROCS_FitTverskyCombo>
1.539 

> <ROCS_ColorScore>
-3.729

> <ROCS_Overlap>
823.358

> <ROCS_Rank>
204                 

$$$$
untitled-dbase-42641_0
  -OEChem-10092318153D

 33 35  0     0  0  0  0  0  0999 V2000
   -8.5249   -2.1666  -15.3039 C   0  0  0  0  0  0  0  0  0  0  0  0
   -8.3697   -2.8229  -16.5262 C   0  0  0  0  0  0  0  0  0  0  0  0
   -8.3691   -0.7003  -17.6634 C   0  0  0  0  0  0  0  0  0  0  0  0
   -8.5985   -0.7640  -15.2376 C   0  0  0  0  0  0  0  0  0  0  0  0
   -8.5391   -0.0342  -16.4407 C   0  0  0  0  0  0  0  0  0  0  0  0
   -8.2875   -2.0899  -17.7050 C   0  0  0  0  0  0  0  0  0  0  0  0
   -8.6088    1.4672  -16.4195 C   0  0  0  0  0  0  0  0  0  0  0  0
  -10.1217   -0.3891  -13.2383 C   0  0  0  0  0  0  0  0  0  0  0  0
   -7.6343   -0.4218  -12.9131 C   0  0  0  0  0  0  0  0  0  0  0  0
  -10.2509    0.2255  -11.8418 C   0  0  0  0  0  0  0  0  0  0  0  0
   -7.8534    0.1874  -11.5237 C   0  0  0  0  0  0  0  0  0  0  0  0
   -9.3273    1.9371  -15.1690 C   0  0  0  0  0  0  0  0  0  0  0  0
   -8.7661   -0.0406  -13.8989 C   0  0  0  0  0  0  0  0  0  0  0  0
   -9.1527   -0.1935  -10.9718 N   0  0  0  0  0  0  0  0  0  0  0  0
   -8.6658    1.3962  -14.0318 O   0  0  0  0  0  0  0  0  0  0  0  0
   -8.1297   -2.7291  -18.8955 O   0  0  0  0  0  0  0  0  0  0  0  0
   -8.5895   -2.7686  -14.4011 H   0  0  0  0  0  0  0  0  0  0  0  0
   -8.3125   -3.9079  -16.5490 H   0  0  0  0  0  0  0  0  0  0  0  0
   -8.3032   -0.1307  -18.5875 H   0  0  0  0  0  0  0  0  0  0  0  0
   -7.5819    1.8519  -16.4297 H   0  0  0  0  0  0  0  0  0  0  0  0
   -9.1312    1.8461  -17.3048 H   0  0  0  0  0  0  0  0  0  0  0  0
  -10.2407   -1.4774  -13.1536 H   0  0  0  0  0  0  0  0  0  0  0  0
  -10.9583   -0.0355  -13.8519 H   0  0  0  0  0  0  0  0  0  0  0  0
   -6.6688   -0.0679  -13.2980 H   0  0  0  0  0  0  0  0  0  0  0  0
   -7.5520   -1.5099  -12.8024 H   0  0  0  0  0  0  0  0  0  0  0  0
  -10.2921    1.3196  -11.9023 H   0  0  0  0  0  0  0  0  0  0  0  0
  -11.1964   -0.1024  -11.3959 H   0  0  0  0  0  0  0  0  0  0  0  0
   -7.0666   -0.1717  -10.8511 H   0  0  0  0  0  0  0  0  0  0  0  0
   -7.7625    1.2796  -11.5600 H   0  0  0  0  0  0  0  0  0  0  0  0
   -9.2762    3.0285  -15.0999 H   0  0  0  0  0  0  0  0  0  0  0  0
  -10.3868    1.6596  -15.1709 H   0  0  0  0  0  0  0  0  0  0  0  0
   -9.2676    0.2354  -10.0541 H   0  0  0  0  0  0  0  0  0  0  0  0
   -8.0917   -3.6895  -18.7598 H   0  0  0  0  0  0  0  0  0  0  0  0
  1  2  1  0  0  0  0
  1  4  2  0  0  0  0
  2  6  2  0  0  0  0
  3  5  2  0  0  0  0
  3  6  1  0  0  0  0
  4  5  1  0  0  0  0
  4 13  1  0  0  0  0
  5  7  1  0  0  0  0
  6 16  1  0  0  0  0
  7 12  1  0  0  0  0
  8 10  1  0  0  0  0
  8 13  1  0  0  0  0
  9 11  1  0  0  0  0
  9 13  1  0  0  0  0
 10 14  1  0  0  0  0
 11 14  1  0  0  0  0
 12 15  1  0  0  0  0
 13 15  1  0  0  0  0
  1 17  1  0  0  0  0
  2 18  1  0  0  0  0
  3 19  1  0  0  0  0
  7 20  1  0  0  0  0
  7 21  1  0  0  0  0
  8 22  1  0  0  0  0
  8 23  1  0  0  0  0
  9 24  1  0  0  0  0
  9 25  1  0  0  0  0
 10 26  1  0  0  0  0
 10 27  1  0  0  0  0
 11 28  1  0  0  0  0
 11 29  1  0  0  0  0
 12 30  1  0  0  0  0
 12 31  1  0  0  0  0
 14 32  1  0  0  0  0
 16 33  1  0  0  0  0
M  END
> <id>
EN300-27700822

> <smiles>
Cl.OC=1C=CC2=C(CCOC32CCNCC3)C1

> <MDLNUMBER>
MFCD32878865

> <IUPAC Name>
3,4-dihydrospiro[2-benzopyran-1,4'-piperidin]-6-ol hydrochloride

> <CAS>
2567504-04-3

> <Purity>
95

> <URL>
https://www.enaminestore.com/catalog/EN300-27700822

> <Saltdate>
Cl

> <ROCS_ShapeQuery>
amalgated

> <ROCS_TanimotoCombo>
0.849 

> <ROCS_ShapeTanimoto>
0.519 

> <ROCS_ColorTanimoto>
0.331 

> <ROCS_RefTversky>
0.502 

> <ROCS_RefColorTversky>
0.529 

> <ROCS_RefTverskyCombo>
1.031 

> <ROCS_FitTversky>
1.071 

> <ROCS_FitColorTversky>
0.469 

> <ROCS_FitTverskyCombo>
1.539 

> <ROCS_ColorScore>
-3.729

> <ROCS_Overlap>
823.358

> <ROCS_Rank>
205                 

$$$$
untitled-dbase-34761_41
  -OEChem-10092318153D

 41 42  0     1  0  0  0  0  0999 V2000
   -8.7921   -0.9709  -13.8758 C   0  0  0  0  0  0  0  0  0  0  0  0
   -8.8792    1.3190  -16.9325 C   0  0  0  0  0  0  0  0  0  0  0  0
   -7.5053    0.8012  -17.3255 C   0  0  0  0  0  0  0  0  0  0  0  0
   -9.5754   -2.1168  -16.8632 C   0  0  0  0  0  0  0  0  0  0  0  0
   -9.2526    0.8405  -15.5364 C   0  0  0  0  0  0  0  0  0  0  0  0
   -9.1744   -3.1096  -17.9598 C   0  0  0  0  0  0  0  0  0  0  0  0
   -7.8990   -1.2175  -18.7959 C   0  0  0  0  0  0  0  0  0  0  0  0
   -7.4922   -0.7331  -17.3886 C   0  0  2  0  0  0  0  0  0  0  0  0
   -8.3476   -1.4022  -16.2806 C   0  0  1  0  0  0  0  0  0  0  0  0
   -8.0525   -0.7630  -11.1196 C   0  0  0  0  0  0  0  0  0  0  0  0
  -10.1094    0.6559  -10.8649 C   0  0  0  0  0  0  0  0  0  0  0  0
  -10.3251   -1.7425  -11.5787 C   0  0  0  0  0  0  0  0  0  0  0  0
   -9.4599   -0.4847  -11.6454 C   0  0  0  0  0  0  0  0  0  0  0  0
   -8.0708   -2.6644  -18.8111 N   0  0  0  0  0  0  0  0  0  0  0  0
   -8.7406   -0.4909  -15.1948 N   0  0  0  0  0  0  0  0  0  0  0  0
   -8.3818   -2.0743  -13.5210 O   0  0  0  0  0  0  0  0  0  0  0  0
   -9.3619   -0.0708  -13.0128 O   0  0  0  0  0  0  0  0  0  0  0  0
   -8.8858    2.4124  -16.9583 H   0  0  0  0  0  0  0  0  0  0  0  0
   -9.6249    0.9716  -17.6514 H   0  0  0  0  0  0  0  0  0  0  0  0
   -7.2126    1.2368  -18.2921 H   0  0  0  0  0  0  0  0  0  0  0  0
   -6.7628    1.1495  -16.5927 H   0  0  0  0  0  0  0  0  0  0  0  0
  -10.2826   -1.3934  -17.2864 H   0  0  0  0  0  0  0  0  0  0  0  0
  -10.1078   -2.6560  -16.0710 H   0  0  0  0  0  0  0  0  0  0  0  0
   -8.9084    1.5793  -14.7935 H   0  0  0  0  0  0  0  0  0  0  0  0
  -10.3503    0.7985  -15.4305 H   0  0  0  0  0  0  0  0  0  0  0  0
   -8.9259   -4.0917  -17.5048 H   0  0  0  0  0  0  0  0  0  0  0  0
  -10.0570   -3.3039  -18.6013 H   0  0  0  0  0  0  0  0  0  0  0  0
   -8.8326   -0.7421  -19.0891 H   0  0  0  0  0  0  0  0  0  0  0  0
   -7.1381   -0.9244  -19.5180 H   0  0  0  0  0  0  0  0  0  0  0  0
   -6.4405   -1.0500  -17.2396 H   0  0  0  0  0  0  0  0  0  0  0  0
   -7.7083   -2.1984  -15.8419 H   0  0  0  0  0  0  0  0  0  0  0  0
   -7.5829   -1.5812  -11.6774 H   0  0  0  0  0  0  0  0  0  0  0  0
   -7.4117    0.1216  -11.1945 H   0  0  0  0  0  0  0  0  0  0  0  0
   -8.0825   -1.0810  -10.0712 H   0  0  0  0  0  0  0  0  0  0  0  0
  -11.1195    0.8590  -11.2388 H   0  0  0  0  0  0  0  0  0  0  0  0
   -9.5421    1.5856  -10.9877 H   0  0  0  0  0  0  0  0  0  0  0  0
  -10.1747    0.4282   -9.7960 H   0  0  0  0  0  0  0  0  0  0  0  0
  -11.3347   -1.5431  -11.9558 H   0  0  0  0  0  0  0  0  0  0  0  0
   -9.8930   -2.5607  -12.1638 H   0  0  0  0  0  0  0  0  0  0  0  0
  -10.4430   -2.0797  -10.5426 H   0  0  0  0  0  0  0  0  0  0  0  0
   -7.2031   -3.1102  -18.4906 H   0  0  0  0  0  0  0  0  0  0  0  0
  1 15  1  0  0  0  0
  1 16  2  0  0  0  0
  1 17  1  0  0  0  0
  2  3  1  0  0  0  0
  2  5  1  0  0  0  0
  3  8  1  0  0  0  0
  4  6  1  0  0  0  0
  4  9  1  0  0  0  0
  5 15  1  0  0  0  0
  6 14  1  0  0  0  0
  7  8  1  0  0  0  0
  7 14  1  0  0  0  0
  8  9  1  0  0  0  0
  9 15  1  0  0  0  0
 10 13  1  0  0  0  0
 11 13  1  0  0  0  0
 12 13  1  0  0  0  0
 13 17  1  0  0  0  0
  2 18  1  0  0  0  0
  2 19  1  0  0  0  0
  3 20  1  0  0  0  0
  3 21  1  0  0  0  0
  4 22  1  0  0  0  0
  4 23  1  0  0  0  0
  5 24  1  0  0  0  0
  5 25  1  0  0  0  0
  6 26  1  0  0  0  0
  6 27  1  0  0  0  0
  7 28  1  0  0  0  0
  7 29  1  0  0  0  0
  8 30  1  0  0  0  0
  9 31  1  0  0  0  0
 10 32  1  0  0  0  0
 10 33  1  0  0  0  0
 10 34  1  0  0  0  0
 11 35  1  0  0  0  0
 11 36  1  0  0  0  0
 11 37  1  0  0  0  0
 12 38  1  0  0  0  0
 12 39  1  0  0  0  0
 12 40  1  0  0  0  0
 14 41  1  0  0  0  0
M  END
> <id>
EN300-1706550

> <smiles>
Cl.CC(C)(C)OC(=O)N1CCCC2CNCCC21

> <MDLNUMBER>
MFCD26954779

> <IUPAC Name>
tert-butyl decahydro-1,6-naphthyridine-1-carboxylate hydrochloride

> <CAS>
1965309-93-6

> <Purity>
95

> <URL>
https://www.enaminestore.com/catalog/EN300-1706550

> <Saltdate>
Cl

> <ROCS_ShapeQuery>
amalgated

> <ROCS_TanimotoCombo>
0.849 

> <ROCS_ShapeTanimoto>
0.595 

> <ROCS_ColorTanimoto>
0.254 

> <ROCS_RefTversky>
0.551 

> <ROCS_RefColorTversky>
0.379 

> <ROCS_RefTverskyCombo>
0.931 

> <ROCS_FitTversky>
1.154 

> <ROCS_FitColorTversky>
0.435 

> <ROCS_FitTverskyCombo>
1.589 

> <ROCS_ColorScore>
-2.637

> <ROCS_Overlap>
905.578

> <ROCS_Rank>
206                 

$$$$
untitled-dbase-49557_0
  -OEChem-10092318153D

 30 33  0     0  0  0  0  0  0999 V2000
   -8.2472    0.9025  -14.4232 C   0  0  0  0  0  0  0  0  0  0  0  0
   -9.2134   -1.7453  -14.0312 C   0  0  0  0  0  0  0  0  0  0  0  0
   -8.3116    0.0016  -15.5004 C   0  0  0  0  0  0  0  0  0  0  0  0
   -8.7948   -1.2883  -15.2843 C   0  0  0  0  0  0  0  0  0  0  0  0
   -8.6763    0.4687  -13.1621 C   0  0  0  0  0  0  0  0  0  0  0  0
   -9.1296   -0.8401  -12.9670 C   0  0  0  0  0  0  0  0  0  0  0  0
   -8.2126   -0.9651  -17.4091 C   0  0  0  0  0  0  0  0  0  0  0  0
   -8.0405   -1.3144  -18.8469 C   0  0  0  0  0  0  0  0  0  0  0  0
   -9.0553   -3.2388  -16.8794 C   0  0  0  0  0  0  0  0  0  0  0  0
   -9.1494   -3.4149  -18.3978 C   0  0  0  0  0  0  0  0  0  0  0  0
   -9.3767    0.9866  -11.0076 C   0  0  0  0  0  0  0  0  0  0  0  0
   -9.0879   -0.4628  -10.6734 C   0  0  0  0  0  0  0  0  0  0  0  0
   -7.9588    0.1843  -16.8201 N   0  0  0  0  0  0  0  0  0  0  0  0
   -8.7241   -1.8742  -16.5173 N   0  0  0  0  0  0  0  0  0  0  0  0
   -8.0202   -2.7672  -19.0791 N   0  0  0  0  0  0  0  0  0  0  0  0
   -8.6138    1.3907  -12.1470 O   0  0  0  0  0  0  0  0  0  0  0  0
   -9.5252   -1.3102  -11.7385 O   0  0  0  0  0  0  0  0  0  0  0  0
   -7.8849    1.9153  -14.5714 H   0  0  0  0  0  0  0  0  0  0  0  0
   -9.5719   -2.7591  -13.8883 H   0  0  0  0  0  0  0  0  0  0  0  0
   -8.8554   -0.8745  -19.4348 H   0  0  0  0  0  0  0  0  0  0  0  0
   -7.1074   -0.8719  -19.2198 H   0  0  0  0  0  0  0  0  0  0  0  0
  -10.0157   -3.4629  -16.4023 H   0  0  0  0  0  0  0  0  0  0  0  0
   -8.2862   -3.8979  -16.4664 H   0  0  0  0  0  0  0  0  0  0  0  0
   -9.1738   -4.4821  -18.6601 H   0  0  0  0  0  0  0  0  0  0  0  0
  -10.0908   -2.9840  -18.7610 H   0  0  0  0  0  0  0  0  0  0  0  0
  -10.4404    1.1486  -11.2218 H   0  0  0  0  0  0  0  0  0  0  0  0
   -9.0941    1.6337  -10.1717 H   0  0  0  0  0  0  0  0  0  0  0  0
   -8.0174   -0.6341  -10.5052 H   0  0  0  0  0  0  0  0  0  0  0  0
   -9.6279   -0.7600   -9.7689 H   0  0  0  0  0  0  0  0  0  0  0  0
   -8.0890   -2.9459  -20.0796 H   0  0  0  0  0  0  0  0  0  0  0  0
  1  3  2  0  0  0  0
  1  5  1  0  0  0  0
  2  4  2  0  0  0  0
  2  6  1  0  0  0  0
  3  4  1  0  0  0  0
  3 13  1  0  0  0  0
  4 14  1  0  0  0  0
  5  6  2  0  0  0  0
  5 16  1  0  0  0  0
  6 17  1  0  0  0  0
  7  8  1  0  0  0  0
  7 13  2  0  0  0  0
  7 14  1  0  0  0  0
  8 15  1  0  0  0  0
  9 10  1  0  0  0  0
  9 14  1  0  0  0  0
 10 15  1  0  0  0  0
 11 12  1  0  0  0  0
 11 16  1  0  0  0  0
 12 17  1  0  0  0  0
  1 18  1  0  0  0  0
  2 19  1  0  0  0  0
  8 20  1  0  0  0  0
  8 21  1  0  0  0  0
  9 22  1  0  0  0  0
  9 23  1  0  0  0  0
 10 24  1  0  0  0  0
 10 25  1  0  0  0  0
 11 26  1  0  0  0  0
 11 27  1  0  0  0  0
 12 28  1  0  0  0  0
 12 29  1  0  0  0  0
 15 30  1  0  0  0  0
M  END
> <id>
EN300-37336401

> <smiles>
Cl.Cl.C1CN2C(CN1)=NC=3C=C4OCCOC4=CC23

> <MDLNUMBER>
MFCD34600966

> <IUPAC Name>
4,7-dioxa-11,14,17-triazatetracyclo[8.7.0.0^{3,8}.0^{11,16}]heptadeca-1,3(8),9,16-tetraene dihydrochloride

> <CAS>
2758003-92-6

> <Purity>
95

> <URL>
https://www.enaminestore.com/catalog/EN300-37336401

> <Saltdate>
Cl

> <ROCS_ShapeQuery>
amalgated

> <ROCS_TanimotoCombo>
0.849 

> <ROCS_ShapeTanimoto>
0.591 

> <ROCS_ColorTanimoto>
0.258 

> <ROCS_RefTversky>
0.565 

> <ROCS_RefColorTversky>
0.490 

> <ROCS_RefTverskyCombo>
1.054 

> <ROCS_FitTversky>
1.085 

> <ROCS_FitColorTversky>
0.354 

> <ROCS_FitTverskyCombo>
1.438 

> <ROCS_ColorScore>
-3.502

> <ROCS_Overlap>
929.850

> <ROCS_Rank>
207                 

$$$$
untitled-dbase-50907_0
  -OEChem-10092318153D

 30 33  0     0  0  0  0  0  0999 V2000
   -8.2472    0.9025  -14.4232 C   0  0  0  0  0  0  0  0  0  0  0  0
   -9.2134   -1.7453  -14.0312 C   0  0  0  0  0  0  0  0  0  0  0  0
   -8.3116    0.0016  -15.5004 C   0  0  0  0  0  0  0  0  0  0  0  0
   -8.7948   -1.2883  -15.2843 C   0  0  0  0  0  0  0  0  0  0  0  0
   -8.6763    0.4687  -13.1621 C   0  0  0  0  0  0  0  0  0  0  0  0
   -9.1296   -0.8401  -12.9670 C   0  0  0  0  0  0  0  0  0  0  0  0
   -8.2126   -0.9651  -17.4091 C   0  0  0  0  0  0  0  0  0  0  0  0
   -8.0405   -1.3144  -18.8469 C   0  0  0  0  0  0  0  0  0  0  0  0
   -9.0553   -3.2388  -16.8794 C   0  0  0  0  0  0  0  0  0  0  0  0
   -9.1494   -3.4149  -18.3978 C   0  0  0  0  0  0  0  0  0  0  0  0
   -9.3767    0.9866  -11.0076 C   0  0  0  0  0  0  0  0  0  0  0  0
   -9.0879   -0.4628  -10.6734 C   0  0  0  0  0  0  0  0  0  0  0  0
   -7.9588    0.1843  -16.8201 N   0  0  0  0  0  0  0  0  0  0  0  0
   -8.7241   -1.8742  -16.5173 N   0  0  0  0  0  0  0  0  0  0  0  0
   -8.0202   -2.7672  -19.0791 N   0  0  0  0  0  0  0  0  0  0  0  0
   -8.6138    1.3907  -12.1470 O   0  0  0  0  0  0  0  0  0  0  0  0
   -9.5252   -1.3102  -11.7385 O   0  0  0  0  0  0  0  0  0  0  0  0
   -7.8849    1.9153  -14.5714 H   0  0  0  0  0  0  0  0  0  0  0  0
   -9.5719   -2.7591  -13.8883 H   0  0  0  0  0  0  0  0  0  0  0  0
   -8.8554   -0.8745  -19.4348 H   0  0  0  0  0  0  0  0  0  0  0  0
   -7.1074   -0.8719  -19.2198 H   0  0  0  0  0  0  0  0  0  0  0  0
  -10.0157   -3.4629  -16.4023 H   0  0  0  0  0  0  0  0  0  0  0  0
   -8.2862   -3.8979  -16.4664 H   0  0  0  0  0  0  0  0  0  0  0  0
   -9.1738   -4.4821  -18.6601 H   0  0  0  0  0  0  0  0  0  0  0  0
  -10.0908   -2.9840  -18.7610 H   0  0  0  0  0  0  0  0  0  0  0  0
  -10.4404    1.1486  -11.2218 H   0  0  0  0  0  0  0  0  0  0  0  0
   -9.0941    1.6337  -10.1717 H   0  0  0  0  0  0  0  0  0  0  0  0
   -8.0174   -0.6341  -10.5052 H   0  0  0  0  0  0  0  0  0  0  0  0
   -9.6279   -0.7600   -9.7689 H   0  0  0  0  0  0  0  0  0  0  0  0
   -8.0890   -2.9459  -20.0796 H   0  0  0  0  0  0  0  0  0  0  0  0
  1  3  2  0  0  0  0
  1  5  1  0  0  0  0
  2  4  2  0  0  0  0
  2  6  1  0  0  0  0
  3  4  1  0  0  0  0
  3 13  1  0  0  0  0
  4 14  1  0  0  0  0
  5  6  2  0  0  0  0
  5 16  1  0  0  0  0
  6 17  1  0  0  0  0
  7  8  1  0  0  0  0
  7 13  2  0  0  0  0
  7 14  1  0  0  0  0
  8 15  1  0  0  0  0
  9 10  1  0  0  0  0
  9 14  1  0  0  0  0
 10 15  1  0  0  0  0
 11 12  1  0  0  0  0
 11 16  1  0  0  0  0
 12 17  1  0  0  0  0
  1 18  1  0  0  0  0
  2 19  1  0  0  0  0
  8 20  1  0  0  0  0
  8 21  1  0  0  0  0
  9 22  1  0  0  0  0
  9 23  1  0  0  0  0
 10 24  1  0  0  0  0
 10 25  1  0  0  0  0
 11 26  1  0  0  0  0
 11 27  1  0  0  0  0
 12 28  1  0  0  0  0
 12 29  1  0  0  0  0
 15 30  1  0  0  0  0
M  END
> <id>
EN300-30268809

> <smiles>
C1CN2C(CN1)=NC=3C=C4OCCOC4=CC23

> <MDLNUMBER>
MFCD34601226

> <IUPAC Name>
4,7-dioxa-11,14,17-triazatetracyclo[8.7.0.0^{3,8}.0^{11,16}]heptadeca-1,3(8),9,16-tetraene

> <CAS>
1784178-77-3

> <URL>
https://www.enaminestore.com/catalog/EN300-30268809

> <ROCS_ShapeQuery>
amalgated

> <ROCS_TanimotoCombo>
0.849 

> <ROCS_ShapeTanimoto>
0.591 

> <ROCS_ColorTanimoto>
0.258 

> <ROCS_RefTversky>
0.565 

> <ROCS_RefColorTversky>
0.490 

> <ROCS_RefTverskyCombo>
1.054 

> <ROCS_FitTversky>
1.085 

> <ROCS_FitColorTversky>
0.354 

> <ROCS_FitTverskyCombo>
1.438 

> <ROCS_ColorScore>
-3.502

> <ROCS_Overlap>
929.850

> <ROCS_Rank>
208                 

$$$$
untitled-dbase-20039_0
  -OEChem-10092318153D

 31 33  0     0  0  0  0  0  0999 V2000
   -8.0493    0.3533  -14.9105 C   0  0  0  0  0  0  0  0  0  0  0  0
   -9.5958   -1.8664  -14.2492 C   0  0  0  0  0  0  0  0  0  0  0  0
   -8.3455   -0.5994  -15.8969 C   0  0  0  0  0  0  0  0  0  0  0  0
   -8.5332    0.2120  -13.6040 C   0  0  0  0  0  0  0  0  0  0  0  0
   -9.1124   -1.7279  -15.5591 C   0  0  0  0  0  0  0  0  0  0  0  0
   -9.2985   -0.9142  -13.2657 C   0  0  0  0  0  0  0  0  0  0  0  0
   -7.7789   -0.4174  -17.2831 C   0  0  0  0  0  0  0  0  0  0  0  0
   -9.4826   -2.7665  -16.5888 C   0  0  0  0  0  0  0  0  0  0  0  0
   -8.1794    1.2328  -12.5526 C   0  0  0  0  0  0  0  0  0  0  0  0
   -9.8572   -1.0707  -11.8725 C   0  0  0  0  0  0  0  0  0  0  0  0
   -8.4691   -1.2833  -18.3354 C   0  0  0  0  0  0  0  0  0  0  0  0
   -8.6057   -2.7166  -17.8384 C   0  0  0  0  0  0  0  0  0  0  0  0
   -9.0737    1.1360  -11.3152 C   0  0  0  0  0  0  0  0  0  0  0  0
   -9.1678   -0.2529  -10.8676 N   0  0  0  0  0  0  0  0  0  0  0  0
   -7.4352    1.2154  -15.1638 H   0  0  0  0  0  0  0  0  0  0  0  0
  -10.2111   -2.7268  -13.9926 H   0  0  0  0  0  0  0  0  0  0  0  0
   -7.8605    0.6338  -17.5849 H   0  0  0  0  0  0  0  0  0  0  0  0
   -6.7117   -0.6706  -17.2493 H   0  0  0  0  0  0  0  0  0  0  0  0
   -9.4119   -3.7692  -16.1501 H   0  0  0  0  0  0  0  0  0  0  0  0
  -10.5295   -2.6028  -16.8744 H   0  0  0  0  0  0  0  0  0  0  0  0
   -7.1328    1.0747  -12.2626 H   0  0  0  0  0  0  0  0  0  0  0  0
   -8.2624    2.2427  -12.9711 H   0  0  0  0  0  0  0  0  0  0  0  0
  -10.9235   -0.8133  -11.8906 H   0  0  0  0  0  0  0  0  0  0  0  0
   -9.7726   -2.1191  -11.5645 H   0  0  0  0  0  0  0  0  0  0  0  0
   -9.4629   -0.8764  -18.5608 H   0  0  0  0  0  0  0  0  0  0  0  0
   -7.8931   -1.2590  -19.2671 H   0  0  0  0  0  0  0  0  0  0  0  0
   -7.6117   -3.1238  -17.6140 H   0  0  0  0  0  0  0  0  0  0  0  0
   -9.0426   -3.3482  -18.6200 H   0  0  0  0  0  0  0  0  0  0  0  0
   -8.6465    1.7496  -10.5144 H   0  0  0  0  0  0  0  0  0  0  0  0
  -10.0737    1.5360  -11.5261 H   0  0  0  0  0  0  0  0  0  0  0  0
   -9.6879   -0.2946   -9.9916 H   0  0  0  0  0  0  0  0  0  0  0  0
  1  3  2  0  0  0  0
  1  4  1  0  0  0  0
  2  5  2  0  0  0  0
  2  6  1  0  0  0  0
  3  5  1  0  0  0  0
  3  7  1  0  0  0  0
  4  6  2  0  0  0  0
  4  9  1  0  0  0  0
  5  8  1  0  0  0  0
  6 10  1  0  0  0  0
  7 11  1  0  0  0  0
  8 12  1  0  0  0  0
  9 13  1  0  0  0  0
 10 14  1  0  0  0  0
 11 12  1  0  0  0  0
 13 14  1  0  0  0  0
  1 15  1  0  0  0  0
  2 16  1  0  0  0  0
  7 17  1  0  0  0  0
  7 18  1  0  0  0  0
  8 19  1  0  0  0  0
  8 20  1  0  0  0  0
  9 21  1  0  0  0  0
  9 22  1  0  0  0  0
 10 23  1  0  0  0  0
 10 24  1  0  0  0  0
 11 25  1  0  0  0  0
 11 26  1  0  0  0  0
 12 27  1  0  0  0  0
 12 28  1  0  0  0  0
 13 29  1  0  0  0  0
 13 30  1  0  0  0  0
 14 31  1  0  0  0  0
M  END
> <id>
EN300-1707065

> <smiles>
C1CCC=2C=C3CNCCC3=CC2C1

> <MDLNUMBER>
MFCD20673471

> <IUPAC Name>
1H,2H,3H,4H,6H,7H,8H,9H-cyclohexa[g]isoquinoline

> <CAS>
3160-19-8

> <URL>
https://www.enaminestore.com/catalog/EN300-1707065

> <ROCS_ShapeQuery>
amalgated

> <ROCS_TanimotoCombo>
0.849 

> <ROCS_ShapeTanimoto>
0.494 

> <ROCS_ColorTanimoto>
0.356 

> <ROCS_RefTversky>
0.467 

> <ROCS_RefColorTversky>
0.457 

> <ROCS_RefTverskyCombo>
0.923 

> <ROCS_FitTversky>
1.131 

> <ROCS_FitColorTversky>
0.617 

> <ROCS_FitTverskyCombo>
1.748 

> <ROCS_ColorScore>
-3.151

> <ROCS_Overlap>
764.169

> <ROCS_Rank>
209                 

$$$$
untitled-dbase-19542_0
  -OEChem-10092318153D

 31 33  0     0  0  0  0  0  0999 V2000
   -8.0493    0.3533  -14.9105 C   0  0  0  0  0  0  0  0  0  0  0  0
   -9.5958   -1.8664  -14.2492 C   0  0  0  0  0  0  0  0  0  0  0  0
   -8.3455   -0.5994  -15.8969 C   0  0  0  0  0  0  0  0  0  0  0  0
   -8.5332    0.2120  -13.6040 C   0  0  0  0  0  0  0  0  0  0  0  0
   -9.1124   -1.7279  -15.5591 C   0  0  0  0  0  0  0  0  0  0  0  0
   -9.2985   -0.9142  -13.2657 C   0  0  0  0  0  0  0  0  0  0  0  0
   -7.7789   -0.4174  -17.2831 C   0  0  0  0  0  0  0  0  0  0  0  0
   -9.4826   -2.7665  -16.5888 C   0  0  0  0  0  0  0  0  0  0  0  0
   -8.1794    1.2328  -12.5526 C   0  0  0  0  0  0  0  0  0  0  0  0
   -9.8572   -1.0707  -11.8725 C   0  0  0  0  0  0  0  0  0  0  0  0
   -8.4691   -1.2833  -18.3354 C   0  0  0  0  0  0  0  0  0  0  0  0
   -8.6057   -2.7166  -17.8384 C   0  0  0  0  0  0  0  0  0  0  0  0
   -9.0737    1.1360  -11.3152 C   0  0  0  0  0  0  0  0  0  0  0  0
   -9.1678   -0.2529  -10.8676 N   0  0  0  0  0  0  0  0  0  0  0  0
   -7.4352    1.2154  -15.1638 H   0  0  0  0  0  0  0  0  0  0  0  0
  -10.2111   -2.7268  -13.9926 H   0  0  0  0  0  0  0  0  0  0  0  0
   -7.8605    0.6338  -17.5849 H   0  0  0  0  0  0  0  0  0  0  0  0
   -6.7117   -0.6706  -17.2493 H   0  0  0  0  0  0  0  0  0  0  0  0
   -9.4119   -3.7692  -16.1501 H   0  0  0  0  0  0  0  0  0  0  0  0
  -10.5295   -2.6028  -16.8744 H   0  0  0  0  0  0  0  0  0  0  0  0
   -7.1328    1.0747  -12.2626 H   0  0  0  0  0  0  0  0  0  0  0  0
   -8.2624    2.2427  -12.9711 H   0  0  0  0  0  0  0  0  0  0  0  0
  -10.9235   -0.8133  -11.8906 H   0  0  0  0  0  0  0  0  0  0  0  0
   -9.7726   -2.1191  -11.5645 H   0  0  0  0  0  0  0  0  0  0  0  0
   -9.4629   -0.8764  -18.5608 H   0  0  0  0  0  0  0  0  0  0  0  0
   -7.8931   -1.2590  -19.2671 H   0  0  0  0  0  0  0  0  0  0  0  0
   -7.6117   -3.1238  -17.6140 H   0  0  0  0  0  0  0  0  0  0  0  0
   -9.0426   -3.3482  -18.6200 H   0  0  0  0  0  0  0  0  0  0  0  0
   -8.6465    1.7496  -10.5144 H   0  0  0  0  0  0  0  0  0  0  0  0
  -10.0737    1.5360  -11.5261 H   0  0  0  0  0  0  0  0  0  0  0  0
   -9.6879   -0.2946   -9.9916 H   0  0  0  0  0  0  0  0  0  0  0  0
  1  3  2  0  0  0  0
  1  4  1  0  0  0  0
  2  5  2  0  0  0  0
  2  6  1  0  0  0  0
  3  5  1  0  0  0  0
  3  7  1  0  0  0  0
  4  6  2  0  0  0  0
  4  9  1  0  0  0  0
  5  8  1  0  0  0  0
  6 10  1  0  0  0  0
  7 11  1  0  0  0  0
  8 12  1  0  0  0  0
  9 13  1  0  0  0  0
 10 14  1  0  0  0  0
 11 12  1  0  0  0  0
 13 14  1  0  0  0  0
  1 15  1  0  0  0  0
  2 16  1  0  0  0  0
  7 17  1  0  0  0  0
  7 18  1  0  0  0  0
  8 19  1  0  0  0  0
  8 20  1  0  0  0  0
  9 21  1  0  0  0  0
  9 22  1  0  0  0  0
 10 23  1  0  0  0  0
 10 24  1  0  0  0  0
 11 25  1  0  0  0  0
 11 26  1  0  0  0  0
 12 27  1  0  0  0  0
 12 28  1  0  0  0  0
 13 29  1  0  0  0  0
 13 30  1  0  0  0  0
 14 31  1  0  0  0  0
M  END
> <id>
EN300-1707064

> <smiles>
Cl.C1CCC=2C=C3CNCCC3=CC2C1

> <MDLNUMBER>
MFCD31689948

> <IUPAC Name>
1H,2H,3H,4H,6H,7H,8H,9H-cyclohexa[g]isoquinoline hydrochloride

> <CAS>
3160-23-4

> <Purity>
95

> <URL>
https://www.enaminestore.com/catalog/EN300-1707064

> <Saltdate>
Cl

> <ROCS_ShapeQuery>
amalgated

> <ROCS_TanimotoCombo>
0.849 

> <ROCS_ShapeTanimoto>
0.494 

> <ROCS_ColorTanimoto>
0.356 

> <ROCS_RefTversky>
0.467 

> <ROCS_RefColorTversky>
0.457 

> <ROCS_RefTverskyCombo>
0.923 

> <ROCS_FitTversky>
1.131 

> <ROCS_FitColorTversky>
0.617 

> <ROCS_FitTverskyCombo>
1.748 

> <ROCS_ColorScore>
-3.151

> <ROCS_Overlap>
764.169

> <ROCS_Rank>
210                 

$$$$
untitled-dbase-24342_141
  -OEChem-10092318153D

 41 42  0     1  0  0  0  0  0999 V2000
   -8.9177   -1.5779  -14.5554 C   0  0  0  0  0  0  0  0  0  0  0  0
   -6.7771    1.7439  -17.6622 C   0  0  0  0  0  0  0  0  0  0  0  0
   -8.2087    1.4208  -17.1975 C   0  0  0  0  0  0  0  0  0  0  0  0
   -6.8383    0.4781  -18.5362 C   0  0  0  0  0  0  0  0  0  0  0  0
   -9.1550   -0.7063  -18.2994 C   0  0  0  0  0  0  0  0  0  0  0  0
   -9.0779   -2.6997  -16.7620 C   0  0  0  0  0  0  0  0  0  0  0  0
   -7.3698   -0.9265  -16.4388 C   0  0  0  0  0  0  0  0  0  0  0  0
   -9.1246   -2.2362  -18.2267 C   0  0  2  0  0  0  0  0  0  0  0  0
   -7.9480   -0.0725  -17.5805 C   0  0  0  0  0  0  0  0  0  0  0  0
   -8.4195   -0.9827  -11.8009 C   0  0  0  0  0  0  0  0  0  0  0  0
   -9.0060    1.3855  -12.3984 C   0  0  0  0  0  0  0  0  0  0  0  0
  -10.7244   -0.4294  -12.6472 C   0  0  0  0  0  0  0  0  0  0  0  0
   -9.2375   -0.0871  -12.7302 C   0  0  0  0  0  0  0  0  0  0  0  0
   -8.4710   -1.7039  -15.8743 N   0  0  0  0  0  0  0  0  0  0  0  0
   -8.0001   -2.7751  -18.9924 N   0  0  0  0  0  0  0  0  0  0  0  0
   -9.3779   -2.5045  -13.8905 O   0  0  0  0  0  0  0  0  0  0  0  0
   -8.7949   -0.3011  -14.0753 O   0  0  0  0  0  0  0  0  0  0  0  0
   -6.6560    2.6862  -18.2012 H   0  0  0  0  0  0  0  0  0  0  0  0
   -6.0306    1.6951  -16.8624 H   0  0  0  0  0  0  0  0  0  0  0  0
   -8.4141    1.6285  -16.1433 H   0  0  0  0  0  0  0  0  0  0  0  0
   -8.9791    1.9154  -17.8024 H   0  0  0  0  0  0  0  0  0  0  0  0
   -7.1795    0.6782  -19.5585 H   0  0  0  0  0  0  0  0  0  0  0  0
   -5.9128   -0.1016  -18.5876 H   0  0  0  0  0  0  0  0  0  0  0  0
   -9.1600   -0.3748  -19.3565 H   0  0  0  0  0  0  0  0  0  0  0  0
  -10.1022   -0.3285  -17.8682 H   0  0  0  0  0  0  0  0  0  0  0  0
  -10.0960   -2.9525  -16.4129 H   0  0  0  0  0  0  0  0  0  0  0  0
   -8.4819   -3.6267  -16.6596 H   0  0  0  0  0  0  0  0  0  0  0  0
   -6.6187   -1.6319  -16.8197 H   0  0  0  0  0  0  0  0  0  0  0  0
   -6.8781   -0.3075  -15.6797 H   0  0  0  0  0  0  0  0  0  0  0  0
  -10.0624   -2.6289  -18.6776 H   0  0  0  0  0  0  0  0  0  0  0  0
   -8.5829   -2.0406  -12.0359 H   0  0  0  0  0  0  0  0  0  0  0  0
   -7.3480   -0.7711  -11.8769 H   0  0  0  0  0  0  0  0  0  0  0  0
   -8.7259   -0.8469  -10.7574 H   0  0  0  0  0  0  0  0  0  0  0  0
   -9.5910    2.0317  -13.0628 H   0  0  0  0  0  0  0  0  0  0  0  0
   -7.9553    1.6589  -12.5485 H   0  0  0  0  0  0  0  0  0  0  0  0
   -9.2794    1.6142  -11.3633 H   0  0  0  0  0  0  0  0  0  0  0  0
  -11.3113    0.2129  -13.3137 H   0  0  0  0  0  0  0  0  0  0  0  0
  -10.9137   -1.4731  -12.9180 H   0  0  0  0  0  0  0  0  0  0  0  0
  -11.1079   -0.2571  -11.6350 H   0  0  0  0  0  0  0  0  0  0  0  0
   -8.0329   -3.7653  -18.9361 H   0  0  0  0  0  0  0  0  0  0  0  0
   -8.0935   -2.4735  -19.9331 H   0  0  0  0  0  0  0  0  0  0  0  0
  1 14  1  0  0  0  0
  1 16  2  0  0  0  0
  1 17  1  0  0  0  0
  2  3  1  0  0  0  0
  2  4  1  0  0  0  0
  3  9  1  0  0  0  0
  4  9  1  0  0  0  0
  5  8  1  0  0  0  0
  5  9  1  0  0  0  0
  6  8  1  0  0  0  0
  6 14  1  0  0  0  0
  7  9  1  0  0  0  0
  7 14  1  0  0  0  0
  8 15  1  0  0  0  0
 10 13  1  0  0  0  0
 11 13  1  0  0  0  0
 12 13  1  0  0  0  0
 13 17  1  0  0  0  0
  2 18  1  0  0  0  0
  2 19  1  0  0  0  0
  3 20  1  0  0  0  0
  3 21  1  0  0  0  0
  4 22  1  0  0  0  0
  4 23  1  0  0  0  0
  5 24  1  0  0  0  0
  5 25  1  0  0  0  0
  6 26  1  0  0  0  0
  6 27  1  0  0  0  0
  7 28  1  0  0  0  0
  7 29  1  0  0  0  0
  8 30  1  0  0  0  0
 10 31  1  0  0  0  0
 10 32  1  0  0  0  0
 10 33  1  0  0  0  0
 11 34  1  0  0  0  0
 11 35  1  0  0  0  0
 11 36  1  0  0  0  0
 12 37  1  0  0  0  0
 12 38  1  0  0  0  0
 12 39  1  0  0  0  0
 15 40  1  0  0  0  0
 15 41  1  0  0  0  0
M  END
> <id>
EN300-2009662

> <smiles>
CC(C)(C)OC(=O)N1CC(N)CC2(CCC2)C1

> <MDLNUMBER>
MFCD31667301

> <IUPAC Name>
tert-butyl 8-amino-6-azaspiro[3.5]nonane-6-carboxylate

> <CAS>
2091625-52-2

> <Purity>
91

> <URL>
https://www.enaminestore.com/catalog/EN300-2009662

> <ROCS_ShapeQuery>
amalgated

> <ROCS_TanimotoCombo>
0.849 

> <ROCS_ShapeTanimoto>
0.542 

> <ROCS_ColorTanimoto>
0.308 

> <ROCS_RefTversky>
0.519 

> <ROCS_RefColorTversky>
0.440 

> <ROCS_RefTverskyCombo>
0.959 

> <ROCS_FitTversky>
1.087 

> <ROCS_FitColorTversky>
0.505 

> <ROCS_FitTverskyCombo>
1.592 

> <ROCS_ColorScore>
-3.059

> <ROCS_Overlap>
852.521

> <ROCS_Rank>
211                 

$$$$
untitled-dbase-53623_85
  -OEChem-10092318153D

 41 42  0     1  0  0  0  0  0999 V2000
   -8.0481   -0.4134  -12.4853 C   0  0  0  0  0  0  0  0  0  0  0  0
   -9.7367   -2.1031  -17.5248 C   0  0  0  0  0  0  0  0  0  0  0  0
   -9.8118   -1.1051  -16.3633 C   0  0  0  0  0  0  0  0  0  0  0  0
   -8.3263    0.9450  -15.9166 C   0  0  0  0  0  0  0  0  0  0  0  0
   -7.6196   -1.0160  -17.4165 C   0  0  0  0  0  0  0  0  0  0  0  0
   -8.6438    1.0799  -14.4335 C   0  0  0  0  0  0  0  0  0  0  0  0
   -7.7547   -1.1160  -14.8627 C   0  0  0  0  0  0  0  0  0  0  0  0
   -8.2487   -2.3697  -17.7268 C   0  0  2  0  0  0  0  0  0  0  0  0
   -8.3730   -0.5696  -16.1610 C   0  0  2  0  0  0  0  0  0  0  0  0
   -9.0888   -1.3865  -10.0078 C   0  0  0  0  0  0  0  0  0  0  0  0
  -10.8758    0.3566  -10.2855 C   0  0  0  0  0  0  0  0  0  0  0  0
  -10.6539   -1.4875  -11.9762 C   0  0  0  0  0  0  0  0  0  0  0  0
   -9.9035   -0.5711  -11.0108 C   0  0  0  0  0  0  0  0  0  0  0  0
   -8.1472   -0.1551  -13.8414 N   0  0  0  0  0  0  0  0  0  0  0  0
   -7.9420   -2.8382  -19.0671 N   0  0  0  0  0  0  0  0  0  0  0  0
   -7.2037   -1.1515  -11.9826 O   0  0  0  0  0  0  0  0  0  0  0  0
   -9.0061    0.2500  -11.7663 O   0  0  0  0  0  0  0  0  0  0  0  0
  -10.2960   -3.0206  -17.3142 H   0  0  0  0  0  0  0  0  0  0  0  0
  -10.1807   -1.6466  -18.4191 H   0  0  0  0  0  0  0  0  0  0  0  0
  -10.5178   -0.3063  -16.6183 H   0  0  0  0  0  0  0  0  0  0  0  0
  -10.1983   -1.5974  -15.4637 H   0  0  0  0  0  0  0  0  0  0  0  0
   -9.0291    1.5057  -16.5406 H   0  0  0  0  0  0  0  0  0  0  0  0
   -7.3180    1.3309  -16.1135 H   0  0  0  0  0  0  0  0  0  0  0  0
   -6.5373   -1.0893  -17.2663 H   0  0  0  0  0  0  0  0  0  0  0  0
   -7.7960   -0.3081  -18.2374 H   0  0  0  0  0  0  0  0  0  0  0  0
   -8.1666    1.9505  -13.9739 H   0  0  0  0  0  0  0  0  0  0  0  0
   -9.7228    1.1292  -14.2519 H   0  0  0  0  0  0  0  0  0  0  0  0
   -8.0882   -2.1229  -14.5910 H   0  0  0  0  0  0  0  0  0  0  0  0
   -6.6590   -1.1145  -14.8967 H   0  0  0  0  0  0  0  0  0  0  0  0
   -7.9059   -3.1161  -16.9992 H   0  0  0  0  0  0  0  0  0  0  0  0
   -8.3896   -2.0537  -10.5244 H   0  0  0  0  0  0  0  0  0  0  0  0
   -8.5184   -0.7411   -9.3319 H   0  0  0  0  0  0  0  0  0  0  0  0
   -9.7407   -2.0289   -9.4048 H   0  0  0  0  0  0  0  0  0  0  0  0
  -11.4625    0.9436  -11.0014 H   0  0  0  0  0  0  0  0  0  0  0  0
  -10.3354    1.0791   -9.6634 H   0  0  0  0  0  0  0  0  0  0  0  0
  -11.5671   -0.2024   -9.6466 H   0  0  0  0  0  0  0  0  0  0  0  0
  -11.2384   -0.9029  -12.6958 H   0  0  0  0  0  0  0  0  0  0  0  0
   -9.9686   -2.1351  -12.5326 H   0  0  0  0  0  0  0  0  0  0  0  0
  -11.3694   -2.1191  -11.4372 H   0  0  0  0  0  0  0  0  0  0  0  0
   -6.9578   -2.9632  -19.1433 H   0  0  0  0  0  0  0  0  0  0  0  0
   -8.4121   -3.7022  -19.2171 H   0  0  0  0  0  0  0  0  0  0  0  0
  1 14  1  0  0  0  0
  1 16  2  0  0  0  0
  1 17  1  0  0  0  0
  2  3  1  0  0  0  0
  2  8  1  0  0  0  0
  3  9  1  0  0  0  0
  4  6  1  0  0  0  0
  4  9  1  0  0  0  0
  5  8  1  0  0  0  0
  5  9  1  0  0  0  0
  6 14  1  0  0  0  0
  7  9  1  0  0  0  0
  7 14  1  0  0  0  0
  8 15  1  0  0  0  0
 10 13  1  0  0  0  0
 11 13  1  0  0  0  0
 12 13  1  0  0  0  0
 13 17  1  0  0  0  0
  2 18  1  0  0  0  0
  2 19  1  0  0  0  0
  3 20  1  0  0  0  0
  3 21  1  0  0  0  0
  4 22  1  0  0  0  0
  4 23  1  0  0  0  0
  5 24  1  0  0  0  0
  5 25  1  0  0  0  0
  6 26  1  0  0  0  0
  6 27  1  0  0  0  0
  7 28  1  0  0  0  0
  7 29  1  0  0  0  0
  8 30  1  0  0  0  0
 10 31  1  0  0  0  0
 10 32  1  0  0  0  0
 10 33  1  0  0  0  0
 11 34  1  0  0  0  0
 11 35  1  0  0  0  0
 11 36  1  0  0  0  0
 12 37  1  0  0  0  0
 12 38  1  0  0  0  0
 12 39  1  0  0  0  0
 15 40  1  0  0  0  0
 15 41  1  0  0  0  0
M  END
> <id>
EN300-1668523

> <smiles>
CC(C)(C)OC(=O)N1CCC2(CCC(N)C2)C1

> <MDLNUMBER>
MFCD24384500

> <IUPAC Name>
tert-butyl 7-amino-2-azaspiro[4.4]nonane-2-carboxylate

> <Purity>
95

> <URL>
https://www.enaminestore.com/catalog/EN300-1668523

> <ROCS_ShapeQuery>
amalgated

> <ROCS_TanimotoCombo>
0.849 

> <ROCS_ShapeTanimoto>
0.562 

> <ROCS_ColorTanimoto>
0.288 

> <ROCS_RefTversky>
0.532 

> <ROCS_RefColorTversky>
0.418 

> <ROCS_RefTverskyCombo>
0.950 

> <ROCS_FitTversky>
1.108 

> <ROCS_FitColorTversky>
0.480 

> <ROCS_FitTverskyCombo>
1.588 

> <ROCS_ColorScore>
-2.904

> <ROCS_Overlap>
874.554

> <ROCS_Rank>
212                 

$$$$
untitled-dbase-30540_89
  -OEChem-10092318153D

 43 45  0     1  0  0  0  0  0999 V2000
   -9.0109    0.1386  -11.2721 C   0  0  0  0  0  0  0  0  0  0  0  0
   -8.0665    0.7396  -12.0884 C   0  0  0  0  0  0  0  0  0  0  0  0
   -9.8689   -0.8174  -11.8060 C   0  0  0  0  0  0  0  0  0  0  0  0
   -8.0053    0.4076  -13.4442 C   0  0  0  0  0  0  0  0  0  0  0  0
  -10.6321   -2.1939  -13.6414 C   0  0  0  0  0  0  0  0  0  0  0  0
  -10.5378   -2.6274  -14.9576 C   0  0  0  0  0  0  0  0  0  0  0  0
   -9.8080   -1.1690  -13.1654 C   0  0  0  0  0  0  0  0  0  0  0  0
   -8.9008   -0.5163  -14.0428 C   0  0  0  0  0  0  0  0  0  0  0  0
   -9.6573   -2.0039  -15.8435 C   0  0  0  0  0  0  0  0  0  0  0  0
   -8.9012   -0.8849  -15.4278 C   0  0  0  0  0  0  0  0  0  0  0  0
   -8.0868    1.2474  -16.4335 C   0  0  0  0  0  0  0  0  0  0  0  0
   -9.5528   -2.5177  -17.2519 C   0  0  0  0  0  0  0  0  0  0  0  0
   -7.7270   -0.8798  -17.6463 C   0  0  0  0  0  0  0  0  0  0  0  0
   -8.1145   -2.3493  -17.7142 C   0  0  2  0  0  0  0  0  0  0  0  0
   -5.5867    2.0480  -16.3778 C   0  0  0  0  0  0  0  0  0  0  0  0
   -5.6720    2.3470  -18.8703 C   0  0  0  0  0  0  0  0  0  0  0  0
   -6.8292    3.9979  -17.3724 C   0  0  0  0  0  0  0  0  0  0  0  0
   -6.4279    2.5351  -17.5568 C   0  0  0  0  0  0  0  0  0  0  0  0
   -8.1692   -0.1616  -16.4414 N   0  0  0  0  0  0  0  0  0  0  0  0
   -8.4183    1.9773  -15.5014 O   0  0  0  0  0  0  0  0  0  0  0  0
   -7.9829   -2.7969  -19.0581 O   0  0  0  0  0  0  0  0  0  0  0  0
   -7.6179    1.7412  -17.6264 O   0  0  0  0  0  0  0  0  0  0  0  0
   -9.0650    0.3929  -10.2181 H   0  0  0  0  0  0  0  0  0  0  0  0
   -7.3680    1.4612  -11.6750 H   0  0  0  0  0  0  0  0  0  0  0  0
  -10.5797   -1.3041  -11.1401 H   0  0  0  0  0  0  0  0  0  0  0  0
   -7.2143    0.8748  -14.0265 H   0  0  0  0  0  0  0  0  0  0  0  0
  -11.3324   -2.6972  -12.9779 H   0  0  0  0  0  0  0  0  0  0  0  0
  -11.1599   -3.4531  -15.2883 H   0  0  0  0  0  0  0  0  0  0  0  0
   -9.7920   -3.5664  -17.2323 H   0  0  0  0  0  0  0  0  0  0  0  0
  -10.2170   -1.9720  -17.8940 H   0  0  0  0  0  0  0  0  0  0  0  0
   -6.6141   -0.7626  -17.7118 H   0  0  0  0  0  0  0  0  0  0  0  0
   -8.1112   -0.3661  -18.5620 H   0  0  0  0  0  0  0  0  0  0  0  0
   -7.4508   -2.9493  -17.1008 H   0  0  0  0  0  0  0  0  0  0  0  0
   -6.1259    2.1813  -15.4331 H   0  0  0  0  0  0  0  0  0  0  0  0
   -5.3218    0.9907  -16.4809 H   0  0  0  0  0  0  0  0  0  0  0  0
   -4.6619    2.6297  -16.2907 H   0  0  0  0  0  0  0  0  0  0  0  0
   -6.2719    2.6952  -19.7190 H   0  0  0  0  0  0  0  0  0  0  0  0
   -5.4650    1.2864  -19.0532 H   0  0  0  0  0  0  0  0  0  0  0  0
   -4.7219    2.8909  -18.8711 H   0  0  0  0  0  0  0  0  0  0  0  0
   -7.4326    4.3475  -18.2179 H   0  0  0  0  0  0  0  0  0  0  0  0
   -7.4047    4.1454  -16.4528 H   0  0  0  0  0  0  0  0  0  0  0  0
   -5.9440    4.6431  -17.3365 H   0  0  0  0  0  0  0  0  0  0  0  0
   -8.2381   -3.7320  -19.0623 H   0  0  0  0  0  0  0  0  0  0  0  0
  1  2  1  0  0  0  0
  1  3  2  0  0  0  0
  2  4  2  0  0  0  0
  3  7  1  0  0  0  0
  4  8  1  0  0  0  0
  5  6  1  0  0  0  0
  5  7  2  0  0  0  0
  6  9  2  0  0  0  0
  7  8  1  0  0  0  0
  8 10  2  0  0  0  0
  9 10  1  0  0  0  0
  9 12  1  0  0  0  0
 10 19  1  0  0  0  0
 11 19  1  0  0  0  0
 11 20  2  0  0  0  0
 11 22  1  0  0  0  0
 12 14  1  0  0  0  0
 13 14  1  0  0  0  0
 13 19  1  0  0  0  0
 14 21  1  0  0  0  0
 15 18  1  0  0  0  0
 16 18  1  0  0  0  0
 17 18  1  0  0  0  0
 18 22  1  0  0  0  0
  1 23  1  0  0  0  0
  2 24  1  0  0  0  0
  3 25  1  0  0  0  0
  4 26  1  0  0  0  0
  5 27  1  0  0  0  0
  6 28  1  0  0  0  0
 12 29  1  0  0  0  0
 12 30  1  0  0  0  0
 13 31  1  0  0  0  0
 13 32  1  0  0  0  0
 14 33  1  0  0  0  0
 15 34  1  0  0  0  0
 15 35  1  0  0  0  0
 15 36  1  0  0  0  0
 16 37  1  0  0  0  0
 16 38  1  0  0  0  0
 16 39  1  0  0  0  0
 17 40  1  0  0  0  0
 17 41  1  0  0  0  0
 17 42  1  0  0  0  0
 21 43  1  0  0  0  0
M  END
> <id>
EN300-26666150

> <smiles>
CC(C)(C)OC(=O)N1CC(O)CC=2C=CC=3C=CC=CC3C12

> <IUPAC Name>
tert-butyl 3-hydroxy-1H,2H,3H,4H-benzo[h]quinoline-1-carboxylate

> <CAS>
2413900-65-7

> <URL>
https://www.enaminestore.com/catalog/EN300-26666150

> <ROCS_ShapeQuery>
amalgated

> <ROCS_TanimotoCombo>
0.849 

> <ROCS_ShapeTanimoto>
0.614 

> <ROCS_ColorTanimoto>
0.235 

> <ROCS_RefTversky>
0.619 

> <ROCS_RefColorTversky>
0.381 

> <ROCS_RefTverskyCombo>
1.000 

> <ROCS_FitTversky>
0.986 

> <ROCS_FitColorTversky>
0.380 

> <ROCS_FitTverskyCombo>
1.367 

> <ROCS_ColorScore>
-2.667

> <ROCS_Overlap>
1025.036

> <ROCS_Rank>
213                 

$$$$
untitled-dbase-15107_112
  -OEChem-10092318153D

 41 41  0     1  0  0  0  0  0999 V2000
   -8.5416    0.1374  -14.8488 C   0  0  0  0  0  0  0  0  0  0  0  0
   -8.7190   -3.0394  -16.0990 C   0  0  0  0  0  0  0  0  0  0  0  0
   -8.9824   -0.5806  -18.3813 C   0  0  0  0  0  0  0  0  0  0  0  0
   -7.6836   -1.9626  -15.7909 C   0  0  0  0  0  0  0  0  0  0  0  0
   -7.9982   -0.0632  -17.3336 C   0  0  0  0  0  0  0  0  0  0  0  0
   -9.7334   -2.7541  -17.2241 C   0  0  1  0  0  0  0  0  0  0  0  0
   -9.1700   -2.1028  -18.5117 C   0  0  2  0  0  0  0  0  0  0  0  0
   -8.5603   -0.5162  -11.3375 C   0  0  0  0  0  0  0  0  0  0  0  0
   -9.2813    1.5768  -12.5155 C   0  0  0  0  0  0  0  0  0  0  0  0
  -10.9014   -0.3119  -12.2047 C   0  0  0  0  0  0  0  0  0  0  0  0
  -10.4752   -4.0604  -17.5526 C   0  0  0  0  0  0  0  0  0  0  0  0
   -9.4346    0.0532  -12.4606 C   0  0  0  0  0  0  0  0  0  0  0  0
   -8.1817   -0.6017  -15.9806 N   0  0  0  0  0  0  0  0  0  0  0  0
   -7.9713   -2.7534  -19.0385 N   0  0  0  0  0  0  0  0  0  0  0  0
   -9.0146   -0.5110  -13.7272 N   0  0  0  0  0  0  0  0  0  0  0  0
   -8.4475    1.3723  -14.8095 O   0  0  0  0  0  0  0  0  0  0  0  0
  -11.4389   -3.8180  -18.4494 F   0  0  0  0  0  0  0  0  0  0  0  0
   -9.6149   -4.9522  -18.0586 F   0  0  0  0  0  0  0  0  0  0  0  0
  -11.0242   -4.5592  -16.4383 F   0  0  0  0  0  0  0  0  0  0  0  0
   -8.2075   -4.0094  -16.2900 H   0  0  0  0  0  0  0  0  0  0  0  0
   -9.2925   -3.2235  -15.1639 H   0  0  0  0  0  0  0  0  0  0  0  0
   -9.9667   -0.1111  -18.2147 H   0  0  0  0  0  0  0  0  0  0  0  0
   -8.6510   -0.1881  -19.3584 H   0  0  0  0  0  0  0  0  0  0  0  0
   -7.2964   -2.0635  -14.7593 H   0  0  0  0  0  0  0  0  0  0  0  0
   -6.7963   -2.1147  -16.4310 H   0  0  0  0  0  0  0  0  0  0  0  0
   -6.9792   -0.2749  -17.6689 H   0  0  0  0  0  0  0  0  0  0  0  0
   -8.0821    1.0249  -17.2564 H   0  0  0  0  0  0  0  0  0  0  0  0
  -10.4895   -2.0716  -16.8164 H   0  0  0  0  0  0  0  0  0  0  0  0
   -9.9567   -2.2316  -19.2863 H   0  0  0  0  0  0  0  0  0  0  0  0
   -8.6527   -1.6070  -11.2777 H   0  0  0  0  0  0  0  0  0  0  0  0
   -7.5028   -0.2765  -11.4947 H   0  0  0  0  0  0  0  0  0  0  0  0
   -8.8569   -0.1122  -10.3625 H   0  0  0  0  0  0  0  0  0  0  0  0
   -9.8983    2.0077  -13.3126 H   0  0  0  0  0  0  0  0  0  0  0  0
   -8.2429    1.8625  -12.7197 H   0  0  0  0  0  0  0  0  0  0  0  0
   -9.5793    2.0421  -11.5694 H   0  0  0  0  0  0  0  0  0  0  0  0
  -11.5505    0.0837  -12.9945 H   0  0  0  0  0  0  0  0  0  0  0  0
  -11.0411   -1.3979  -12.1653 H   0  0  0  0  0  0  0  0  0  0  0  0
  -11.2541    0.1075  -11.2553 H   0  0  0  0  0  0  0  0  0  0  0  0
   -8.1825   -3.7100  -19.1927 H   0  0  0  0  0  0  0  0  0  0  0  0
   -7.7263   -2.3048  -19.8883 H   0  0  0  0  0  0  0  0  0  0  0  0
   -9.0816   -1.5697  -13.7977 H   0  0  0  0  0  0  0  0  0  0  0  0
  1 13  1  0  0  0  0
  1 15  1  0  0  0  0
  1 16  2  0  0  0  0
  2  4  1  0  0  0  0
  2  6  1  0  0  0  0
  3  5  1  0  0  0  0
  3  7  1  0  0  0  0
  4 13  1  0  0  0  0
  5 13  1  0  0  0  0
  6  7  1  0  0  0  0
  6 11  1  0  0  0  0
  7 14  1  0  0  0  0
  8 12  1  0  0  0  0
  9 12  1  0  0  0  0
 10 12  1  0  0  0  0
 11 17  1  0  0  0  0
 11 18  1  0  0  0  0
 11 19  1  0  0  0  0
 12 15  1  0  0  0  0
  2 20  1  0  0  0  0
  2 21  1  0  0  0  0
  3 22  1  0  0  0  0
  3 23  1  0  0  0  0
  4 24  1  0  0  0  0
  4 25  1  0  0  0  0
  5 26  1  0  0  0  0
  5 27  1  0  0  0  0
  6 28  1  0  0  0  0
  7 29  1  0  0  0  0
  8 30  1  0  0  0  0
  8 31  1  0  0  0  0
  8 32  1  0  0  0  0
  9 33  1  0  0  0  0
  9 34  1  0  0  0  0
  9 35  1  0  0  0  0
 10 36  1  0  0  0  0
 10 37  1  0  0  0  0
 10 38  1  0  0  0  0
 14 39  1  0  0  0  0
 14 40  1  0  0  0  0
 15 41  1  0  0  0  0
M  END
> <id>
EN300-763107

> <smiles>
CC(C)(C)NC(=O)N1CCC(N)C(CC1)C(F)(F)F

> <IUPAC Name>
4-amino-N-tert-butyl-5-(trifluoromethyl)azepane-1-carboxamide

> <CAS>
2138515-70-3

> <URL>
https://www.enaminestore.com/catalog/EN300-763107

> <ROCS_ShapeQuery>
amalgated

> <ROCS_TanimotoCombo>
0.849 

> <ROCS_ShapeTanimoto>
0.551 

> <ROCS_ColorTanimoto>
0.297 

> <ROCS_RefTversky>
0.542 

> <ROCS_RefColorTversky>
0.428 

> <ROCS_RefTverskyCombo>
0.970 

> <ROCS_FitTversky>
1.033 

> <ROCS_FitColorTversky>
0.492 

> <ROCS_FitTverskyCombo>
1.525 

> <ROCS_ColorScore>
-2.978

> <ROCS_Overlap>
892.173

> <ROCS_Rank>
214                 

$$$$
untitled-dbase-15124_13
  -OEChem-10092318153D

 44 45  0     0  0  0  0  0  0999 V2000
   -9.4548   -0.8965  -12.7289 C   0  0  0  0  0  0  0  0  0  0  0  0
   -8.3209   -2.8794  -16.5904 C   0  0  0  0  0  0  0  0  0  0  0  0
   -9.8344   -1.4796  -18.0590 C   0  0  0  0  0  0  0  0  0  0  0  0
   -7.5792   -1.6126  -16.1594 C   0  0  0  0  0  0  0  0  0  0  0  0
   -9.0780   -0.2212  -17.6304 C   0  0  0  0  0  0  0  0  0  0  0  0
   -7.9251    0.8569  -13.7010 C   0  0  0  0  0  0  0  0  0  0  0  0
   -9.5495   -0.3330  -15.1404 C   0  0  0  0  0  0  0  0  0  0  0  0
   -7.7836    1.6444  -14.9929 C   0  0  0  0  0  0  0  0  0  0  0  0
   -8.9806   -2.7521  -17.9697 C   0  0  0  0  0  0  0  0  0  0  0  0
   -8.4484   -0.3376  -16.2274 C   0  0  0  0  0  0  0  0  0  0  0  0
  -10.2404    1.0584  -11.4258 C   0  0  0  0  0  0  0  0  0  0  0  0
   -7.9402    0.1309  -11.0468 C   0  0  0  0  0  0  0  0  0  0  0  0
   -9.9497   -1.1690  -10.3082 C   0  0  0  0  0  0  0  0  0  0  0  0
   -9.3961   -0.2210  -11.3806 C   0  0  0  0  0  0  0  0  0  0  0  0
   -8.9808   -0.1496  -13.8064 N   0  0  0  0  0  0  0  0  0  0  0  0
   -7.9623   -2.7798  -19.0237 N   0  0  0  0  0  0  0  0  0  0  0  0
   -9.9065   -2.0400  -12.8210 O   0  0  0  0  0  0  0  0  0  0  0  0
   -7.5430    0.7783  -16.0970 O   0  0  0  0  0  0  0  0  0  0  0  0
   -7.6180   -3.7337  -16.5812 H   0  0  0  0  0  0  0  0  0  0  0  0
   -9.0883   -3.1200  -15.8318 H   0  0  0  0  0  0  0  0  0  0  0  0
  -10.7338   -1.5888  -17.4284 H   0  0  0  0  0  0  0  0  0  0  0  0
  -10.2081   -1.3468  -19.0900 H   0  0  0  0  0  0  0  0  0  0  0  0
   -7.2117   -1.7508  -15.1279 H   0  0  0  0  0  0  0  0  0  0  0  0
   -6.6764   -1.5148  -16.7823 H   0  0  0  0  0  0  0  0  0  0  0  0
   -8.2931   -0.0267  -18.3780 H   0  0  0  0  0  0  0  0  0  0  0  0
   -9.7654    0.6390  -17.6631 H   0  0  0  0  0  0  0  0  0  0  0  0
   -6.9656    0.4001  -13.4237 H   0  0  0  0  0  0  0  0  0  0  0  0
   -8.2183    1.5280  -12.8799 H   0  0  0  0  0  0  0  0  0  0  0  0
  -10.2268    0.5190  -15.2958 H   0  0  0  0  0  0  0  0  0  0  0  0
  -10.1587   -1.2395  -15.2114 H   0  0  0  0  0  0  0  0  0  0  0  0
   -8.7150    2.1816  -15.1965 H   0  0  0  0  0  0  0  0  0  0  0  0
   -6.9927    2.3970  -14.9216 H   0  0  0  0  0  0  0  0  0  0  0  0
   -9.6384   -3.6236  -18.1195 H   0  0  0  0  0  0  0  0  0  0  0  0
  -10.2256    1.5827  -10.4630 H   0  0  0  0  0  0  0  0  0  0  0  0
   -9.8632    1.7518  -12.1862 H   0  0  0  0  0  0  0  0  0  0  0  0
  -11.2873    0.8396  -11.6672 H   0  0  0  0  0  0  0  0  0  0  0  0
   -7.8597    0.6246  -10.0711 H   0  0  0  0  0  0  0  0  0  0  0  0
   -7.5099    0.8060  -11.7959 H   0  0  0  0  0  0  0  0  0  0  0  0
   -7.3157   -0.7693  -11.0136 H   0  0  0  0  0  0  0  0  0  0  0  0
   -9.9216   -0.7082   -9.3137 H   0  0  0  0  0  0  0  0  0  0  0  0
   -9.3724   -2.0999  -10.2581 H   0  0  0  0  0  0  0  0  0  0  0  0
  -10.9910   -1.4376  -10.5202 H   0  0  0  0  0  0  0  0  0  0  0  0
   -7.4548   -3.6280  -18.9403 H   0  0  0  0  0  0  0  0  0  0  0  0
   -8.4244   -2.7305  -19.8999 H   0  0  0  0  0  0  0  0  0  0  0  0
  1 14  1  0  0  0  0
  1 15  1  0  0  0  0
  1 17  2  0  0  0  0
  2  4  1  0  0  0  0
  2  9  1  0  0  0  0
  3  5  1  0  0  0  0
  3  9  1  0  0  0  0
  4 10  1  0  0  0  0
  5 10  1  0  0  0  0
  6  8  1  0  0  0  0
  6 15  1  0  0  0  0
  7 10  1  0  0  0  0
  7 15  1  0  0  0  0
  8 18  1  0  0  0  0
  9 16  1  0  0  0  0
 10 18  1  0  0  0  0
 11 14  1  0  0  0  0
 12 14  1  0  0  0  0
 13 14  1  0  0  0  0
  2 19  1  0  0  0  0
  2 20  1  0  0  0  0
  3 21  1  0  0  0  0
  3 22  1  0  0  0  0
  4 23  1  0  0  0  0
  4 24  1  0  0  0  0
  5 25  1  0  0  0  0
  5 26  1  0  0  0  0
  6 27  1  0  0  0  0
  6 28  1  0  0  0  0
  7 29  1  0  0  0  0
  7 30  1  0  0  0  0
  8 31  1  0  0  0  0
  8 32  1  0  0  0  0
  9 33  1  0  0  0  0
 11 34  1  0  0  0  0
 11 35  1  0  0  0  0
 11 36  1  0  0  0  0
 12 37  1  0  0  0  0
 12 38  1  0  0  0  0
 12 39  1  0  0  0  0
 13 40  1  0  0  0  0
 13 41  1  0  0  0  0
 13 42  1  0  0  0  0
 16 43  1  0  0  0  0
 16 44  1  0  0  0  0
M  END
> <id>
EN300-768567

> <smiles>
CC(C)(C)C(=O)N1CCOC2(CCC(N)CC2)C1

> <IUPAC Name>
1-{9-amino-1-oxa-4-azaspiro[5.5]undecan-4-yl}-2,2-dimethylpropan-1-one

> <CAS>
2138014-71-6

> <URL>
https://www.enaminestore.com/catalog/EN300-768567

> <ROCS_ShapeQuery>
amalgated

> <ROCS_TanimotoCombo>
0.848 

> <ROCS_ShapeTanimoto>
0.578 

> <ROCS_ColorTanimoto>
0.270 

> <ROCS_RefTversky>
0.550 

> <ROCS_RefColorTversky>
0.426 

> <ROCS_RefTverskyCombo>
0.975 

> <ROCS_FitTversky>
1.098 

> <ROCS_FitColorTversky>
0.426 

> <ROCS_FitTverskyCombo>
1.524 

> <ROCS_ColorScore>
-2.980

> <ROCS_Overlap>
903.889

> <ROCS_Rank>
215                 

$$$$
untitled-dbase-40623_127
  -OEChem-10092318153D

 54 57  0     1  0  0  0  0  0999 V2000
   -6.2819    2.2338  -19.9913 C   0  0  0  0  0  0  0  0  0  0  0  0
   -5.1751    2.5699  -19.2110 C   0  0  0  0  0  0  0  0  0  0  0  0
   -7.5194    2.0123  -19.3901 C   0  0  0  0  0  0  0  0  0  0  0  0
   -5.3000    2.6911  -17.8250 C   0  0  0  0  0  0  0  0  0  0  0  0
   -7.6340    2.1025  -18.0016 C   0  0  0  0  0  0  0  0  0  0  0  0
   -6.5318    2.4517  -17.2111 C   0  0  0  0  0  0  0  0  0  0  0  0
   -6.2905    0.2323  -13.5771 C   0  0  0  0  0  0  0  0  0  0  0  0
   -6.3474    1.5475  -13.8252 C   0  0  0  0  0  0  0  0  0  0  0  0
   -8.9535    1.9130  -17.3820 C   0  0  0  0  0  0  0  0  0  0  0  0
   -9.2437   -0.4961  -14.0037 C   0  0  0  0  0  0  0  0  0  0  0  0
   -7.0182   -0.4979  -12.4882 C   0  0  0  0  0  0  0  0  0  0  0  0
   -5.6890    2.1692  -15.0165 C   0  0  0  0  0  0  0  0  0  0  0  0
   -8.5514   -2.5369  -19.0172 C   0  0  0  0  0  0  0  0  0  0  0  0
   -8.9176   -3.5556  -17.9481 C   0  0  0  0  0  0  0  0  0  0  0  0
   -9.1368   -1.1663  -18.6960 C   0  0  0  0  0  0  0  0  0  0  0  0
   -8.4790   -3.0834  -16.5677 C   0  0  0  0  0  0  0  0  0  0  0  0
   -9.2688   -1.1941  -11.4668 C   0  0  0  0  0  0  0  0  0  0  0  0
   -9.0975    0.8675  -11.7087 C   0  0  0  0  0  0  0  0  0  0  0  0
   -8.6976   -0.6530  -17.3125 C   0  0  2  0  0  0  0  0  0  0  0  0
   -9.0483   -1.6985  -16.2192 C   0  0  2  0  0  0  0  0  0  0  0  0
   -8.5577   -0.3315  -12.5677 C   0  0  0  0  0  0  0  0  0  0  0  0
   -9.3624    0.6339  -17.0539 N   0  0  0  0  0  0  0  0  0  0  0  0
   -8.5614   -1.3229  -14.8885 N   0  0  0  0  0  0  0  0  0  0  0  0
   -9.2167   -0.0410  -10.5564 N   0  0  0  0  0  0  0  0  0  0  0  0
   -9.6280    2.9183  -17.1670 O   0  0  0  0  0  0  0  0  0  0  0  0
  -10.3237    0.0312  -14.2987 O   0  0  0  0  0  0  0  0  0  0  0  0
   -6.7477    2.6076  -15.8701 O   0  0  0  0  0  0  0  0  0  0  0  0
   -6.1783    2.1531  -21.0695 H   0  0  0  0  0  0  0  0  0  0  0  0
   -4.2112    2.7409  -19.6848 H   0  0  0  0  0  0  0  0  0  0  0  0
   -8.3699    1.7880  -20.0188 H   0  0  0  0  0  0  0  0  0  0  0  0
   -4.4294    2.9785  -17.2456 H   0  0  0  0  0  0  0  0  0  0  0  0
   -5.6476   -0.3920  -14.2284 H   0  0  0  0  0  0  0  0  0  0  0  0
   -6.8913    2.2024  -13.1632 H   0  0  0  0  0  0  0  0  0  0  0  0
   -6.7385   -1.5701  -12.5471 H   0  0  0  0  0  0  0  0  0  0  0  0
   -6.6672   -0.1696  -11.4873 H   0  0  0  0  0  0  0  0  0  0  0  0
   -5.0945    3.0194  -14.6771 H   0  0  0  0  0  0  0  0  0  0  0  0
   -5.0452    1.4505  -15.5299 H   0  0  0  0  0  0  0  0  0  0  0  0
   -7.4608   -2.4600  -19.0931 H   0  0  0  0  0  0  0  0  0  0  0  0
   -8.9183   -2.8755  -19.9917 H   0  0  0  0  0  0  0  0  0  0  0  0
  -10.0009   -3.7193  -17.9523 H   0  0  0  0  0  0  0  0  0  0  0  0
   -8.4455   -4.5161  -18.1770 H   0  0  0  0  0  0  0  0  0  0  0  0
   -8.8297   -0.4557  -19.4759 H   0  0  0  0  0  0  0  0  0  0  0  0
  -10.2345   -1.2259  -18.7372 H   0  0  0  0  0  0  0  0  0  0  0  0
   -8.7979   -3.8257  -15.8232 H   0  0  0  0  0  0  0  0  0  0  0  0
   -7.3799   -3.0529  -16.5307 H   0  0  0  0  0  0  0  0  0  0  0  0
  -10.2821   -1.5558  -11.6772 H   0  0  0  0  0  0  0  0  0  0  0  0
   -8.6856   -2.0565  -11.1089 H   0  0  0  0  0  0  0  0  0  0  0  0
   -8.3856    1.6896  -11.5417 H   0  0  0  0  0  0  0  0  0  0  0  0
  -10.0461    1.3121  -12.0366 H   0  0  0  0  0  0  0  0  0  0  0  0
   -7.6272   -0.4912  -17.3264 H   0  0  0  0  0  0  0  0  0  0  0  0
  -10.1452   -1.7956  -16.1452 H   0  0  0  0  0  0  0  0  0  0  0  0
  -10.2938    0.5679  -16.5391 H   0  0  0  0  0  0  0  0  0  0  0  0
   -7.6537   -1.6970  -14.5904 H   0  0  0  0  0  0  0  0  0  0  0  0
  -10.0847    0.0936  -10.0294 H   0  0  0  0  0  0  0  0  0  0  0  0
  1  2  2  0  0  0  0
  1  3  1  0  0  0  0
  2  4  1  0  0  0  0
  3  5  2  0  0  0  0
  4  6  2  0  0  0  0
  5  6  1  0  0  0  0
  5  9  1  0  0  0  0
  6 27  1  0  0  0  0
  7  8  2  0  0  0  0
  7 11  1  0  0  0  0
  8 12  1  0  0  0  0
  9 22  1  0  0  0  0
  9 25  2  0  0  0  0
 10 21  1  0  0  0  0
 10 23  1  0  0  0  0
 10 26  2  0  0  0  0
 11 21  1  0  0  0  0
 12 27  1  0  0  0  0
 13 14  1  0  0  0  0
 13 15  1  0  0  0  0
 14 16  1  0  0  0  0
 15 19  1  6  0  0  0
 16 20  1  1  0  0  0
 17 21  1  0  0  0  0
 17 24  1  0  0  0  0
 18 21  1  0  0  0  0
 18 24  1  0  0  0  0
 19 20  1  0  0  0  0
 19 22  1  0  0  0  0
 20 23  1  0  0  0  0
  1 28  1  0  0  0  0
  2 29  1  0  0  0  0
  3 30  1  0  0  0  0
  4 31  1  0  0  0  0
  7 32  1  0  0  0  0
  8 33  1  0  0  0  0
 11 34  1  0  0  0  0
 11 35  1  0  0  0  0
 12 36  1  0  0  0  0
 12 37  1  0  0  0  0
 13 38  1  0  0  0  0
 13 39  1  0  0  0  0
 14 40  1  0  0  0  0
 14 41  1  0  0  0  0
 15 42  1  0  0  0  0
 15 43  1  0  0  0  0
 16 44  1  0  0  0  0
 16 45  1  0  0  0  0
 17 46  1  0  0  0  0
 17 47  1  0  0  0  0
 18 48  1  0  0  0  0
 18 49  1  0  0  0  0
 19 50  1  0  0  0  0
 20 51  1  0  0  0  0
 22 52  1  0  0  0  0
 23 53  1  0  0  0  0
 24 54  1  0  0  0  0
M  END
> <id>
EN300-6486332

> <smiles>
OC(=O)C(F)(F)F.O=C1N[C@@H]2CCCC[C@H]2NC(=O)C3(CNC3)C/C=C/COC=4C=CC=CC14

> <MDLNUMBER>
MFCD31737449

> <IUPAC Name>
(4'R,9'R,14'E)-17'-oxa-3',10'-diazaspiro[azetidine-3,12'-tricyclo[16.4.0.0,4,9]docosane]-1'(18'),14',19',21'-tetraene-2',11'-dione; trifluoroacetic acid

> <CAS>
2648870-19-1

> <URL>
https://www.enaminestore.com/catalog/EN300-6486332

> <Saltdate>
OC(=O)C(F)(F)F

> <ROCS_ShapeQuery>
amalgated

> <ROCS_TanimotoCombo>
0.848 

> <ROCS_ShapeTanimoto>
0.610 

> <ROCS_ColorTanimoto>
0.239 

> <ROCS_RefTversky>
0.658 

> <ROCS_RefColorTversky>
0.458 

> <ROCS_RefTverskyCombo>
1.116 

> <ROCS_FitTversky>
0.893 

> <ROCS_FitColorTversky>
0.333 

> <ROCS_FitTverskyCombo>
1.225 

> <ROCS_ColorScore>
-3.278

> <ROCS_Overlap>
1095.688

> <ROCS_Rank>
216                 

$$$$
untitled-dbase-34215_566
  -OEChem-10092318153D

 49 51  0     0  0  0  0  0  0999 V2000
   -6.5320    1.8386  -18.2898 C   0  0  0  0  0  0  0  0  0  0  0  0
   -7.0142    2.0216  -16.9989 C   0  0  0  0  0  0  0  0  0  0  0  0
   -6.9308    0.7248  -19.0303 C   0  0  0  0  0  0  0  0  0  0  0  0
   -7.8794    1.0813  -16.4460 C   0  0  0  0  0  0  0  0  0  0  0  0
   -7.8011   -0.2362  -18.4860 C   0  0  0  0  0  0  0  0  0  0  0  0
   -8.2460   -0.0599  -17.1710 C   0  0  0  0  0  0  0  0  0  0  0  0
   -8.4867   -0.7367  -12.7568 C   0  0  0  0  0  0  0  0  0  0  0  0
   -8.2921   -1.3545  -19.3651 C   0  0  0  0  0  0  0  0  0  0  0  0
   -7.2939   -2.5174  -15.8741 C   0  0  0  0  0  0  0  0  0  0  0  0
   -9.7334   -2.8888  -15.3923 C   0  0  0  0  0  0  0  0  0  0  0  0
   -7.0701   -1.8292  -14.5240 C   0  0  0  0  0  0  0  0  0  0  0  0
   -9.2843   -2.7671  -13.9319 C   0  0  0  0  0  0  0  0  0  0  0  0
   -8.9655   -3.0412  -17.7631 C   0  0  0  0  0  0  0  0  0  0  0  0
   -8.7243   -2.3027  -16.4284 C   0  0  0  0  0  0  0  0  0  0  0  0
  -10.2185    1.0273  -11.3152 C   0  0  0  0  0  0  0  0  0  0  0  0
  -10.5078   -0.8749   -9.7005 C   0  0  0  0  0  0  0  0  0  0  0  0
   -8.2372    0.1439  -10.0390 C   0  0  0  0  0  0  0  0  0  0  0  0
   -9.5663   -0.2118  -10.7036 C   0  0  0  0  0  0  0  0  0  0  0  0
   -8.0305   -2.6878  -18.8314 N   0  0  0  0  0  0  0  0  0  0  0  0
   -8.2966   -1.7170  -13.7348 N   0  0  0  0  0  0  0  0  0  0  0  0
   -7.9770    0.3817  -12.7854 O   0  0  0  0  0  0  0  0  0  0  0  0
   -9.1053   -0.9113  -16.5357 O   0  0  0  0  0  0  0  0  0  0  0  0
   -9.3146   -1.1573  -11.7492 O   0  0  0  0  0  0  0  0  0  0  0  0
   -5.8333    2.5522  -18.7165 H   0  0  0  0  0  0  0  0  0  0  0  0
   -6.7159    2.8924  -16.4233 H   0  0  0  0  0  0  0  0  0  0  0  0
   -6.5410    0.6041  -20.0388 H   0  0  0  0  0  0  0  0  0  0  0  0
   -8.2813    1.2492  -15.4495 H   0  0  0  0  0  0  0  0  0  0  0  0
   -9.3796   -1.2734  -19.4851 H   0  0  0  0  0  0  0  0  0  0  0  0
   -7.8811   -1.2350  -20.3760 H   0  0  0  0  0  0  0  0  0  0  0  0
   -6.5532   -2.1201  -16.5820 H   0  0  0  0  0  0  0  0  0  0  0  0
   -7.0845   -3.5903  -15.7580 H   0  0  0  0  0  0  0  0  0  0  0  0
   -9.8999   -3.9543  -15.6176 H   0  0  0  0  0  0  0  0  0  0  0  0
  -10.7169   -2.4058  -15.4756 H   0  0  0  0  0  0  0  0  0  0  0  0
   -6.2984   -2.3761  -13.9590 H   0  0  0  0  0  0  0  0  0  0  0  0
   -6.6807   -0.8073  -14.6675 H   0  0  0  0  0  0  0  0  0  0  0  0
  -10.1376   -2.5326  -13.2789 H   0  0  0  0  0  0  0  0  0  0  0  0
   -8.9036   -3.7428  -13.5965 H   0  0  0  0  0  0  0  0  0  0  0  0
   -8.9507   -4.1285  -17.6088 H   0  0  0  0  0  0  0  0  0  0  0  0
   -9.9701   -2.7996  -18.1332 H   0  0  0  0  0  0  0  0  0  0  0  0
   -9.5458    1.5062  -12.0358 H   0  0  0  0  0  0  0  0  0  0  0  0
  -11.1552    0.7800  -11.8251 H   0  0  0  0  0  0  0  0  0  0  0  0
  -10.4312    1.7776  -10.5451 H   0  0  0  0  0  0  0  0  0  0  0  0
  -10.0439   -1.7645   -9.2592 H   0  0  0  0  0  0  0  0  0  0  0  0
  -11.4248   -1.2174  -10.1935 H   0  0  0  0  0  0  0  0  0  0  0  0
  -10.7837   -0.1904   -8.8919 H   0  0  0  0  0  0  0  0  0  0  0  0
   -7.7692   -0.7448   -9.6003 H   0  0  0  0  0  0  0  0  0  0  0  0
   -7.5353    0.5873  -10.7528 H   0  0  0  0  0  0  0  0  0  0  0  0
   -8.3901    0.8511   -9.2158 H   0  0  0  0  0  0  0  0  0  0  0  0
   -8.0303   -3.3844  -19.5741 H   0  0  0  0  0  0  0  0  0  0  0  0
  1  2  2  0  0  0  0
  1  3  1  0  0  0  0
  2  4  1  0  0  0  0
  3  5  2  0  0  0  0
  4  6  2  0  0  0  0
  5  6  1  0  0  0  0
  5  8  1  0  0  0  0
  6 22  1  0  0  0  0
  7 20  1  0  0  0  0
  7 21  2  0  0  0  0
  7 23  1  0  0  0  0
  8 19  1  0  0  0  0
  9 11  1  0  0  0  0
  9 14  1  0  0  0  0
 10 12  1  0  0  0  0
 10 14  1  0  0  0  0
 11 20  1  0  0  0  0
 12 20  1  0  0  0  0
 13 14  1  0  0  0  0
 13 19  1  0  0  0  0
 14 22  1  0  0  0  0
 15 18  1  0  0  0  0
 16 18  1  0  0  0  0
 17 18  1  0  0  0  0
 18 23  1  0  0  0  0
  1 24  1  0  0  0  0
  2 25  1  0  0  0  0
  3 26  1  0  0  0  0
  4 27  1  0  0  0  0
  8 28  1  0  0  0  0
  8 29  1  0  0  0  0
  9 30  1  0  0  0  0
  9 31  1  0  0  0  0
 10 32  1  0  0  0  0
 10 33  1  0  0  0  0
 11 34  1  0  0  0  0
 11 35  1  0  0  0  0
 12 36  1  0  0  0  0
 12 37  1  0  0  0  0
 13 38  1  0  0  0  0
 13 39  1  0  0  0  0
 15 40  1  0  0  0  0
 15 41  1  0  0  0  0
 15 42  1  0  0  0  0
 16 43  1  0  0  0  0
 16 44  1  0  0  0  0
 16 45  1  0  0  0  0
 17 46  1  0  0  0  0
 17 47  1  0  0  0  0
 17 48  1  0  0  0  0
 19 49  1  0  0  0  0
M  END
> <id>
EN300-746386

> <smiles>
CC(C)(C)OC(=O)N1CCC2(CC1)CNCC=3C=CC=CC3O2

> <MDLNUMBER>
MFCD31456796

> <IUPAC Name>
tert-butyl 4,5-dihydro-3H-spiro[1,4-benzoxazepine-2,4'-piperidine]-1'-carboxylate

> <CAS>
2138428-38-1

> <Purity>
95

> <URL>
https://www.enaminestore.com/catalog/EN300-746386

> <ROCS_ShapeQuery>
amalgated

> <ROCS_TanimotoCombo>
0.848 

> <ROCS_ShapeTanimoto>
0.627 

> <ROCS_ColorTanimoto>
0.221 

> <ROCS_RefTversky>
0.633 

> <ROCS_RefColorTversky>
0.386 

> <ROCS_RefTverskyCombo>
1.019 

> <ROCS_FitTversky>
0.984 

> <ROCS_FitColorTversky>
0.342 

> <ROCS_FitTverskyCombo>
1.326 

> <ROCS_ColorScore>
-2.720

> <ROCS_Overlap>
1049.317

> <ROCS_Rank>
217                 

$$$$
untitled-dbase-6346_4
  -OEChem-10092318153D

 40 40  0     1  0  0  0  0  0999 V2000
   -8.4006   -0.3390  -14.6566 C   0  0  0  0  0  0  0  0  0  0  0  0
   -8.7054   -0.5757  -18.2491 C   0  0  0  0  0  0  0  0  0  0  0  0
   -7.7676   -0.4087  -17.0537 C   0  0  0  0  0  0  0  0  0  0  0  0
   -8.6795   -2.4662  -16.0000 C   0  0  0  0  0  0  0  0  0  0  0  0
   -9.1166   -2.0433  -18.4777 C   0  0  2  0  0  0  0  0  0  0  0  0
   -9.6754   -2.6835  -17.1650 C   0  0  0  0  0  0  0  0  0  0  0  0
   -9.9254   -4.1972  -17.3343 C   0  0  0  0  0  0  0  0  0  0  0  0
  -11.0355   -2.0407  -16.8027 C   0  0  0  0  0  0  0  0  0  0  0  0
   -9.9752    0.7858  -12.5475 C   0  0  0  0  0  0  0  0  0  0  0  0
   -9.6737   -1.4251  -11.3941 C   0  0  0  0  0  0  0  0  0  0  0  0
   -7.6715    0.0030  -11.9035 C   0  0  0  0  0  0  0  0  0  0  0  0
   -9.0608   -0.4259  -12.3730 C   0  0  0  0  0  0  0  0  0  0  0  0
   -8.3095   -1.0512  -15.8573 N   0  0  0  0  0  0  0  0  0  0  0  0
   -7.9470   -2.7665  -18.9967 N   0  0  0  0  0  0  0  0  0  0  0  0
   -8.0485    0.8309  -14.5165 O   0  0  0  0  0  0  0  0  0  0  0  0
   -8.9314   -1.0851  -13.6379 O   0  0  0  0  0  0  0  0  0  0  0  0
   -9.6022    0.0410  -18.0811 H   0  0  0  0  0  0  0  0  0  0  0  0
   -8.2215   -0.1646  -19.1488 H   0  0  0  0  0  0  0  0  0  0  0  0
   -6.7792   -0.8124  -17.2991 H   0  0  0  0  0  0  0  0  0  0  0  0
   -7.6354    0.6551  -16.8196 H   0  0  0  0  0  0  0  0  0  0  0  0
   -9.1330   -2.7659  -15.0459 H   0  0  0  0  0  0  0  0  0  0  0  0
   -7.7918   -3.0930  -16.1337 H   0  0  0  0  0  0  0  0  0  0  0  0
   -9.8863   -2.0639  -19.2337 H   0  0  0  0  0  0  0  0  0  0  0  0
  -10.6221   -4.3496  -18.1493 H   0  0  0  0  0  0  0  0  0  0  0  0
  -10.3403   -4.5901  -16.4144 H   0  0  0  0  0  0  0  0  0  0  0  0
   -8.9847   -4.6864  -17.5550 H   0  0  0  0  0  0  0  0  0  0  0  0
  -11.7286   -2.1955  -17.6211 H   0  0  0  0  0  0  0  0  0  0  0  0
  -10.8918   -0.9797  -16.6369 H   0  0  0  0  0  0  0  0  0  0  0  0
  -11.4177   -2.5066  -15.9022 H   0  0  0  0  0  0  0  0  0  0  0  0
   -9.5388    1.5054  -13.2495 H   0  0  0  0  0  0  0  0  0  0  0  0
  -10.9639    0.4952  -12.9173 H   0  0  0  0  0  0  0  0  0  0  0  0
  -10.1035    1.3187  -11.5984 H   0  0  0  0  0  0  0  0  0  0  0  0
   -9.0210   -2.2961  -11.2659 H   0  0  0  0  0  0  0  0  0  0  0  0
  -10.6282   -1.8077  -11.7734 H   0  0  0  0  0  0  0  0  0  0  0  0
   -9.8469   -0.9739  -10.4117 H   0  0  0  0  0  0  0  0  0  0  0  0
   -7.0154   -0.8660  -11.7783 H   0  0  0  0  0  0  0  0  0  0  0  0
   -7.2010    0.6919  -12.6126 H   0  0  0  0  0  0  0  0  0  0  0  0
   -7.7251    0.4936  -10.9249 H   0  0  0  0  0  0  0  0  0  0  0  0
   -8.2249   -3.6974  -19.1927 H   0  0  0  0  0  0  0  0  0  0  0  0
   -7.6442   -2.3065  -19.8207 H   0  0  0  0  0  0  0  0  0  0  0  0
  1 13  1  0  0  0  0
  1 15  2  0  0  0  0
  1 16  1  0  0  0  0
  2  3  1  0  0  0  0
  2  5  1  0  0  0  0
  3 13  1  0  0  0  0
  4  6  1  0  0  0  0
  4 13  1  0  0  0  0
  5  6  1  0  0  0  0
  5 14  1  0  0  0  0
  6  7  1  0  0  0  0
  6  8  1  0  0  0  0
  9 12  1  0  0  0  0
 10 12  1  0  0  0  0
 11 12  1  0  0  0  0
 12 16  1  0  0  0  0
  2 17  1  0  0  0  0
  2 18  1  0  0  0  0
  3 19  1  0  0  0  0
  3 20  1  0  0  0  0
  4 21  1  0  0  0  0
  4 22  1  0  0  0  0
  5 23  1  0  0  0  0
  7 24  1  0  0  0  0
  7 25  1  0  0  0  0
  7 26  1  0  0  0  0
  8 27  1  0  0  0  0
  8 28  1  0  0  0  0
  8 29  1  0  0  0  0
  9 30  1  0  0  0  0
  9 31  1  0  0  0  0
  9 32  1  0  0  0  0
 10 33  1  0  0  0  0
 10 34  1  0  0  0  0
 10 35  1  0  0  0  0
 11 36  1  0  0  0  0
 11 37  1  0  0  0  0
 11 38  1  0  0  0  0
 14 39  1  0  0  0  0
 14 40  1  0  0  0  0
M  END
> <id>
EN300-202870

> <smiles>
CC(C)(C)OC(=O)N1CCC(N)C(C)(C)C1

> <MDLNUMBER>
MFCD15527018

> <IUPAC Name>
tert-butyl 4-amino-3,3-dimethylpiperidine-1-carboxylate

> <CAS>
473838-65-2

> <Purity>
95

> <URL>
https://www.enaminestore.com/catalog/EN300-202870

> <ROCS_ShapeQuery>
amalgated

> <ROCS_TanimotoCombo>
0.848 

> <ROCS_ShapeTanimoto>
0.550 

> <ROCS_ColorTanimoto>
0.298 

> <ROCS_RefTversky>
0.513 

> <ROCS_RefColorTversky>
0.429 

> <ROCS_RefTverskyCombo>
0.942 

> <ROCS_FitTversky>
1.153 

> <ROCS_FitColorTversky>
0.493 

> <ROCS_FitTverskyCombo>
1.646 

> <ROCS_ColorScore>
-2.982

> <ROCS_Overlap>
840.813

> <ROCS_Rank>
218                 

$$$$
untitled-dbase-42337_32
  -OEChem-10092318153D

 38 39  0     0  0  0  0  0  0999 V2000
   -9.3904   -0.0651  -14.5282 C   0  0  0  0  0  0  0  0  0  0  0  0
   -7.3034    0.1755  -17.2464 C   0  0  0  0  0  0  0  0  0  0  0  0
   -9.4435   -1.2083  -17.6933 C   0  0  0  0  0  0  0  0  0  0  0  0
   -7.8848   -2.2521  -16.5710 C   0  0  0  0  0  0  0  0  0  0  0  0
   -7.6612    1.0869  -16.0592 C   0  0  0  0  0  0  0  0  0  0  0  0
   -8.3344   -0.8132  -16.7365 C   0  0  0  0  0  0  0  0  0  0  0  0
   -8.8131   -2.6291  -17.7616 C   0  0  0  0  0  0  0  0  0  0  0  0
   -9.7323   -3.8170  -17.5997 C   0  0  0  0  0  0  0  0  0  0  0  0
   -9.3879   -1.4333  -12.2977 C   0  0  0  0  0  0  0  0  0  0  0  0
   -8.0506    0.4029  -11.2256 C   0  0  0  0  0  0  0  0  0  0  0  0
  -10.4973    0.7403  -11.6818 C   0  0  0  0  0  0  0  0  0  0  0  0
   -9.2084    0.0785  -12.1671 C   0  0  0  0  0  0  0  0  0  0  0  0
   -8.5725    0.0452  -15.6190 N   0  0  0  0  0  0  0  0  0  0  0  0
   -7.9976   -2.7138  -18.9798 N   0  0  0  0  0  0  0  0  0  0  0  0
  -10.4472   -0.6900  -14.5142 O   0  0  0  0  0  0  0  0  0  0  0  0
   -8.8793    0.6112  -13.4549 O   0  0  0  0  0  0  0  0  0  0  0  0
   -7.5159    0.6230  -18.2236 H   0  0  0  0  0  0  0  0  0  0  0  0
   -6.2639   -0.1695  -17.2436 H   0  0  0  0  0  0  0  0  0  0  0  0
  -10.4412   -1.1947  -17.2358 H   0  0  0  0  0  0  0  0  0  0  0  0
   -9.5081   -0.6502  -18.6341 H   0  0  0  0  0  0  0  0  0  0  0  0
   -6.8145   -2.4531  -16.6940 H   0  0  0  0  0  0  0  0  0  0  0  0
   -8.1941   -2.6996  -15.6173 H   0  0  0  0  0  0  0  0  0  0  0  0
   -6.8485    1.2724  -15.3522 H   0  0  0  0  0  0  0  0  0  0  0  0
   -8.1650    2.0200  -16.3234 H   0  0  0  0  0  0  0  0  0  0  0  0
   -9.1689   -4.7532  -17.6671 H   0  0  0  0  0  0  0  0  0  0  0  0
  -10.4990   -3.8213  -18.3810 H   0  0  0  0  0  0  0  0  0  0  0  0
  -10.2337   -3.7877  -16.6270 H   0  0  0  0  0  0  0  0  0  0  0  0
  -10.2180   -1.6703  -12.9728 H   0  0  0  0  0  0  0  0  0  0  0  0
   -8.4816   -1.9157  -12.6782 H   0  0  0  0  0  0  0  0  0  0  0  0
   -9.6387   -1.8823  -11.3299 H   0  0  0  0  0  0  0  0  0  0  0  0
   -7.9183    1.4866  -11.1289 H   0  0  0  0  0  0  0  0  0  0  0  0
   -7.1059    0.0104  -11.6189 H   0  0  0  0  0  0  0  0  0  0  0  0
   -8.2118   -0.0171  -10.2274 H   0  0  0  0  0  0  0  0  0  0  0  0
  -10.3688    1.8247  -11.5881 H   0  0  0  0  0  0  0  0  0  0  0  0
  -11.3310    0.5489  -12.3651 H   0  0  0  0  0  0  0  0  0  0  0  0
  -10.7722    0.3743  -10.6860 H   0  0  0  0  0  0  0  0  0  0  0  0
   -7.0654   -2.9081  -18.7080 H   0  0  0  0  0  0  0  0  0  0  0  0
   -8.3646   -3.4434  -19.5399 H   0  0  0  0  0  0  0  0  0  0  0  0
  1 13  1  0  0  0  0
  1 15  2  0  0  0  0
  1 16  1  0  0  0  0
  2  5  1  0  0  0  0
  2  6  1  0  0  0  0
  3  6  1  0  0  0  0
  3  7  1  0  0  0  0
  4  6  1  0  0  0  0
  4  7  1  0  0  0  0
  5 13  1  0  0  0  0
  6 13  1  0  0  0  0
  7  8  1  0  0  0  0
  7 14  1  0  0  0  0
  9 12  1  0  0  0  0
 10 12  1  0  0  0  0
 11 12  1  0  0  0  0
 12 16  1  0  0  0  0
  2 17  1  0  0  0  0
  2 18  1  0  0  0  0
  3 19  1  0  0  0  0
  3 20  1  0  0  0  0
  4 21  1  0  0  0  0
  4 22  1  0  0  0  0
  5 23  1  0  0  0  0
  5 24  1  0  0  0  0
  8 25  1  0  0  0  0
  8 26  1  0  0  0  0
  8 27  1  0  0  0  0
  9 28  1  0  0  0  0
  9 29  1  0  0  0  0
  9 30  1  0  0  0  0
 10 31  1  0  0  0  0
 10 32  1  0  0  0  0
 10 33  1  0  0  0  0
 11 34  1  0  0  0  0
 11 35  1  0  0  0  0
 11 36  1  0  0  0  0
 14 37  1  0  0  0  0
 14 38  1  0  0  0  0
M  END
> <id>
EN300-39669441

> <smiles>
CC(C)(C)OC(=O)N1CCC21CC(C)(N)C2

> <IUPAC Name>
tert-butyl 6-amino-6-methyl-1-azaspiro[3.3]heptane-1-carboxylate

> <CAS>
2839143-88-1

> <Purity>
95

> <URL>
https://www.enaminestore.com/catalog/EN300-39669441

> <ROCS_ShapeQuery>
amalgated

> <ROCS_TanimotoCombo>
0.848 

> <ROCS_ShapeTanimoto>
0.548 

> <ROCS_ColorTanimoto>
0.299 

> <ROCS_RefTversky>
0.517 

> <ROCS_RefColorTversky>
0.432 

> <ROCS_RefTverskyCombo>
0.949 

> <ROCS_FitTversky>
1.126 

> <ROCS_FitColorTversky>
0.494 

> <ROCS_FitTverskyCombo>
1.620 

> <ROCS_ColorScore>
-3.001

> <ROCS_Overlap>
847.997

> <ROCS_Rank>
219                 

$$$$
untitled-dbase-6117_6
  -OEChem-10092318153D

 31 33  0     0  0  0  0  0  0999 V2000
   -8.0173   -2.0664  -18.1562 C   0  0  0  0  0  0  0  0  0  0  0  0
   -9.0545   -2.7920  -17.5706 C   0  0  0  0  0  0  0  0  0  0  0  0
   -7.5867   -0.8713  -17.5800 C   0  0  0  0  0  0  0  0  0  0  0  0
   -9.6585   -2.3295  -16.4009 C   0  0  0  0  0  0  0  0  0  0  0  0
   -8.1973   -0.4098  -16.4108 C   0  0  0  0  0  0  0  0  0  0  0  0
   -9.2217   -1.1424  -15.8100 C   0  0  0  0  0  0  0  0  0  0  0  0
   -7.7950    0.8763  -15.8157 C   0  0  0  0  0  0  0  0  0  0  0  0
   -8.6529    1.3659  -14.6803 C   0  0  0  0  0  0  0  0  0  0  0  0
  -10.2236    0.6995  -12.8243 C   0  0  0  0  0  0  0  0  0  0  0  0
   -7.9990   -0.5014  -13.0630 C   0  0  0  0  0  0  0  0  0  0  0  0
   -9.6149    1.0284  -11.4650 C   0  0  0  0  0  0  0  0  0  0  0  0
   -8.4856   -1.1298  -11.7575 C   0  0  0  0  0  0  0  0  0  0  0  0
   -9.1591    0.1896  -13.8307 C   0  0  0  0  0  0  0  0  0  0  0  0
   -9.0333   -0.1498  -10.8194 N   0  0  0  0  0  0  0  0  0  0  0  0
   -6.8613    1.5281  -16.2673 O   0  0  0  0  0  0  0  0  0  0  0  0
   -9.8531   -0.7707  -14.6546 O   0  0  0  0  0  0  0  0  0  0  0  0
   -7.5487   -2.4287  -19.0667 H   0  0  0  0  0  0  0  0  0  0  0  0
   -9.3916   -3.7196  -18.0242 H   0  0  0  0  0  0  0  0  0  0  0  0
   -6.7872   -0.3129  -18.0584 H   0  0  0  0  0  0  0  0  0  0  0  0
  -10.4619   -2.9064  -15.9501 H   0  0  0  0  0  0  0  0  0  0  0  0
   -8.0704    2.0600  -14.0672 H   0  0  0  0  0  0  0  0  0  0  0  0
   -9.4893    1.9122  -15.1298 H   0  0  0  0  0  0  0  0  0  0  0  0
  -10.9947   -0.0668  -12.6805 H   0  0  0  0  0  0  0  0  0  0  0  0
  -10.7191    1.5918  -13.2271 H   0  0  0  0  0  0  0  0  0  0  0  0
   -7.2158    0.2328  -12.8430 H   0  0  0  0  0  0  0  0  0  0  0  0
   -7.5410   -1.2887  -13.6682 H   0  0  0  0  0  0  0  0  0  0  0  0
   -8.8266    1.7840  -11.5912 H   0  0  0  0  0  0  0  0  0  0  0  0
  -10.3649    1.4827  -10.8005 H   0  0  0  0  0  0  0  0  0  0  0  0
   -9.2376   -1.9128  -11.9586 H   0  0  0  0  0  0  0  0  0  0  0  0
   -7.6444   -1.6488  -11.2683 H   0  0  0  0  0  0  0  0  0  0  0  0
   -8.2797    0.1594  -10.1892 H   0  0  0  0  0  0  0  0  0  0  0  0
  1  2  2  0  0  0  0
  1  3  1  0  0  0  0
  2  4  1  0  0  0  0
  3  5  2  0  0  0  0
  4  6  2  0  0  0  0
  5  6  1  0  0  0  0
  5  7  1  0  0  0  0
  6 16  1  0  0  0  0
  7  8  1  0  0  0  0
  7 15  2  0  0  0  0
  8 13  1  0  0  0  0
  9 11  1  0  0  0  0
  9 13  1  0  0  0  0
 10 12  1  0  0  0  0
 10 13  1  0  0  0  0
 11 14  1  0  0  0  0
 12 14  1  0  0  0  0
 13 16  1  0  0  0  0
  1 17  1  0  0  0  0
  2 18  1  0  0  0  0
  3 19  1  0  0  0  0
  4 20  1  0  0  0  0
  8 21  1  0  0  0  0
  8 22  1  0  0  0  0
  9 23  1  0  0  0  0
  9 24  1  0  0  0  0
 10 25  1  0  0  0  0
 10 26  1  0  0  0  0
 11 27  1  0  0  0  0
 11 28  1  0  0  0  0
 12 29  1  0  0  0  0
 12 30  1  0  0  0  0
 14 31  1  0  0  0  0
M  END
> <id>
EN300-35151

> <smiles>
Cl.O=C1CC2(CCNCC2)OC=3C=CC=CC13

> <MDLNUMBER>
MFCD04971902

> <IUPAC Name>
3,4-dihydrospiro[1-benzopyran-2,4'-piperidine]-4-one hydrochloride

> <CAS>
159635-39-9

> <Purity>
95

> <URL>
https://www.enaminestore.com/catalog/EN300-35151

> <Saltdate>
Cl

> <MP>
206-207

> <ROCS_ShapeQuery>
amalgated

> <ROCS_TanimotoCombo>
0.848 

> <ROCS_ShapeTanimoto>
0.550 

> <ROCS_ColorTanimoto>
0.298 

> <ROCS_RefTversky>
0.523 

> <ROCS_RefColorTversky>
0.460 

> <ROCS_RefTverskyCombo>
0.982 

> <ROCS_FitTversky>
1.104 

> <ROCS_FitColorTversky>
0.459 

> <ROCS_FitTverskyCombo>
1.563 

> <ROCS_ColorScore>
-3.217

> <ROCS_Overlap>
858.264

> <ROCS_Rank>
220                 

$$$$
untitled-dbase-6116_6
  -OEChem-10092318153D

 31 33  0     0  0  0  0  0  0999 V2000
   -8.0173   -2.0664  -18.1562 C   0  0  0  0  0  0  0  0  0  0  0  0
   -9.0545   -2.7920  -17.5706 C   0  0  0  0  0  0  0  0  0  0  0  0
   -7.5867   -0.8713  -17.5800 C   0  0  0  0  0  0  0  0  0  0  0  0
   -9.6585   -2.3295  -16.4009 C   0  0  0  0  0  0  0  0  0  0  0  0
   -8.1973   -0.4098  -16.4108 C   0  0  0  0  0  0  0  0  0  0  0  0
   -9.2217   -1.1424  -15.8100 C   0  0  0  0  0  0  0  0  0  0  0  0
   -7.7950    0.8763  -15.8157 C   0  0  0  0  0  0  0  0  0  0  0  0
   -8.6529    1.3659  -14.6803 C   0  0  0  0  0  0  0  0  0  0  0  0
  -10.2236    0.6995  -12.8243 C   0  0  0  0  0  0  0  0  0  0  0  0
   -7.9990   -0.5014  -13.0630 C   0  0  0  0  0  0  0  0  0  0  0  0
   -9.6149    1.0284  -11.4650 C   0  0  0  0  0  0  0  0  0  0  0  0
   -8.4856   -1.1298  -11.7575 C   0  0  0  0  0  0  0  0  0  0  0  0
   -9.1591    0.1896  -13.8307 C   0  0  0  0  0  0  0  0  0  0  0  0
   -9.0333   -0.1498  -10.8194 N   0  0  0  0  0  0  0  0  0  0  0  0
   -6.8613    1.5281  -16.2673 O   0  0  0  0  0  0  0  0  0  0  0  0
   -9.8531   -0.7707  -14.6546 O   0  0  0  0  0  0  0  0  0  0  0  0
   -7.5487   -2.4287  -19.0667 H   0  0  0  0  0  0  0  0  0  0  0  0
   -9.3916   -3.7196  -18.0242 H   0  0  0  0  0  0  0  0  0  0  0  0
   -6.7872   -0.3129  -18.0584 H   0  0  0  0  0  0  0  0  0  0  0  0
  -10.4619   -2.9064  -15.9501 H   0  0  0  0  0  0  0  0  0  0  0  0
   -8.0704    2.0600  -14.0672 H   0  0  0  0  0  0  0  0  0  0  0  0
   -9.4893    1.9122  -15.1298 H   0  0  0  0  0  0  0  0  0  0  0  0
  -10.9947   -0.0668  -12.6805 H   0  0  0  0  0  0  0  0  0  0  0  0
  -10.7191    1.5918  -13.2271 H   0  0  0  0  0  0  0  0  0  0  0  0
   -7.2158    0.2328  -12.8430 H   0  0  0  0  0  0  0  0  0  0  0  0
   -7.5410   -1.2887  -13.6682 H   0  0  0  0  0  0  0  0  0  0  0  0
   -8.8266    1.7840  -11.5912 H   0  0  0  0  0  0  0  0  0  0  0  0
  -10.3649    1.4827  -10.8005 H   0  0  0  0  0  0  0  0  0  0  0  0
   -9.2376   -1.9128  -11.9586 H   0  0  0  0  0  0  0  0  0  0  0  0
   -7.6444   -1.6488  -11.2683 H   0  0  0  0  0  0  0  0  0  0  0  0
   -8.2797    0.1594  -10.1892 H   0  0  0  0  0  0  0  0  0  0  0  0
  1  2  2  0  0  0  0
  1  3  1  0  0  0  0
  2  4  1  0  0  0  0
  3  5  2  0  0  0  0
  4  6  2  0  0  0  0
  5  6  1  0  0  0  0
  5  7  1  0  0  0  0
  6 16  1  0  0  0  0
  7  8  1  0  0  0  0
  7 15  2  0  0  0  0
  8 13  1  0  0  0  0
  9 11  1  0  0  0  0
  9 13  1  0  0  0  0
 10 12  1  0  0  0  0
 10 13  1  0  0  0  0
 11 14  1  0  0  0  0
 12 14  1  0  0  0  0
 13 16  1  0  0  0  0
  1 17  1  0  0  0  0
  2 18  1  0  0  0  0
  3 19  1  0  0  0  0
  4 20  1  0  0  0  0
  8 21  1  0  0  0  0
  8 22  1  0  0  0  0
  9 23  1  0  0  0  0
  9 24  1  0  0  0  0
 10 25  1  0  0  0  0
 10 26  1  0  0  0  0
 11 27  1  0  0  0  0
 11 28  1  0  0  0  0
 12 29  1  0  0  0  0
 12 30  1  0  0  0  0
 14 31  1  0  0  0  0
M  END
> <id>
EN300-26661

> <smiles>
O=C1CC2(CCNCC2)OC=3C=CC=CC13

> <MDLNUMBER>
MFCD06738865

> <IUPAC Name>
3,4-dihydrospiro[1-benzopyran-2,4'-piperidine]-4-one

> <CAS>
136081-84-0

> <URL>
https://www.enaminestore.com/catalog/EN300-26661

> <ROCS_ShapeQuery>
amalgated

> <ROCS_TanimotoCombo>
0.848 

> <ROCS_ShapeTanimoto>
0.550 

> <ROCS_ColorTanimoto>
0.298 

> <ROCS_RefTversky>
0.523 

> <ROCS_RefColorTversky>
0.460 

> <ROCS_RefTverskyCombo>
0.982 

> <ROCS_FitTversky>
1.104 

> <ROCS_FitColorTversky>
0.459 

> <ROCS_FitTverskyCombo>
1.563 

> <ROCS_ColorScore>
-3.217

> <ROCS_Overlap>
858.264

> <ROCS_Rank>
221                 

$$$$
untitled-dbase-16657_7
  -OEChem-10092318153D

 41 44  0     1  0  0  0  0  0999 V2000
   -8.2995    0.1097  -10.9907 C   0  0  0  0  0  0  0  0  0  0  0  0
   -9.7477   -0.3694  -11.0757 C   0  0  0  0  0  0  0  0  0  0  0  0
   -9.0017   -0.4608  -18.6855 C   0  0  0  0  0  0  0  0  0  0  0  0
  -10.0999   -1.4926  -18.4168 C   0  0  0  0  0  0  0  0  0  0  0  0
   -7.8778    0.4530  -12.4200 C   0  0  0  0  0  0  0  0  0  0  0  0
  -10.1704   -0.1446  -12.5234 C   0  0  0  0  0  0  0  0  0  0  0  0
   -7.2392   -1.1155  -16.9213 C   0  0  0  0  0  0  0  0  0  0  0  0
   -9.0662   -2.8251  -16.4631 C   0  0  0  0  0  0  0  0  0  0  0  0
   -8.5028   -1.7850  -13.4985 C   0  0  0  0  0  0  0  0  0  0  0  0
   -8.9589    0.3947  -14.7085 C   0  0  0  0  0  0  0  0  0  0  0  0
   -7.6999   -1.2025  -18.3915 C   0  0  1  0  0  0  0  0  0  0  0  0
   -9.3479   -2.7471  -17.9787 C   0  0  2  0  0  0  0  0  0  0  0  0
   -8.8699   -0.2908  -13.3330 C   0  0  0  0  0  0  0  0  0  0  0  0
   -8.3050   -1.5926  -15.8992 C   0  0  0  0  0  0  0  0  0  0  0  0
   -7.6094   -1.9439  -14.6422 N   0  0  0  0  0  0  0  0  0  0  0  0
   -8.0731   -2.5908  -18.6905 N   0  0  0  0  0  0  0  0  0  0  0  0
   -9.2941   -0.5521  -15.7207 O   0  0  0  0  0  0  0  0  0  0  0  0
   -8.2330    0.9928  -10.3459 H   0  0  0  0  0  0  0  0  0  0  0  0
   -7.6449   -0.6561  -10.5628 H   0  0  0  0  0  0  0  0  0  0  0  0
   -9.8475   -1.4190  -10.7881 H   0  0  0  0  0  0  0  0  0  0  0  0
  -10.3750    0.2190  -10.3987 H   0  0  0  0  0  0  0  0  0  0  0  0
   -9.0405   -0.1636  -19.7412 H   0  0  0  0  0  0  0  0  0  0  0  0
   -9.1234    0.4482  -18.0895 H   0  0  0  0  0  0  0  0  0  0  0  0
  -10.8277   -1.1480  -17.6762 H   0  0  0  0  0  0  0  0  0  0  0  0
  -10.6489   -1.6822  -19.3478 H   0  0  0  0  0  0  0  0  0  0  0  0
   -7.8615    1.5377  -12.5809 H   0  0  0  0  0  0  0  0  0  0  0  0
   -6.8548    0.0860  -12.5840 H   0  0  0  0  0  0  0  0  0  0  0  0
  -10.8895   -0.9188  -12.8131 H   0  0  0  0  0  0  0  0  0  0  0  0
  -10.6524    0.8264  -12.6619 H   0  0  0  0  0  0  0  0  0  0  0  0
   -6.3310   -1.7280  -16.8280 H   0  0  0  0  0  0  0  0  0  0  0  0
   -6.9505   -0.0782  -16.7055 H   0  0  0  0  0  0  0  0  0  0  0  0
  -10.0181   -2.9797  -15.9441 H   0  0  0  0  0  0  0  0  0  0  0  0
   -8.4668   -3.7302  -16.2865 H   0  0  0  0  0  0  0  0  0  0  0  0
   -8.0021   -2.1557  -12.6045 H   0  0  0  0  0  0  0  0  0  0  0  0
   -9.4024   -2.3858  -13.6300 H   0  0  0  0  0  0  0  0  0  0  0  0
   -9.6946    1.2036  -14.7029 H   0  0  0  0  0  0  0  0  0  0  0  0
   -8.0058    0.8459  -14.9971 H   0  0  0  0  0  0  0  0  0  0  0  0
   -6.8910   -0.8617  -19.0466 H   0  0  0  0  0  0  0  0  0  0  0  0
   -9.8669   -3.6565  -18.2999 H   0  0  0  0  0  0  0  0  0  0  0  0
   -6.8100   -1.3346  -14.5258 H   0  0  0  0  0  0  0  0  0  0  0  0
   -8.2384   -2.6828  -19.6939 H   0  0  0  0  0  0  0  0  0  0  0  0
  1  2  1  0  0  0  0
  1  5  1  0  0  0  0
  2  6  1  0  0  0  0
  3  4  1  0  0  0  0
  3 11  1  0  0  0  0
  4 12  1  0  0  0  0
  5 13  1  0  0  0  0
  6 13  1  0  0  0  0
  7 11  1  0  0  0  0
  7 14  1  0  0  0  0
  8 12  1  0  0  0  0
  8 14  1  0  0  0  0
  9 13  1  0  0  0  0
  9 15  1  0  0  0  0
 10 13  1  0  0  0  0
 10 17  1  0  0  0  0
 11 16  1  0  0  0  0
 12 16  1  0  0  0  0
 14 15  1  0  0  0  0
 14 17  1  0  0  0  0
  1 18  1  0  0  0  0
  1 19  1  0  0  0  0
  2 20  1  0  0  0  0
  2 21  1  0  0  0  0
  3 22  1  0  0  0  0
  3 23  1  0  0  0  0
  4 24  1  0  0  0  0
  4 25  1  0  0  0  0
  5 26  1  0  0  0  0
  5 27  1  0  0  0  0
  6 28  1  0  0  0  0
  6 29  1  0  0  0  0
  7 30  1  0  0  0  0
  7 31  1  0  0  0  0
  8 32  1  0  0  0  0
  8 33  1  0  0  0  0
  9 34  1  0  0  0  0
  9 35  1  0  0  0  0
 10 36  1  0  0  0  0
 10 37  1  0  0  0  0
 11 38  1  0  0  0  0
 12 39  1  0  0  0  0
 15 40  1  0  0  0  0
 16 41  1  0  0  0  0
M  END
> <id>
EN300-1278950

> <smiles>
C1CCC2(C1)CNC3(CC4CCC(C3)N4)OC2

> <IUPAC Name>
dispiro[8-azabicyclo[3.2.1]octane-3,2'-[1,3]oxazinane-5',1''-cyclopentane]

> <URL>
https://www.enaminestore.com/catalog/EN300-1278950

> <ROCS_ShapeQuery>
amalgated

> <ROCS_TanimotoCombo>
0.848 

> <ROCS_ShapeTanimoto>
0.552 

> <ROCS_ColorTanimoto>
0.296 

> <ROCS_RefTversky>
0.532 

> <ROCS_RefColorTversky>
0.619 

> <ROCS_RefTverskyCombo>
1.152 

> <ROCS_FitTversky>
1.072 

> <ROCS_FitColorTversky>
0.361 

> <ROCS_FitTverskyCombo>
1.433 

> <ROCS_ColorScore>
-4.512

> <ROCS_Overlap>
875.501

> <ROCS_Rank>
222                 

$$$$
untitled-dbase-41860_16
  -OEChem-10092318153D

 41 42  0     0  0  0  0  0  0999 V2000
   -8.9544   -0.5256  -13.5701 C   0  0  0  0  0  0  0  0  0  0  0  0
   -9.5994   -1.3337  -18.0689 C   0  0  0  0  0  0  0  0  0  0  0  0
   -7.8605   -2.5535  -16.6337 C   0  0  0  0  0  0  0  0  0  0  0  0
   -9.8887   -0.6658  -16.7278 C   0  0  0  0  0  0  0  0  0  0  0  0
   -7.3770   -1.1359  -16.3349 C   0  0  0  0  0  0  0  0  0  0  0  0
   -8.2089    1.2992  -16.3652 C   0  0  0  0  0  0  0  0  0  0  0  0
   -8.7029    1.6275  -14.9552 C   0  0  0  0  0  0  0  0  0  0  0  0
   -8.7595   -2.6111  -17.8826 C   0  0  0  0  0  0  0  0  0  0  0  0
   -8.5660   -0.1904  -16.1149 C   0  0  0  0  0  0  0  0  0  0  0  0
   -8.1792   -1.2156  -10.9092 C   0  0  0  0  0  0  0  0  0  0  0  0
   -9.5931    0.7318  -10.1896 C   0  0  0  0  0  0  0  0  0  0  0  0
  -10.6532   -1.2142  -11.3718 C   0  0  0  0  0  0  0  0  0  0  0  0
   -9.3962   -0.3547  -11.2446 C   0  0  0  0  0  0  0  0  0  0  0  0
   -8.7419    0.1975  -14.7153 N   0  0  0  0  0  0  0  0  0  0  0  0
   -7.9648   -2.8365  -19.0910 N   0  0  0  0  0  0  0  0  0  0  0  0
   -8.9606   -1.7513  -13.5089 O   0  0  0  0  0  0  0  0  0  0  0  0
   -9.1615    0.2978  -12.4973 O   0  0  0  0  0  0  0  0  0  0  0  0
  -10.5467   -1.5767  -18.5641 H   0  0  0  0  0  0  0  0  0  0  0  0
   -9.0669   -0.6318  -18.7227 H   0  0  0  0  0  0  0  0  0  0  0  0
   -6.9904   -3.2164  -16.7715 H   0  0  0  0  0  0  0  0  0  0  0  0
   -8.4078   -2.9399  -15.7594 H   0  0  0  0  0  0  0  0  0  0  0  0
  -10.5796    0.1692  -16.8733 H   0  0  0  0  0  0  0  0  0  0  0  0
  -10.3788   -1.3841  -16.0638 H   0  0  0  0  0  0  0  0  0  0  0  0
   -6.7357   -1.1575  -15.4391 H   0  0  0  0  0  0  0  0  0  0  0  0
   -6.7396   -0.7818  -17.1609 H   0  0  0  0  0  0  0  0  0  0  0  0
   -8.7691    1.7941  -17.1639 H   0  0  0  0  0  0  0  0  0  0  0  0
   -7.1437    1.5033  -16.5153 H   0  0  0  0  0  0  0  0  0  0  0  0
   -7.9878    2.1579  -14.3245 H   0  0  0  0  0  0  0  0  0  0  0  0
   -9.6882    2.0944  -14.9035 H   0  0  0  0  0  0  0  0  0  0  0  0
   -9.4554   -3.4674  -17.7785 H   0  0  0  0  0  0  0  0  0  0  0  0
   -8.0345   -1.9968  -11.6641 H   0  0  0  0  0  0  0  0  0  0  0  0
   -7.2650   -0.6160  -10.8496 H   0  0  0  0  0  0  0  0  0  0  0  0
   -8.3173   -1.7322   -9.9525 H   0  0  0  0  0  0  0  0  0  0  0  0
  -10.4653    1.3519  -10.4263 H   0  0  0  0  0  0  0  0  0  0  0  0
   -8.7316    1.4088  -10.1611 H   0  0  0  0  0  0  0  0  0  0  0  0
   -9.7318    0.3050   -9.1911 H   0  0  0  0  0  0  0  0  0  0  0  0
  -11.5263   -0.5969  -11.6124 H   0  0  0  0  0  0  0  0  0  0  0  0
  -10.5437   -1.9762  -12.1503 H   0  0  0  0  0  0  0  0  0  0  0  0
  -10.8804   -1.7150  -10.4237 H   0  0  0  0  0  0  0  0  0  0  0  0
   -7.4691   -3.6887  -18.9805 H   0  0  0  0  0  0  0  0  0  0  0  0
   -8.5853   -2.8879  -19.8633 H   0  0  0  0  0  0  0  0  0  0  0  0
  1 14  1  0  0  0  0
  1 16  2  0  0  0  0
  1 17  1  0  0  0  0
  2  4  1  0  0  0  0
  2  8  1  0  0  0  0
  3  5  1  0  0  0  0
  3  8  1  0  0  0  0
  4  9  1  0  0  0  0
  5  9  1  0  0  0  0
  6  7  1  0  0  0  0
  6  9  1  0  0  0  0
  7 14  1  0  0  0  0
  8 15  1  0  0  0  0
  9 14  1  0  0  0  0
 10 13  1  0  0  0  0
 11 13  1  0  0  0  0
 12 13  1  0  0  0  0
 13 17  1  0  0  0  0
  2 18  1  0  0  0  0
  2 19  1  0  0  0  0
  3 20  1  0  0  0  0
  3 21  1  0  0  0  0
  4 22  1  0  0  0  0
  4 23  1  0  0  0  0
  5 24  1  0  0  0  0
  5 25  1  0  0  0  0
  6 26  1  0  0  0  0
  6 27  1  0  0  0  0
  7 28  1  0  0  0  0
  7 29  1  0  0  0  0
  8 30  1  0  0  0  0
 10 31  1  0  0  0  0
 10 32  1  0  0  0  0
 10 33  1  0  0  0  0
 11 34  1  0  0  0  0
 11 35  1  0  0  0  0
 11 36  1  0  0  0  0
 12 37  1  0  0  0  0
 12 38  1  0  0  0  0
 12 39  1  0  0  0  0
 15 40  1  0  0  0  0
 15 41  1  0  0  0  0
M  END
> <id>
EN300-26555823

> <smiles>
CC(C)(C)OC(=O)N1CCC21CCC(N)CC2

> <MDLNUMBER>
MFCD31743755

> <IUPAC Name>
tert-butyl 7-amino-1-azaspiro[3.5]nonane-1-carboxylate

> <CAS>
2168112-88-5

> <Purity>
95

> <URL>
https://www.enaminestore.com/catalog/EN300-26555823

> <ROCS_ShapeQuery>
amalgated

> <ROCS_TanimotoCombo>
0.848 

> <ROCS_ShapeTanimoto>
0.563 

> <ROCS_ColorTanimoto>
0.285 

> <ROCS_RefTversky>
0.533 

> <ROCS_RefColorTversky>
0.415 

> <ROCS_RefTverskyCombo>
0.947 

> <ROCS_FitTversky>
1.112 

> <ROCS_FitColorTversky>
0.476 

> <ROCS_FitTverskyCombo>
1.588 

> <ROCS_ColorScore>
-2.882

> <ROCS_Overlap>
875.054

> <ROCS_Rank>
223                 

$$$$
untitled-dbase-10531_79
  -OEChem-10092318153D

 38 39  0     1  0  0  0  0  0999 V2000
   -8.7875    0.0546  -14.0032 C   0  0  0  0  0  0  0  0  0  0  0  0
   -9.3838   -2.7678  -16.1689 C   0  0  0  0  0  0  0  0  0  0  0  0
   -8.4638   -2.1942  -15.0962 C   0  0  0  0  0  0  0  0  0  0  0  0
   -9.4195   -2.6853  -18.7126 C   0  0  0  0  0  0  0  0  0  0  0  0
   -7.3033   -1.7134  -18.2330 C   0  0  0  0  0  0  0  0  0  0  0  0
   -8.0069   -0.1068  -16.3469 C   0  0  0  0  0  0  0  0  0  0  0  0
   -9.5350   -1.8820  -17.4211 C   0  0  2  0  0  0  0  0  0  0  0  0
   -8.4106   -0.8687  -17.6077 C   0  0  2  0  0  0  0  0  0  0  0  0
  -10.6649    0.9140  -12.0217 C   0  0  0  0  0  0  0  0  0  0  0  0
   -9.7578   -0.9598  -10.6162 C   0  0  0  0  0  0  0  0  0  0  0  0
   -8.2472    0.9183  -11.3223 C   0  0  0  0  0  0  0  0  0  0  0  0
   -9.4416    0.0508  -11.7167 C   0  0  0  0  0  0  0  0  0  0  0  0
   -7.9845   -2.7494  -19.0268 N   0  0  0  0  0  0  0  0  0  0  0  0
   -8.4689   -0.7361  -15.1124 N   0  0  0  0  0  0  0  0  0  0  0  0
   -8.7936    1.2845  -14.0106 O   0  0  0  0  0  0  0  0  0  0  0  0
   -9.0995   -0.6876  -12.8953 O   0  0  0  0  0  0  0  0  0  0  0  0
   -9.0117   -3.7748  -16.4625 H   0  0  0  0  0  0  0  0  0  0  0  0
  -10.3895   -2.9608  -15.7358 H   0  0  0  0  0  0  0  0  0  0  0  0
   -8.7924   -2.5108  -14.1071 H   0  0  0  0  0  0  0  0  0  0  0  0
   -7.4441   -2.5448  -15.2420 H   0  0  0  0  0  0  0  0  0  0  0  0
   -9.8218   -3.7109  -18.5968 H   0  0  0  0  0  0  0  0  0  0  0  0
   -9.9821   -2.2138  -19.5392 H   0  0  0  0  0  0  0  0  0  0  0  0
   -6.6375   -1.1077  -18.8702 H   0  0  0  0  0  0  0  0  0  0  0  0
   -6.6695   -2.1928  -17.4653 H   0  0  0  0  0  0  0  0  0  0  0  0
   -6.9054   -0.0342  -16.2667 H   0  0  0  0  0  0  0  0  0  0  0  0
   -8.3662    0.9356  -16.4197 H   0  0  0  0  0  0  0  0  0  0  0  0
  -10.4763   -1.3711  -17.4001 H   0  0  0  0  0  0  0  0  0  0  0  0
   -8.7515   -0.1358  -18.3673 H   0  0  0  0  0  0  0  0  0  0  0  0
  -10.4420    1.6407  -12.8111 H   0  0  0  0  0  0  0  0  0  0  0  0
  -11.5184    0.3062  -12.3395 H   0  0  0  0  0  0  0  0  0  0  0  0
  -10.9626    1.4953  -11.1415 H   0  0  0  0  0  0  0  0  0  0  0  0
   -8.8829   -1.5814  -10.3941 H   0  0  0  0  0  0  0  0  0  0  0  0
  -10.5516   -1.6461  -10.9329 H   0  0  0  0  0  0  0  0  0  0  0  0
  -10.0753   -0.4652   -9.6926 H   0  0  0  0  0  0  0  0  0  0  0  0
   -7.3695    0.2994  -11.1035 H   0  0  0  0  0  0  0  0  0  0  0  0
   -7.9826    1.6249  -12.1156 H   0  0  0  0  0  0  0  0  0  0  0  0
   -8.4617    1.4847  -10.4088 H   0  0  0  0  0  0  0  0  0  0  0  0
   -7.6088   -3.6796  -18.7971 H   0  0  0  0  0  0  0  0  0  0  0  0
  1 14  1  0  0  0  0
  1 15  2  0  0  0  0
  1 16  1  0  0  0  0
  2  3  1  0  0  0  0
  2  7  1  6  0  0  0
  3 14  1  0  0  0  0
  4  7  1  0  0  0  0
  4 13  1  0  0  0  0
  5  8  1  6  0  0  0
  5 13  1  0  0  0  0
  6  8  1  0  0  0  0
  6 14  1  0  0  0  0
  7  8  1  0  0  0  0
  9 12  1  0  0  0  0
 10 12  1  0  0  0  0
 11 12  1  0  0  0  0
 12 16  1  0  0  0  0
  2 17  1  0  0  0  0
  2 18  1  0  0  0  0
  3 19  1  0  0  0  0
  3 20  1  0  0  0  0
  4 21  1  0  0  0  0
  4 22  1  0  0  0  0
  5 23  1  0  0  0  0
  5 24  1  0  0  0  0
  6 25  1  0  0  0  0
  6 26  1  0  0  0  0
  7 27  1  0  0  0  0
  8 28  1  0  0  0  0
  9 29  1  0  0  0  0
  9 30  1  0  0  0  0
  9 31  1  0  0  0  0
 10 32  1  0  0  0  0
 10 33  1  0  0  0  0
 10 34  1  0  0  0  0
 11 35  1  0  0  0  0
 11 36  1  0  0  0  0
 11 37  1  0  0  0  0
 13 38  1  0  0  0  0
M  END
> <id>
EN300-370908

> <smiles>
CC(C)(C)OC(=O)N1CC[C@@H]2CNC[C@@H]2C1 |&1:10,14,r|

> <MDLNUMBER>
MFCD22035710

> <IUPAC Name>
rac-tert-butyl (3aR,7aS)-octahydro-1H-pyrrolo[3,4-c]pyridine-5-carboxylate

> <CAS>
1257389-94-8

> <Purity>
95

> <URL>
https://www.enaminestore.com/catalog/EN300-370908

> <ROCS_ShapeQuery>
amalgated

> <ROCS_TanimotoCombo>
0.848 

> <ROCS_ShapeTanimoto>
0.581 

> <ROCS_ColorTanimoto>
0.267 

> <ROCS_RefTversky>
0.535 

> <ROCS_RefColorTversky>
0.394 

> <ROCS_RefTverskyCombo>
0.929 

> <ROCS_FitTversky>
1.173 

> <ROCS_FitColorTversky>
0.452 

> <ROCS_FitTverskyCombo>
1.625 

> <ROCS_ColorScore>
-2.739

> <ROCS_Overlap>
877.971

> <ROCS_Rank>
224                 

$$$$
untitled-dbase-34683_160
  -OEChem-10092318153D

 42 43  0     1  0  0  0  0  0999 V2000
   -8.7196    0.3463  -13.3465 C   0  0  0  0  0  0  0  0  0  0  0  0
   -9.4380   -2.5055  -16.7657 C   0  0  0  0  0  0  0  0  0  0  0  0
   -8.4998   -3.3558  -17.6260 C   0  0  0  0  0  0  0  0  0  0  0  0
   -8.2136    1.7171  -15.4069 C   0  0  0  0  0  0  0  0  0  0  0  0
   -9.6895   -0.2960  -15.5349 C   0  0  0  0  0  0  0  0  0  0  0  0
   -7.4249   -1.3726  -18.5177 C   0  0  0  0  0  0  0  0  0  0  0  0
   -7.1645    1.2055  -16.3895 C   0  0  0  0  0  0  0  0  0  0  0  0
   -8.7756   -1.1679  -16.4023 C   0  0  2  0  0  0  0  0  0  0  0  0
   -8.3599   -0.4639  -17.7100 C   0  0  1  0  0  0  0  0  0  0  0  0
   -9.4442    0.7855  -10.6123 C   0  0  0  0  0  0  0  0  0  0  0  0
  -11.0705   -1.1016  -10.9335 C   0  0  0  0  0  0  0  0  0  0  0  0
   -8.6056   -1.5207  -11.1716 C   0  0  0  0  0  0  0  0  0  0  0  0
   -9.7330   -0.5088  -11.3713 C   0  0  0  0  0  0  0  0  0  0  0  0
   -8.0664   -2.6492  -18.8311 N   0  0  0  0  0  0  0  0  0  0  0  0
   -8.8940    0.6196  -14.7115 N   0  0  0  0  0  0  0  0  0  0  0  0
   -7.6859    0.5768  -12.7209 O   0  0  0  0  0  0  0  0  0  0  0  0
   -7.7750    0.8319  -17.6140 O   0  0  0  0  0  0  0  0  0  0  0  0
   -9.8317   -0.2059  -12.7677 O   0  0  0  0  0  0  0  0  0  0  0  0
  -10.3653   -2.3272  -17.3149 H   0  0  0  0  0  0  0  0  0  0  0  0
   -9.6926   -3.0562  -15.8590 H   0  0  0  0  0  0  0  0  0  0  0  0
   -7.6262   -3.6718  -17.0355 H   0  0  0  0  0  0  0  0  0  0  0  0
   -9.0238   -4.2749  -17.9235 H   0  0  0  0  0  0  0  0  0  0  0  0
   -7.7442    2.3893  -14.6835 H   0  0  0  0  0  0  0  0  0  0  0  0
   -8.9705    2.3073  -15.9325 H   0  0  0  0  0  0  0  0  0  0  0  0
  -10.3622    0.3010  -16.1428 H   0  0  0  0  0  0  0  0  0  0  0  0
  -10.2896   -0.9297  -14.8896 H   0  0  0  0  0  0  0  0  0  0  0  0
   -7.1558   -0.8690  -19.4490 H   0  0  0  0  0  0  0  0  0  0  0  0
   -6.4871   -1.5373  -17.9801 H   0  0  0  0  0  0  0  0  0  0  0  0
   -6.4172    1.9595  -16.5717 H   0  0  0  0  0  0  0  0  0  0  0  0
   -6.6933    0.3224  -15.9886 H   0  0  0  0  0  0  0  0  0  0  0  0
   -7.8617   -1.3686  -15.8313 H   0  0  0  0  0  0  0  0  0  0  0  0
   -9.3146   -0.3766  -18.3797 H   0  0  0  0  0  0  0  0  0  0  0  0
   -8.4849    1.2141  -10.9237 H   0  0  0  0  0  0  0  0  0  0  0  0
  -10.2281    1.5323  -10.7754 H   0  0  0  0  0  0  0  0  0  0  0  0
   -9.3638    0.5976   -9.5355 H   0  0  0  0  0  0  0  0  0  0  0  0
  -11.2818   -2.0304  -11.4756 H   0  0  0  0  0  0  0  0  0  0  0  0
  -11.8947   -0.4164  -11.1623 H   0  0  0  0  0  0  0  0  0  0  0  0
  -11.0855   -1.3157   -9.8600 H   0  0  0  0  0  0  0  0  0  0  0  0
   -8.8125   -2.4492  -11.7160 H   0  0  0  0  0  0  0  0  0  0  0  0
   -7.6438   -1.1259  -11.5147 H   0  0  0  0  0  0  0  0  0  0  0  0
   -8.5119   -1.7962  -10.1149 H   0  0  0  0  0  0  0  0  0  0  0  0
   -7.4065   -3.2381  -19.3461 H   0  0  0  0  0  0  0  0  0  0  0  0
  1 15  1  0  0  0  0
  1 16  2  0  0  0  0
  1 18  1  0  0  0  0
  2  3  1  0  0  0  0
  2  8  1  0  0  0  0
  3 14  1  0  0  0  0
  4  7  1  0  0  0  0
  4 15  1  0  0  0  0
  5  8  1  0  0  0  0
  5 15  1  0  0  0  0
  6  9  1  0  0  0  0
  6 14  1  0  0  0  0
  7 17  1  0  0  0  0
  8  9  1  0  0  0  0
  9 17  1  0  0  0  0
 10 13  1  0  0  0  0
 11 13  1  0  0  0  0
 12 13  1  0  0  0  0
 13 18  1  0  0  0  0
  2 19  1  0  0  0  0
  2 20  1  0  0  0  0
  3 21  1  0  0  0  0
  3 22  1  0  0  0  0
  4 23  1  0  0  0  0
  4 24  1  0  0  0  0
  5 25  1  0  0  0  0
  5 26  1  0  0  0  0
  6 27  1  0  0  0  0
  6 28  1  0  0  0  0
  7 29  1  0  0  0  0
  7 30  1  0  0  0  0
  8 31  1  0  0  0  0
  9 32  1  0  0  0  0
 10 33  1  0  0  0  0
 10 34  1  0  0  0  0
 10 35  1  0  0  0  0
 11 36  1  0  0  0  0
 11 37  1  0  0  0  0
 11 38  1  0  0  0  0
 12 39  1  0  0  0  0
 12 40  1  0  0  0  0
 12 41  1  0  0  0  0
 14 42  1  0  0  0  0
M  END
> <id>
EN300-37469406

> <smiles>
CC(C)(C)OC(=O)N1CCOC2CNCCC2C1

> <IUPAC Name>
tert-butyl decahydropyrido[4,3-f][1,4]oxazepine-4-carboxylate

> <CAS>
1935467-06-3

> <URL>
https://www.enaminestore.com/catalog/EN300-37469406

> <ROCS_ShapeQuery>
amalgated

> <ROCS_TanimotoCombo>
0.848 

> <ROCS_ShapeTanimoto>
0.616 

> <ROCS_ColorTanimoto>
0.231 

> <ROCS_RefTversky>
0.574 

> <ROCS_RefColorTversky>
0.376 

> <ROCS_RefTverskyCombo>
0.949 

> <ROCS_FitTversky>
1.137 

> <ROCS_FitColorTversky>
0.376 

> <ROCS_FitTverskyCombo>
1.513 

> <ROCS_ColorScore>
-2.630

> <ROCS_Overlap>
943.547

> <ROCS_Rank>
225                 

$$$$
untitled-dbase-49813_52
  -OEChem-10092318153D

 57 60  0     1  0  0  0  0  0999 V2000
   -8.2781   -0.1307  -10.4078 C   0  0  0  0  0  0  0  0  0  0  0  0
   -9.4650   -0.8351  -10.5991 C   0  0  0  0  0  0  0  0  0  0  0  0
   -7.9001    0.8584  -11.3142 C   0  0  0  0  0  0  0  0  0  0  0  0
  -10.2773   -0.5595  -11.7010 C   0  0  0  0  0  0  0  0  0  0  0  0
   -8.7030    1.1280  -12.4288 C   0  0  0  0  0  0  0  0  0  0  0  0
   -9.8948    0.4089  -12.6355 C   0  0  0  0  0  0  0  0  0  0  0  0
  -10.4956   -1.1663  -16.5393 C   0  0  0  0  0  0  0  0  0  0  0  0
  -11.0680   -0.1786  -15.8353 C   0  0  0  0  0  0  0  0  0  0  0  0
   -8.2706    2.2235  -13.3316 C   0  0  0  0  0  0  0  0  0  0  0  0
   -7.8594    0.0937  -17.2263 C   0  0  0  0  0  0  0  0  0  0  0  0
  -10.0654   -1.0523  -17.9756 C   0  0  0  0  0  0  0  0  0  0  0  0
  -11.3748   -0.2969  -14.3713 C   0  0  0  0  0  0  0  0  0  0  0  0
   -5.4920    1.6437  -19.1726 C   0  0  0  0  0  0  0  0  0  0  0  0
   -5.1052    2.6146  -18.0477 C   0  0  0  0  0  0  0  0  0  0  0  0
   -6.8057    1.9797  -19.9024 C   0  0  0  0  0  0  0  0  0  0  0  0
   -5.8960    2.4909  -16.7358 C   0  0  0  0  0  0  0  0  0  0  0  0
   -8.1187    1.7131  -19.1470 C   0  0  0  0  0  0  0  0  0  0  0  0
   -8.2397    2.9340  -15.7149 C   0  0  0  0  0  0  0  0  0  0  0  0
   -7.9479   -1.4254  -19.4793 C   0  0  0  0  0  0  0  0  0  0  0  0
   -7.9057   -2.5080  -17.7158 C   0  0  0  0  0  0  0  0  0  0  0  0
   -7.4081    2.5720  -16.9577 C   0  0  2  0  0  0  0  0  0  0  0  0
   -8.5172   -1.0888  -18.0569 C   0  0  0  0  0  0  0  0  0  0  0  0
   -8.3496    1.9309  -14.6813 N   0  0  0  0  0  0  0  0  0  0  0  0
   -7.9953   -2.8564  -19.1406 N   0  0  0  0  0  0  0  0  0  0  0  0
   -7.9013    1.4146  -17.7380 N   0  0  0  0  0  0  0  0  0  0  0  0
   -7.8918    3.2837  -12.8440 O   0  0  0  0  0  0  0  0  0  0  0  0
   -7.3528   -0.1560  -16.1190 O   0  0  0  0  0  0  0  0  0  0  0  0
  -10.6818    0.7619  -13.7001 O   0  0  0  0  0  0  0  0  0  0  0  0
   -7.6494   -0.3505   -9.5501 H   0  0  0  0  0  0  0  0  0  0  0  0
   -9.7656   -1.5949   -9.8823 H   0  0  0  0  0  0  0  0  0  0  0  0
   -6.9742    1.3984  -11.1431 H   0  0  0  0  0  0  0  0  0  0  0  0
  -11.2157   -1.0986  -11.8023 H   0  0  0  0  0  0  0  0  0  0  0  0
  -10.3456   -2.1370  -16.0576 H   0  0  0  0  0  0  0  0  0  0  0  0
  -11.3097    0.7579  -16.3149 H   0  0  0  0  0  0  0  0  0  0  0  0
  -10.5163   -1.8783  -18.5206 H   0  0  0  0  0  0  0  0  0  0  0  0
  -10.4315   -0.1270  -18.4156 H   0  0  0  0  0  0  0  0  0  0  0  0
  -12.4538   -0.1719  -14.2165 H   0  0  0  0  0  0  0  0  0  0  0  0
  -11.0693   -1.2830  -13.9929 H   0  0  0  0  0  0  0  0  0  0  0  0
   -4.6835    1.6345  -19.9171 H   0  0  0  0  0  0  0  0  0  0  0  0
   -5.5495    0.6204  -18.7755 H   0  0  0  0  0  0  0  0  0  0  0  0
   -4.0349    2.4319  -17.8140 H   0  0  0  0  0  0  0  0  0  0  0  0
   -5.1359    3.6621  -18.4191 H   0  0  0  0  0  0  0  0  0  0  0  0
   -6.7586    3.0343  -20.2292 H   0  0  0  0  0  0  0  0  0  0  0  0
   -6.8233    1.3902  -20.8386 H   0  0  0  0  0  0  0  0  0  0  0  0
   -5.6057    1.5866  -16.2092 H   0  0  0  0  0  0  0  0  0  0  0  0
   -5.6050    3.3311  -16.1057 H   0  0  0  0  0  0  0  0  0  0  0  0
   -8.7503    2.5939  -19.2444 H   0  0  0  0  0  0  0  0  0  0  0  0
   -8.6816    0.8984  -19.6160 H   0  0  0  0  0  0  0  0  0  0  0  0
   -7.8538    3.8821  -15.2643 H   0  0  0  0  0  0  0  0  0  0  0  0
   -9.2870    3.1838  -16.0086 H   0  0  0  0  0  0  0  0  0  0  0  0
   -8.5647   -1.1405  -20.3433 H   0  0  0  0  0  0  0  0  0  0  0  0
   -6.9252   -1.0644  -19.6721 H   0  0  0  0  0  0  0  0  0  0  0  0
   -6.8757   -2.4969  -17.3623 H   0  0  0  0  0  0  0  0  0  0  0  0
   -8.5008   -3.1437  -17.0599 H   0  0  0  0  0  0  0  0  0  0  0  0
   -7.5292    3.4384  -17.6848 H   0  0  0  0  0  0  0  0  0  0  0  0
   -8.4905    0.9715  -14.9537 H   0  0  0  0  0  0  0  0  0  0  0  0
   -8.8765   -3.3062  -19.3962 H   0  0  0  0  0  0  0  0  0  0  0  0
  1  2  2  0  0  0  0
  1  3  1  0  0  0  0
  2  4  1  0  0  0  0
  3  5  2  0  0  0  0
  4  6  2  0  0  0  0
  5  6  1  0  0  0  0
  5  9  1  0  0  0  0
  6 28  1  0  0  0  0
  7  8  2  0  0  0  0
  7 11  1  0  0  0  0
  8 12  1  0  0  0  0
  9 23  1  0  0  0  0
  9 26  2  0  0  0  0
 10 22  1  0  0  0  0
 10 25  1  0  0  0  0
 10 27  2  0  0  0  0
 11 22  1  0  0  0  0
 12 28  1  0  0  0  0
 13 14  1  0  0  0  0
 13 15  1  0  0  0  0
 14 16  1  0  0  0  0
 15 17  1  0  0  0  0
 16 21  1  0  0  0  0
 17 25  1  0  0  0  0
 18 21  1  0  0  0  0
 18 23  1  0  0  0  0
 19 22  1  0  0  0  0
 19 24  1  0  0  0  0
 20 22  1  0  0  0  0
 20 24  1  0  0  0  0
 21 25  1  0  0  0  0
  1 29  1  0  0  0  0
  2 30  1  0  0  0  0
  3 31  1  0  0  0  0
  4 32  1  0  0  0  0
  7 33  1  0  0  0  0
  8 34  1  0  0  0  0
 11 35  1  0  0  0  0
 11 36  1  0  0  0  0
 12 37  1  0  0  0  0
 12 38  1  0  0  0  0
 13 39  1  0  0  0  0
 13 40  1  0  0  0  0
 14 41  1  0  0  0  0
 14 42  1  0  0  0  0
 15 43  1  0  0  0  0
 15 44  1  0  0  0  0
 16 45  1  0  0  0  0
 16 46  1  0  0  0  0
 17 47  1  0  0  0  0
 17 48  1  0  0  0  0
 18 49  1  0  0  0  0
 18 50  1  0  0  0  0
 19 51  1  0  0  0  0
 19 52  1  0  0  0  0
 20 53  1  0  0  0  0
 20 54  1  0  0  0  0
 21 55  1  0  0  0  0
 23 56  1  0  0  0  0
 24 57  1  0  0  0  0
M  END
> <id>
EN300-6477916

> <smiles>
OC(=O)C(F)(F)F.O=C1NCC2CCCCCN2C(=O)C3(CNC3)C/C=C/COC=4C=CC=CC14

> <MDLNUMBER>
MFCD31667276

> <IUPAC Name>
(13'E)-11'-oxa-3',18'-diazaspiro[azetidine-3,16'-tricyclo[16.5.0.0,5,10]tricosane]-5'(10'),6',8',13'-tetraene-4',17'-dione; trifluoroacetic acid

> <CAS>
2648972-75-0

> <URL>
https://www.enaminestore.com/catalog/EN300-6477916

> <Saltdate>
OC(=O)C(F)(F)F

> <ROCS_ShapeQuery>
amalgated

> <ROCS_TanimotoCombo>
0.847 

> <ROCS_ShapeTanimoto>
0.565 

> <ROCS_ColorTanimoto>
0.282 

> <ROCS_RefTversky>
0.635 

> <ROCS_RefColorTversky>
0.496 

> <ROCS_RefTverskyCombo>
1.131 

> <ROCS_FitTversky>
0.837 

> <ROCS_FitColorTversky>
0.396 

> <ROCS_FitTverskyCombo>
1.233 

> <ROCS_ColorScore>
-3.524

> <ROCS_Overlap>
1058.940

> <ROCS_Rank>
226                 

$$$$
untitled-dbase-34293_87
  -OEChem-10092318153D

 46 48  0     1  0  0  0  0  0999 V2000
   -8.5565    0.0098  -14.1773 C   0  0  0  0  0  0  0  0  0  0  0  0
  -10.1448   -3.1727  -14.9277 C   0  0  0  0  0  0  0  0  0  0  0  0
  -10.0269   -3.4775  -16.4130 C   0  0  0  0  0  0  0  0  0  0  0  0
   -8.1843    0.1395  -18.6049 C   0  0  0  0  0  0  0  0  0  0  0  0
   -8.9306   -2.4219  -14.4046 C   0  0  0  0  0  0  0  0  0  0  0  0
   -7.6511    1.4405  -18.0377 C   0  0  0  0  0  0  0  0  0  0  0  0
   -6.5792   -0.3156  -16.9379 C   0  0  0  0  0  0  0  0  0  0  0  0
   -9.5162   -2.2769  -17.2024 C   0  0  1  0  0  0  0  0  0  0  0  0
   -9.1561   -0.9431  -16.4631 C   0  0  2  0  0  0  0  0  0  0  0  0
   -8.0241   -2.3616  -17.6250 C   0  0  2  0  0  0  0  0  0  0  0  0
   -7.9224   -0.8192  -17.4478 C   0  0  1  0  0  0  0  0  0  0  0  0
  -10.6100    0.5213  -12.6261 C   0  0  0  0  0  0  0  0  0  0  0  0
   -9.4805   -0.7641  -10.7873 C   0  0  0  0  0  0  0  0  0  0  0  0
   -8.6534    1.5261  -11.4028 C   0  0  0  0  0  0  0  0  0  0  0  0
   -9.2829    0.2354  -11.9249 C   0  0  0  0  0  0  0  0  0  0  0  0
   -8.8445   -1.0885  -15.0014 N   0  0  0  0  0  0  0  0  0  0  0  0
   -7.9568   -2.7347  -19.0321 N   0  0  0  0  0  0  0  0  0  0  0  0
   -8.4603    1.1711  -14.5682 O   0  0  0  0  0  0  0  0  0  0  0  0
   -6.5403    1.0979  -17.1954 O   0  0  0  0  0  0  0  0  0  0  0  0
   -8.3867   -0.3589  -12.8704 O   0  0  0  0  0  0  0  0  0  0  0  0
  -11.0598   -2.5874  -14.7291 H   0  0  0  0  0  0  0  0  0  0  0  0
  -10.2566   -4.1175  -14.3697 H   0  0  0  0  0  0  0  0  0  0  0  0
   -9.3707   -4.3632  -16.5490 H   0  0  0  0  0  0  0  0  0  0  0  0
  -11.0136   -3.7941  -16.8132 H   0  0  0  0  0  0  0  0  0  0  0  0
   -9.2624    0.2373  -18.7761 H   0  0  0  0  0  0  0  0  0  0  0  0
   -7.7219   -0.1338  -19.5562 H   0  0  0  0  0  0  0  0  0  0  0  0
   -8.9958   -2.3354  -13.3275 H   0  0  0  0  0  0  0  0  0  0  0  0
   -8.0162   -2.9459  -14.6561 H   0  0  0  0  0  0  0  0  0  0  0  0
   -7.2778    2.1010  -18.8302 H   0  0  0  0  0  0  0  0  0  0  0  0
   -8.4019    1.9859  -17.4560 H   0  0  0  0  0  0  0  0  0  0  0  0
   -6.4828   -0.4360  -15.8521 H   0  0  0  0  0  0  0  0  0  0  0  0
   -5.7099   -0.7840  -17.4109 H   0  0  0  0  0  0  0  0  0  0  0  0
  -10.2110   -2.0900  -18.0435 H   0  0  0  0  0  0  0  0  0  0  0  0
   -9.9159   -0.2002  -16.6340 H   0  0  0  0  0  0  0  0  0  0  0  0
   -7.3756   -2.9766  -16.9813 H   0  0  0  0  0  0  0  0  0  0  0  0
  -10.4724    1.2383  -13.4434 H   0  0  0  0  0  0  0  0  0  0  0  0
  -11.0547   -0.3916  -13.0357 H   0  0  0  0  0  0  0  0  0  0  0  0
  -11.3281    0.9756  -11.9339 H   0  0  0  0  0  0  0  0  0  0  0  0
   -8.5308   -0.9722  -10.2814 H   0  0  0  0  0  0  0  0  0  0  0  0
   -9.8431   -1.7249  -11.1705 H   0  0  0  0  0  0  0  0  0  0  0  0
  -10.1953   -0.3950  -10.0448 H   0  0  0  0  0  0  0  0  0  0  0  0
   -7.7014    1.3213  -10.8998 H   0  0  0  0  0  0  0  0  0  0  0  0
   -8.4702    2.2412  -12.2113 H   0  0  0  0  0  0  0  0  0  0  0  0
   -9.3009    2.0017  -10.6574 H   0  0  0  0  0  0  0  0  0  0  0  0
   -7.0195   -2.6229  -19.3348 H   0  0  0  0  0  0  0  0  0  0  0  0
   -8.2438   -3.6802  -19.1125 H   0  0  0  0  0  0  0  0  0  0  0  0
  1 16  1  0  0  0  0
  1 18  2  0  0  0  0
  1 20  1  0  0  0  0
  2  3  1  0  0  0  0
  2  5  1  0  0  0  0
  3  8  1  0  0  0  0
  4  6  1  0  0  0  0
  4 11  1  0  0  0  0
  5 16  1  0  0  0  0
  6 19  1  0  0  0  0
  7 11  1  0  0  0  0
  7 19  1  0  0  0  0
  8  9  1  0  0  0  0
  8 10  1  0  0  0  0
  9 11  1  0  0  0  0
  9 16  1  0  0  0  0
 10 11  1  0  0  0  0
 10 17  1  0  0  0  0
 12 15  1  0  0  0  0
 13 15  1  0  0  0  0
 14 15  1  0  0  0  0
 15 20  1  0  0  0  0
  2 21  1  0  0  0  0
  2 22  1  0  0  0  0
  3 23  1  0  0  0  0
  3 24  1  0  0  0  0
  4 25  1  0  0  0  0
  4 26  1  0  0  0  0
  5 27  1  0  0  0  0
  5 28  1  0  0  0  0
  6 29  1  0  0  0  0
  6 30  1  0  0  0  0
  7 31  1  0  0  0  0
  7 32  1  0  0  0  0
  8 33  1  0  0  0  0
  9 34  1  0  0  0  0
 10 35  1  0  0  0  0
 12 36  1  0  0  0  0
 12 37  1  0  0  0  0
 12 38  1  0  0  0  0
 13 39  1  0  0  0  0
 13 40  1  0  0  0  0
 13 41  1  0  0  0  0
 14 42  1  0  0  0  0
 14 43  1  0  0  0  0
 14 44  1  0  0  0  0
 17 45  1  0  0  0  0
 17 46  1  0  0  0  0
M  END
> <id>
EN300-701137

> <smiles>
CC(C)(C)OC(=O)N1CCCC2C(N)C3(CCOC3)C21

> <IUPAC Name>
tert-butyl 8-amino-5-azaspiro[bicyclo[4.2.0]octane-7,3'-oxolane]-5-carboxylate

> <CAS>
2138235-84-2

> <URL>
https://www.enaminestore.com/catalog/EN300-701137

> <ROCS_ShapeQuery>
amalgated

> <ROCS_TanimotoCombo>
0.847 

> <ROCS_ShapeTanimoto>
0.592 

> <ROCS_ColorTanimoto>
0.255 

> <ROCS_RefTversky>
0.581 

> <ROCS_RefColorTversky>
0.434 

> <ROCS_RefTverskyCombo>
1.015 

> <ROCS_FitTversky>
1.034 

> <ROCS_FitColorTversky>
0.382 

> <ROCS_FitTverskyCombo>
1.415 

> <ROCS_ColorScore>
-3.062

> <ROCS_Overlap>
959.031

> <ROCS_Rank>
227                 

$$$$
untitled-dbase-42851_22
  -OEChem-10092318153D

 34 36  0     0  0  0  0  0  0999 V2000
   -8.8249   -1.8479  -18.4941 C   0  0  0  0  0  0  0  0  0  0  0  0
   -9.2288   -2.8086  -17.5676 C   0  0  0  0  0  0  0  0  0  0  0  0
   -8.2315   -0.6612  -18.0604 C   0  0  0  0  0  0  0  0  0  0  0  0
   -9.0495   -2.5819  -16.2042 C   0  0  0  0  0  0  0  0  0  0  0  0
   -8.0425   -0.4250  -16.6938 C   0  0  0  0  0  0  0  0  0  0  0  0
   -8.4806   -1.3843  -15.7697 C   0  0  0  0  0  0  0  0  0  0  0  0
   -7.3918    0.8386  -16.2049 C   0  0  0  0  0  0  0  0  0  0  0  0
   -7.7828    0.4560  -12.7854 C   0  0  0  0  0  0  0  0  0  0  0  0
  -10.0783   -0.6126  -12.9811 C   0  0  0  0  0  0  0  0  0  0  0  0
   -7.8436   -0.2801  -11.4468 C   0  0  0  0  0  0  0  0  0  0  0  0
  -10.2607    0.0959  -11.6424 C   0  0  0  0  0  0  0  0  0  0  0  0
   -9.3339    1.0858  -14.7067 C   0  0  0  0  0  0  0  0  0  0  0  0
   -8.8578   -0.0663  -13.7743 C   0  0  0  0  0  0  0  0  0  0  0  0
   -8.3025    1.7485  -15.5127 N   0  0  0  0  0  0  0  0  0  0  0  0
   -9.1132   -0.0667  -10.7499 N   0  0  0  0  0  0  0  0  0  0  0  0
   -8.2885   -1.2309  -14.4260 O   0  0  0  0  0  0  0  0  0  0  0  0
   -8.9575   -2.0318  -19.5571 H   0  0  0  0  0  0  0  0  0  0  0  0
   -9.6805   -3.7363  -17.9100 H   0  0  0  0  0  0  0  0  0  0  0  0
   -7.9082    0.0613  -18.7996 H   0  0  0  0  0  0  0  0  0  0  0  0
   -9.3679   -3.3339  -15.4924 H   0  0  0  0  0  0  0  0  0  0  0  0
   -6.5187    0.5906  -15.5869 H   0  0  0  0  0  0  0  0  0  0  0  0
   -6.9909    1.3893  -17.0658 H   0  0  0  0  0  0  0  0  0  0  0  0
   -7.9189    1.5283  -12.6074 H   0  0  0  0  0  0  0  0  0  0  0  0
   -6.7828    0.3156  -13.2089 H   0  0  0  0  0  0  0  0  0  0  0  0
   -9.9849   -1.6853  -12.7945 H   0  0  0  0  0  0  0  0  0  0  0  0
  -10.9851   -0.4746  -13.5813 H   0  0  0  0  0  0  0  0  0  0  0  0
   -7.6656   -1.3588  -11.5870 H   0  0  0  0  0  0  0  0  0  0  0  0
   -7.0273    0.0825  -10.8034 H   0  0  0  0  0  0  0  0  0  0  0  0
  -10.4058    1.1720  -11.8266 H   0  0  0  0  0  0  0  0  0  0  0  0
  -11.1762   -0.2471  -11.1360 H   0  0  0  0  0  0  0  0  0  0  0  0
  -10.0736    0.6750  -15.4177 H   0  0  0  0  0  0  0  0  0  0  0  0
   -9.8853    1.8439  -14.1186 H   0  0  0  0  0  0  0  0  0  0  0  0
   -7.7417    2.3382  -14.8790 H   0  0  0  0  0  0  0  0  0  0  0  0
   -9.2880   -0.8622  -10.1194 H   0  0  0  0  0  0  0  0  0  0  0  0
  1  2  2  0  0  0  0
  1  3  1  0  0  0  0
  2  4  1  0  0  0  0
  3  5  2  0  0  0  0
  4  6  2  0  0  0  0
  5  6  1  0  0  0  0
  5  7  1  0  0  0  0
  6 16  1  0  0  0  0
  7 14  1  0  0  0  0
  8 10  1  0  0  0  0
  8 13  1  0  0  0  0
  9 11  1  0  0  0  0
  9 13  1  0  0  0  0
 10 15  1  0  0  0  0
 11 15  1  0  0  0  0
 12 13  1  0  0  0  0
 12 14  1  0  0  0  0
 13 16  1  0  0  0  0
  1 17  1  0  0  0  0
  2 18  1  0  0  0  0
  3 19  1  0  0  0  0
  4 20  1  0  0  0  0
  7 21  1  0  0  0  0
  7 22  1  0  0  0  0
  8 23  1  0  0  0  0
  8 24  1  0  0  0  0
  9 25  1  0  0  0  0
  9 26  1  0  0  0  0
 10 27  1  0  0  0  0
 10 28  1  0  0  0  0
 11 29  1  0  0  0  0
 11 30  1  0  0  0  0
 12 31  1  0  0  0  0
 12 32  1  0  0  0  0
 14 33  1  0  0  0  0
 15 34  1  0  0  0  0
M  END
> <id>
EN300-26667939

> <smiles>
C1CC2(CCN1)CNCC=3C=CC=CC3O2

> <IUPAC Name>
4,5-dihydro-3H-spiro[1,4-benzoxazepine-2,4'-piperidine]

> <CAS>
2580220-49-9

> <URL>
https://www.enaminestore.com/catalog/EN300-26667939

> <ROCS_ShapeQuery>
amalgated

> <ROCS_TanimotoCombo>
0.847 

> <ROCS_ShapeTanimoto>
0.563 

> <ROCS_ColorTanimoto>
0.284 

> <ROCS_RefTversky>
0.529 

> <ROCS_RefColorTversky>
0.471 

> <ROCS_RefTverskyCombo>
0.999 

> <ROCS_FitTversky>
1.131 

> <ROCS_FitColorTversky>
0.417 

> <ROCS_FitTverskyCombo>
1.548 

> <ROCS_ColorScore>
-3.319

> <ROCS_Overlap>
867.726

> <ROCS_Rank>
228                 

$$$$
untitled-dbase-6325_120
  -OEChem-10092318153D

 35 36  0     1  0  0  0  0  0999 V2000
   -8.2300   -0.4579  -14.1422 C   0  0  0  0  0  0  0  0  0  0  0  0
   -9.0609   -3.2410  -18.1161 C   0  0  0  0  0  0  0  0  0  0  0  0
   -7.4276   -1.5662  -18.3748 C   0  0  0  0  0  0  0  0  0  0  0  0
   -8.9967   -2.1600  -15.7914 C   0  0  0  0  0  0  0  0  0  0  0  0
   -8.3972    0.0272  -16.6137 C   0  0  0  0  0  0  0  0  0  0  0  0
   -9.4617   -2.0554  -17.2445 C   0  0  1  0  0  0  0  0  0  0  0  0
   -8.6576   -0.8823  -17.8015 C   0  0  2  0  0  0  0  0  0  0  0  0
   -9.3238    1.0558  -12.3050 C   0  0  0  0  0  0  0  0  0  0  0  0
  -10.6333   -0.9342  -11.5086 C   0  0  0  0  0  0  0  0  0  0  0  0
   -8.1803   -0.7648  -10.9965 C   0  0  0  0  0  0  0  0  0  0  0  0
   -9.2772   -0.4428  -12.0103 C   0  0  0  0  0  0  0  0  0  0  0  0
   -7.9730   -2.7787  -18.9970 N   0  0  0  0  0  0  0  0  0  0  0  0
   -8.5266   -0.8297  -15.4431 N   0  0  0  0  0  0  0  0  0  0  0  0
   -7.3844    0.3809  -13.8396 O   0  0  0  0  0  0  0  0  0  0  0  0
   -8.9902   -1.1380  -13.2288 O   0  0  0  0  0  0  0  0  0  0  0  0
   -8.7437   -4.1199  -17.5192 H   0  0  0  0  0  0  0  0  0  0  0  0
   -9.9156   -3.5791  -18.7373 H   0  0  0  0  0  0  0  0  0  0  0  0
   -6.9751   -0.9470  -19.1447 H   0  0  0  0  0  0  0  0  0  0  0  0
   -6.6745   -1.8100  -17.6345 H   0  0  0  0  0  0  0  0  0  0  0  0
   -9.8235   -2.4276  -15.1282 H   0  0  0  0  0  0  0  0  0  0  0  0
   -8.1878   -2.8758  -15.6274 H   0  0  0  0  0  0  0  0  0  0  0  0
   -7.4254    0.5225  -16.6279 H   0  0  0  0  0  0  0  0  0  0  0  0
   -9.1753    0.7909  -16.5308 H   0  0  0  0  0  0  0  0  0  0  0  0
  -10.5412   -1.8576  -17.2827 H   0  0  0  0  0  0  0  0  0  0  0  0
   -9.1968   -0.3664  -18.5912 H   0  0  0  0  0  0  0  0  0  0  0  0
   -8.3523    1.4125  -12.6653 H   0  0  0  0  0  0  0  0  0  0  0  0
  -10.0829    1.2957  -13.0566 H   0  0  0  0  0  0  0  0  0  0  0  0
   -9.5447    1.6265  -11.3957 H   0  0  0  0  0  0  0  0  0  0  0  0
  -10.6045   -2.0090  -11.2959 H   0  0  0  0  0  0  0  0  0  0  0  0
  -11.4070   -0.7912  -12.2717 H   0  0  0  0  0  0  0  0  0  0  0  0
  -10.9421   -0.4090  -10.5990 H   0  0  0  0  0  0  0  0  0  0  0  0
   -8.1467   -1.8397  -10.7850 H   0  0  0  0  0  0  0  0  0  0  0  0
   -7.1945   -0.4524  -11.3560 H   0  0  0  0  0  0  0  0  0  0  0  0
   -8.3758   -0.2674  -10.0396 H   0  0  0  0  0  0  0  0  0  0  0  0
   -7.2442   -3.4913  -19.0176 H   0  0  0  0  0  0  0  0  0  0  0  0
  1 13  1  0  0  0  0
  1 14  2  0  0  0  0
  1 15  1  0  0  0  0
  2  6  1  0  0  0  0
  2 12  1  0  0  0  0
  3  7  1  6  0  0  0
  3 12  1  0  0  0  0
  4  6  1  6  0  0  0
  4 13  1  0  0  0  0
  5  7  1  0  0  0  0
  5 13  1  0  0  0  0
  6  7  1  0  0  0  0
  8 11  1  0  0  0  0
  9 11  1  0  0  0  0
 10 11  1  0  0  0  0
 11 15  1  0  0  0  0
  2 16  1  0  0  0  0
  2 17  1  0  0  0  0
  3 18  1  0  0  0  0
  3 19  1  0  0  0  0
  4 20  1  0  0  0  0
  4 21  1  0  0  0  0
  5 22  1  0  0  0  0
  5 23  1  0  0  0  0
  6 24  1  0  0  0  0
  7 25  1  0  0  0  0
  8 26  1  0  0  0  0
  8 27  1  0  0  0  0
  8 28  1  0  0  0  0
  9 29  1  0  0  0  0
  9 30  1  0  0  0  0
  9 31  1  0  0  0  0
 10 32  1  0  0  0  0
 10 33  1  0  0  0  0
 10 34  1  0  0  0  0
 12 35  1  0  0  0  0
M  END
> <id>
EN300-100907

> <smiles>
CC(C)(C)OC(=O)N1C[C@@H]2CNC[C@@H]2C1

> <MDLNUMBER>
MFCD04116224

> <IUPAC Name>
tert-butyl (3aR,6aS)-octahydropyrrolo[3,4-c]pyrrole-2-carboxylate

> <CAS>
250275-15-1

> <Purity>
95

> <URL>
https://www.enaminestore.com/catalog/EN300-100907

> <ROCS_ShapeQuery>
amalgated

> <ROCS_TanimotoCombo>
0.847 

> <ROCS_ShapeTanimoto>
0.563 

> <ROCS_ColorTanimoto>
0.283 

> <ROCS_RefTversky>
0.517 

> <ROCS_RefColorTversky>
0.415 

> <ROCS_RefTverskyCombo>
0.932 

> <ROCS_FitTversky>
1.188 

> <ROCS_FitColorTversky>
0.471 

> <ROCS_FitTverskyCombo>
1.660 

> <ROCS_ColorScore>
-2.886

> <ROCS_Overlap>
847.602

> <ROCS_Rank>
229                 

$$$$
untitled-dbase-34457_120
  -OEChem-10092318153D

 35 36  0     1  0  0  0  0  0999 V2000
   -8.2300   -0.4579  -14.1422 C   0  0  0  0  0  0  0  0  0  0  0  0
   -9.0609   -3.2410  -18.1161 C   0  0  0  0  0  0  0  0  0  0  0  0
   -7.4276   -1.5662  -18.3748 C   0  0  0  0  0  0  0  0  0  0  0  0
   -8.9967   -2.1600  -15.7914 C   0  0  0  0  0  0  0  0  0  0  0  0
   -8.3972    0.0272  -16.6137 C   0  0  0  0  0  0  0  0  0  0  0  0
   -9.4617   -2.0554  -17.2445 C   0  0  1  0  0  0  0  0  0  0  0  0
   -8.6576   -0.8823  -17.8015 C   0  0  2  0  0  0  0  0  0  0  0  0
   -9.3238    1.0558  -12.3050 C   0  0  0  0  0  0  0  0  0  0  0  0
  -10.6333   -0.9342  -11.5086 C   0  0  0  0  0  0  0  0  0  0  0  0
   -8.1803   -0.7648  -10.9965 C   0  0  0  0  0  0  0  0  0  0  0  0
   -9.2772   -0.4428  -12.0103 C   0  0  0  0  0  0  0  0  0  0  0  0
   -7.9730   -2.7787  -18.9970 N   0  0  0  0  0  0  0  0  0  0  0  0
   -8.5266   -0.8297  -15.4431 N   0  0  0  0  0  0  0  0  0  0  0  0
   -7.3844    0.3809  -13.8396 O   0  0  0  0  0  0  0  0  0  0  0  0
   -8.9902   -1.1380  -13.2288 O   0  0  0  0  0  0  0  0  0  0  0  0
   -8.7437   -4.1199  -17.5192 H   0  0  0  0  0  0  0  0  0  0  0  0
   -9.9156   -3.5791  -18.7373 H   0  0  0  0  0  0  0  0  0  0  0  0
   -6.9751   -0.9470  -19.1447 H   0  0  0  0  0  0  0  0  0  0  0  0
   -6.6745   -1.8100  -17.6345 H   0  0  0  0  0  0  0  0  0  0  0  0
   -9.8235   -2.4276  -15.1282 H   0  0  0  0  0  0  0  0  0  0  0  0
   -8.1878   -2.8758  -15.6274 H   0  0  0  0  0  0  0  0  0  0  0  0
   -7.4254    0.5225  -16.6279 H   0  0  0  0  0  0  0  0  0  0  0  0
   -9.1753    0.7909  -16.5308 H   0  0  0  0  0  0  0  0  0  0  0  0
  -10.5412   -1.8576  -17.2827 H   0  0  0  0  0  0  0  0  0  0  0  0
   -9.1968   -0.3664  -18.5912 H   0  0  0  0  0  0  0  0  0  0  0  0
   -8.3523    1.4125  -12.6653 H   0  0  0  0  0  0  0  0  0  0  0  0
  -10.0829    1.2957  -13.0566 H   0  0  0  0  0  0  0  0  0  0  0  0
   -9.5447    1.6265  -11.3957 H   0  0  0  0  0  0  0  0  0  0  0  0
  -10.6045   -2.0090  -11.2959 H   0  0  0  0  0  0  0  0  0  0  0  0
  -11.4070   -0.7912  -12.2717 H   0  0  0  0  0  0  0  0  0  0  0  0
  -10.9421   -0.4090  -10.5990 H   0  0  0  0  0  0  0  0  0  0  0  0
   -8.1467   -1.8397  -10.7850 H   0  0  0  0  0  0  0  0  0  0  0  0
   -7.1945   -0.4524  -11.3560 H   0  0  0  0  0  0  0  0  0  0  0  0
   -8.3758   -0.2674  -10.0396 H   0  0  0  0  0  0  0  0  0  0  0  0
   -7.2442   -3.4913  -19.0176 H   0  0  0  0  0  0  0  0  0  0  0  0
  1 13  1  0  0  0  0
  1 14  2  0  0  0  0
  1 15  1  0  0  0  0
  2  6  1  0  0  0  0
  2 12  1  0  0  0  0
  3  7  1  6  0  0  0
  3 12  1  0  0  0  0
  4  6  1  6  0  0  0
  4 13  1  0  0  0  0
  5  7  1  0  0  0  0
  5 13  1  0  0  0  0
  6  7  1  0  0  0  0
  8 11  1  0  0  0  0
  9 11  1  0  0  0  0
 10 11  1  0  0  0  0
 11 15  1  0  0  0  0
  2 16  1  0  0  0  0
  2 17  1  0  0  0  0
  3 18  1  0  0  0  0
  3 19  1  0  0  0  0
  4 20  1  0  0  0  0
  4 21  1  0  0  0  0
  5 22  1  0  0  0  0
  5 23  1  0  0  0  0
  6 24  1  0  0  0  0
  7 25  1  0  0  0  0
  8 26  1  0  0  0  0
  8 27  1  0  0  0  0
  8 28  1  0  0  0  0
  9 29  1  0  0  0  0
  9 30  1  0  0  0  0
  9 31  1  0  0  0  0
 10 32  1  0  0  0  0
 10 33  1  0  0  0  0
 10 34  1  0  0  0  0
 12 35  1  0  0  0  0
M  END
> <id>
EN300-195882

> <smiles>
Cl.CC(C)(C)OC(=O)N1C[C@@H]2CNC[C@@H]2C1

> <MDLNUMBER>
MFCD09817618

> <IUPAC Name>
tert-butyl (3aR,6aS)-octahydropyrrolo[3,4-c]pyrrole-2-carboxylate hydrochloride

> <CAS>
445309-99-9

> <URL>
https://www.enaminestore.com/catalog/EN300-195882

> <Saltdate>
Cl

> <ROCS_ShapeQuery>
amalgated

> <ROCS_TanimotoCombo>
0.847 

> <ROCS_ShapeTanimoto>
0.563 

> <ROCS_ColorTanimoto>
0.283 

> <ROCS_RefTversky>
0.517 

> <ROCS_RefColorTversky>
0.415 

> <ROCS_RefTverskyCombo>
0.932 

> <ROCS_FitTversky>
1.188 

> <ROCS_FitColorTversky>
0.471 

> <ROCS_FitTverskyCombo>
1.660 

> <ROCS_ColorScore>
-2.886

> <ROCS_Overlap>
847.602

> <ROCS_Rank>
230                 

$$$$
untitled-dbase-34411_75
  -OEChem-10092318153D

 31 31  0     0  0  0  0  0  0999 V2000
   -8.5881   -0.1784  -15.3121 C   0  0  0  0  0  0  0  0  0  0  0  0
   -8.0787   -2.3464  -16.5746 C   0  0  0  0  0  0  0  0  0  0  0  0
   -8.9718   -0.8352  -17.8116 C   0  0  0  0  0  0  0  0  0  0  0  0
   -8.8882   -2.3721  -17.8839 C   0  0  0  0  0  0  0  0  0  0  0  0
   -9.9694    0.9351  -12.9755 C   0  0  0  0  0  0  0  0  0  0  0  0
   -9.1000   -1.0880  -11.7669 C   0  0  0  0  0  0  0  0  0  0  0  0
   -7.4904    0.6000  -12.6985 C   0  0  0  0  0  0  0  0  0  0  0  0
  -10.1842   -3.1527  -17.9012 C   0  0  0  0  0  0  0  0  0  0  0  0
   -8.8395   -0.0903  -12.8934 C   0  0  0  0  0  0  0  0  0  0  0  0
   -8.4978   -0.9562  -16.4418 N   0  0  0  0  0  0  0  0  0  0  0  0
   -7.9844   -2.7344  -18.9763 N   0  0  0  0  0  0  0  0  0  0  0  0
   -8.4275    1.0418  -15.3258 O   0  0  0  0  0  0  0  0  0  0  0  0
   -8.8019   -0.8286  -14.1253 O   0  0  0  0  0  0  0  0  0  0  0  0
  -11.0456   -2.6665  -16.9862 F   0  0  0  0  0  0  0  0  0  0  0  0
  -10.7696   -3.0775  -19.1125 F   0  0  0  0  0  0  0  0  0  0  0  0
   -9.9616   -4.4518  -17.6211 F   0  0  0  0  0  0  0  0  0  0  0  0
   -8.4708   -2.9659  -15.7635 H   0  0  0  0  0  0  0  0  0  0  0  0
   -6.9960   -2.4741  -16.6470 H   0  0  0  0  0  0  0  0  0  0  0  0
   -8.3040   -0.2613  -18.4590 H   0  0  0  0  0  0  0  0  0  0  0  0
   -9.9803   -0.4141  -17.8562 H   0  0  0  0  0  0  0  0  0  0  0  0
   -9.7862    1.6530  -13.7829 H   0  0  0  0  0  0  0  0  0  0  0  0
  -10.9379    0.4551  -13.1501 H   0  0  0  0  0  0  0  0  0  0  0  0
  -10.0347    1.5198  -12.0508 H   0  0  0  0  0  0  0  0  0  0  0  0
   -8.2918   -1.8256  -11.7044 H   0  0  0  0  0  0  0  0  0  0  0  0
  -10.0205   -1.6536  -11.9516 H   0  0  0  0  0  0  0  0  0  0  0  0
   -9.1889   -0.5881  -10.7970 H   0  0  0  0  0  0  0  0  0  0  0  0
   -6.6798   -0.1353  -12.6396 H   0  0  0  0  0  0  0  0  0  0  0  0
   -7.2698    1.2927  -13.5171 H   0  0  0  0  0  0  0  0  0  0  0  0
   -7.4708    1.1579  -11.7553 H   0  0  0  0  0  0  0  0  0  0  0  0
   -8.3259   -3.5677  -19.3871 H   0  0  0  0  0  0  0  0  0  0  0  0
   -7.9849   -1.9890  -19.6277 H   0  0  0  0  0  0  0  0  0  0  0  0
  1 10  1  0  0  0  0
  1 12  2  0  0  0  0
  1 13  1  0  0  0  0
  2  4  1  0  0  0  0
  2 10  1  0  0  0  0
  3  4  1  0  0  0  0
  3 10  1  0  0  0  0
  4  8  1  0  0  0  0
  4 11  1  0  0  0  0
  5  9  1  0  0  0  0
  6  9  1  0  0  0  0
  7  9  1  0  0  0  0
  8 14  1  0  0  0  0
  8 15  1  0  0  0  0
  8 16  1  0  0  0  0
  9 13  1  0  0  0  0
  2 17  1  0  0  0  0
  2 18  1  0  0  0  0
  3 19  1  0  0  0  0
  3 20  1  0  0  0  0
  5 21  1  0  0  0  0
  5 22  1  0  0  0  0
  5 23  1  0  0  0  0
  6 24  1  0  0  0  0
  6 25  1  0  0  0  0
  6 26  1  0  0  0  0
  7 27  1  0  0  0  0
  7 28  1  0  0  0  0
  7 29  1  0  0  0  0
 11 30  1  0  0  0  0
 11 31  1  0  0  0  0
M  END
> <id>
EN300-89730

> <smiles>
CC(C)(C)OC(=O)N1CC(N)(C1)C(F)(F)F

> <MDLNUMBER>
MFCD17480497

> <IUPAC Name>
tert-butyl 3-amino-3-(trifluoromethyl)azetidine-1-carboxylate

> <CAS>
1258652-24-2

> <URL>
https://www.enaminestore.com/catalog/EN300-89730

> <ROCS_ShapeQuery>
amalgated

> <ROCS_TanimotoCombo>
0.846 

> <ROCS_ShapeTanimoto>
0.513 

> <ROCS_ColorTanimoto>
0.333 

> <ROCS_RefTversky>
0.496 

> <ROCS_RefColorTversky>
0.435 

> <ROCS_RefTverskyCombo>
0.931 

> <ROCS_FitTversky>
1.072 

> <ROCS_FitColorTversky>
0.588 

> <ROCS_FitTverskyCombo>
1.660 

> <ROCS_ColorScore>
-2.998

> <ROCS_Overlap>
813.984

> <ROCS_Rank>
231                 

$$$$
untitled-dbase-53622_31
  -OEChem-10092318153D

 44 45  0     0  0  0  0  0  0999 V2000
   -8.4859   -0.1565  -15.2318 C   0  0  0  0  0  0  0  0  0  0  0  0
   -6.4350    2.0329  -18.9573 C   0  0  0  0  0  0  0  0  0  0  0  0
   -7.5712    2.3083  -17.9805 C   0  0  0  0  0  0  0  0  0  0  0  0
   -5.7400    0.6946  -18.7127 C   0  0  0  0  0  0  0  0  0  0  0  0
   -8.5744    1.1554  -17.9708 C   0  0  0  0  0  0  0  0  0  0  0  0
   -6.3822   -0.1381  -17.6037 C   0  0  0  0  0  0  0  0  0  0  0  0
   -8.8207   -3.0627  -17.6659 C   0  0  0  0  0  0  0  0  0  0  0  0
   -8.4437   -2.3614  -16.3716 C   0  0  0  0  0  0  0  0  0  0  0  0
   -8.3391   -1.1262  -18.9408 C   0  0  0  0  0  0  0  0  0  0  0  0
   -7.9297   -0.2504  -17.7141 C   0  0  0  0  0  0  0  0  0  0  0  0
   -9.9802    1.1746  -13.1798 C   0  0  0  0  0  0  0  0  0  0  0  0
  -10.0424   -1.0592  -12.0327 C   0  0  0  0  0  0  0  0  0  0  0  0
   -7.8394    0.0752  -12.4427 C   0  0  0  0  0  0  0  0  0  0  0  0
   -9.2530   -0.1537  -12.9757 C   0  0  0  0  0  0  0  0  0  0  0  0
   -8.0528   -2.5489  -18.7908 N   0  0  0  0  0  0  0  0  0  0  0  0
   -8.4322   -0.8893  -16.4422 N   0  0  0  0  0  0  0  0  0  0  0  0
   -7.9855    0.9513  -15.0526 O   0  0  0  0  0  0  0  0  0  0  0  0
   -9.1612   -0.8220  -14.2395 O   0  0  0  0  0  0  0  0  0  0  0  0
   -6.8193    2.0630  -19.9880 H   0  0  0  0  0  0  0  0  0  0  0  0
   -5.6915    2.8427  -18.8844 H   0  0  0  0  0  0  0  0  0  0  0  0
   -7.1623    2.4402  -16.9772 H   0  0  0  0  0  0  0  0  0  0  0  0
   -8.0680    3.2423  -18.2444 H   0  0  0  0  0  0  0  0  0  0  0  0
   -5.7015    0.1184  -19.6568 H   0  0  0  0  0  0  0  0  0  0  0  0
   -4.6800    0.8840  -18.4550 H   0  0  0  0  0  0  0  0  0  0  0  0
   -9.3108    1.3627  -17.1852 H   0  0  0  0  0  0  0  0  0  0  0  0
   -9.1247    1.1518  -18.9184 H   0  0  0  0  0  0  0  0  0  0  0  0
   -5.9282   -1.1414  -17.5926 H   0  0  0  0  0  0  0  0  0  0  0  0
   -6.0743    0.3371  -16.6660 H   0  0  0  0  0  0  0  0  0  0  0  0
   -8.6858   -4.1503  -17.5663 H   0  0  0  0  0  0  0  0  0  0  0  0
   -9.8899   -2.9019  -17.8616 H   0  0  0  0  0  0  0  0  0  0  0  0
   -9.1582   -2.6250  -15.5840 H   0  0  0  0  0  0  0  0  0  0  0  0
   -7.4658   -2.7323  -16.0550 H   0  0  0  0  0  0  0  0  0  0  0  0
   -9.4139   -1.0373  -19.1464 H   0  0  0  0  0  0  0  0  0  0  0  0
   -7.8428   -0.7549  -19.8533 H   0  0  0  0  0  0  0  0  0  0  0  0
   -9.4167    1.8274  -13.8561 H   0  0  0  0  0  0  0  0  0  0  0  0
  -10.9825    1.0262  -13.5946 H   0  0  0  0  0  0  0  0  0  0  0  0
  -10.0745    1.7182  -12.2328 H   0  0  0  0  0  0  0  0  0  0  0  0
   -9.5243   -2.0134  -11.8835 H   0  0  0  0  0  0  0  0  0  0  0  0
  -11.0233   -1.3035  -12.4563 H   0  0  0  0  0  0  0  0  0  0  0  0
  -10.1939   -0.5903  -11.0551 H   0  0  0  0  0  0  0  0  0  0  0  0
   -7.3176   -0.8774  -12.2963 H   0  0  0  0  0  0  0  0  0  0  0  0
   -7.2463    0.6928  -13.1249 H   0  0  0  0  0  0  0  0  0  0  0  0
   -7.8671    0.5664  -11.4633 H   0  0  0  0  0  0  0  0  0  0  0  0
   -7.0588   -2.6725  -18.5998 H   0  0  0  0  0  0  0  0  0  0  0  0
  1 16  1  0  0  0  0
  1 17  2  0  0  0  0
  1 18  1  0  0  0  0
  2  3  1  0  0  0  0
  2  4  1  0  0  0  0
  3  5  1  0  0  0  0
  4  6  1  0  0  0  0
  5 10  1  0  0  0  0
  6 10  1  0  0  0  0
  7  8  1  0  0  0  0
  7 15  1  0  0  0  0
  8 16  1  0  0  0  0
  9 10  1  0  0  0  0
  9 15  1  0  0  0  0
 10 16  1  0  0  0  0
 11 14  1  0  0  0  0
 12 14  1  0  0  0  0
 13 14  1  0  0  0  0
 14 18  1  0  0  0  0
  2 19  1  0  0  0  0
  2 20  1  0  0  0  0
  3 21  1  0  0  0  0
  3 22  1  0  0  0  0
  4 23  1  0  0  0  0
  4 24  1  0  0  0  0
  5 25  1  0  0  0  0
  5 26  1  0  0  0  0
  6 27  1  0  0  0  0
  6 28  1  0  0  0  0
  7 29  1  0  0  0  0
  7 30  1  0  0  0  0
  8 31  1  0  0  0  0
  8 32  1  0  0  0  0
  9 33  1  0  0  0  0
  9 34  1  0  0  0  0
 11 35  1  0  0  0  0
 11 36  1  0  0  0  0
 11 37  1  0  0  0  0
 12 38  1  0  0  0  0
 12 39  1  0  0  0  0
 12 40  1  0  0  0  0
 13 41  1  0  0  0  0
 13 42  1  0  0  0  0
 13 43  1  0  0  0  0
 15 44  1  0  0  0  0
M  END
> <id>
EN300-3101770

> <smiles>
CC(C)(C)OC(=O)N1CCNCC21CCCCC2

> <MDLNUMBER>
MFCD08685938

> <IUPAC Name>
tert-butyl 1,4-diazaspiro[5.5]undecane-1-carboxylate

> <URL>
https://www.enaminestore.com/catalog/EN300-3101770

> <ROCS_ShapeQuery>
amalgated

> <ROCS_TanimotoCombo>
0.846 

> <ROCS_ShapeTanimoto>
0.567 

> <ROCS_ColorTanimoto>
0.279 

> <ROCS_RefTversky>
0.543 

> <ROCS_RefColorTversky>
0.408 

> <ROCS_RefTverskyCombo>
0.951 

> <ROCS_FitTversky>
1.085 

> <ROCS_FitColorTversky>
0.468 

> <ROCS_FitTverskyCombo>
1.553 

> <ROCS_ColorScore>
-2.834

> <ROCS_Overlap>
893.470

> <ROCS_Rank>
232                 

$$$$
untitled-dbase-14785_3
  -OEChem-10092318153D

 32 34  0     0  0  0  0  0  0999 V2000
   -9.4284   -0.4145  -14.4919 C   0  0  0  0  0  0  0  0  0  0  0  0
   -9.5089   -0.6043  -15.6752 C   0  0  0  0  0  0  0  0  0  0  0  0
  -10.4881    0.1370   -9.6915 C   0  0  0  0  0  0  0  0  0  0  0  0
  -12.4109   -0.3428  -10.9163 C   0  0  0  0  0  0  0  0  0  0  0  0
   -8.1487    0.0892  -12.4417 C   0  0  0  0  0  0  0  0  0  0  0  0
   -9.3344   -0.1896  -13.0823 C   0  0  0  0  0  0  0  0  0  0  0  0
  -10.3642   -0.2028  -12.1006 C   0  0  0  0  0  0  0  0  0  0  0  0
   -9.7606    0.0735  -10.8727 C   0  0  0  0  0  0  0  0  0  0  0  0
  -11.7486   -0.4221  -12.1343 C   0  0  0  0  0  0  0  0  0  0  0  0
   -9.9622   -2.3082  -17.4020 C   0  0  0  0  0  0  0  0  0  0  0  0
   -8.3125   -0.4226  -17.8416 C   0  0  0  0  0  0  0  0  0  0  0  0
   -9.4056   -2.7720  -18.7450 C   0  0  0  0  0  0  0  0  0  0  0  0
   -7.3645   -1.6065  -18.0258 C   0  0  0  0  0  0  0  0  0  0  0  0
   -9.6087   -0.8379  -17.1274 C   0  0  0  0  0  0  0  0  0  0  0  0
  -11.8242   -0.0750   -9.7271 N   0  0  0  0  0  0  0  0  0  0  0  0
   -8.4166    0.2463  -11.1079 N   0  0  0  0  0  0  0  0  0  0  0  0
   -7.9444   -2.7035  -18.8019 N   0  0  0  0  0  0  0  0  0  0  0  0
  -12.7234   -0.8042  -13.7013 Br  0  0  0  0  0  0  0  0  0  0  0  0
  -10.0449    0.3492   -8.7275 H   0  0  0  0  0  0  0  0  0  0  0  0
  -13.4848   -0.4983  -10.8500 H   0  0  0  0  0  0  0  0  0  0  0  0
   -7.1367    0.1909  -12.8098 H   0  0  0  0  0  0  0  0  0  0  0  0
  -11.0509   -2.4096  -17.4152 H   0  0  0  0  0  0  0  0  0  0  0  0
   -9.5849   -2.9513  -16.6045 H   0  0  0  0  0  0  0  0  0  0  0  0
   -7.8049    0.3729  -17.2895 H   0  0  0  0  0  0  0  0  0  0  0  0
   -8.5692   -0.0185  -18.8260 H   0  0  0  0  0  0  0  0  0  0  0  0
   -9.7428   -3.7965  -18.9722 H   0  0  0  0  0  0  0  0  0  0  0  0
   -9.8163   -2.1334  -19.5415 H   0  0  0  0  0  0  0  0  0  0  0  0
   -6.4542   -1.2561  -18.5436 H   0  0  0  0  0  0  0  0  0  0  0  0
   -7.0211   -1.9826  -17.0443 H   0  0  0  0  0  0  0  0  0  0  0  0
  -10.4310   -0.2086  -17.4984 H   0  0  0  0  0  0  0  0  0  0  0  0
   -7.7274    0.4582  -10.3996 H   0  0  0  0  0  0  0  0  0  0  0  0
   -7.5537   -3.5955  -18.4637 H   0  0  0  0  0  0  0  0  0  0  0  0
  1  2  3  0  0  0  0
  1  6  1  0  0  0  0
  2 14  1  0  0  0  0
  3  8  1  0  0  0  0
  3 15  2  0  0  0  0
  4  9  2  0  0  0  0
  4 15  1  0  0  0  0
  5  6  2  0  0  0  0
  5 16  1  0  0  0  0
  6  7  1  0  0  0  0
  7  8  2  0  0  0  0
  7  9  1  0  0  0  0
  8 16  1  0  0  0  0
  9 18  1  0  0  0  0
 10 12  1  0  0  0  0
 10 14  1  0  0  0  0
 11 13  1  0  0  0  0
 11 14  1  0  0  0  0
 12 17  1  0  0  0  0
 13 17  1  0  0  0  0
  3 19  1  0  0  0  0
  4 20  1  0  0  0  0
  5 21  1  0  0  0  0
 10 22  1  0  0  0  0
 10 23  1  0  0  0  0
 11 24  1  0  0  0  0
 11 25  1  0  0  0  0
 12 26  1  0  0  0  0
 12 27  1  0  0  0  0
 13 28  1  0  0  0  0
 13 29  1  0  0  0  0
 14 30  1  0  0  0  0
 16 31  1  0  0  0  0
 17 32  1  0  0  0  0
M  END
> <id>
EN300-1086597

> <smiles>
BrC=1C=NC=C2NC=C(C#CC3CCNCC3)C12

> <IUPAC Name>
4-(2-{4-bromo-1H-pyrrolo[2,3-c]pyridin-3-yl}ethynyl)piperidine

> <CAS>
2137566-66-4

> <URL>
https://www.enaminestore.com/catalog/EN300-1086597

> <ROCS_ShapeQuery>
amalgated

> <ROCS_TanimotoCombo>
0.846 

> <ROCS_ShapeTanimoto>
0.477 

> <ROCS_ColorTanimoto>
0.369 

> <ROCS_RefTversky>
0.489 

> <ROCS_RefColorTversky>
0.574 

> <ROCS_RefTverskyCombo>
1.063 

> <ROCS_FitTversky>
0.952 

> <ROCS_FitColorTversky>
0.508 

> <ROCS_FitTverskyCombo>
1.460 

> <ROCS_ColorScore>
-4.048

> <ROCS_Overlap>
804.486

> <ROCS_Rank>
233                 

$$$$
untitled-dbase-26896_377
  -OEChem-10092318153D

 44 45  0     1  0  0  0  0  0999 V2000
   -9.8107    0.8839  -12.6632 C   0  0  0  0  0  0  0  0  0  0  0  0
   -9.3420   -2.5620  -17.0451 C   0  0  0  0  0  0  0  0  0  0  0  0
   -9.5429   -1.4427  -16.0288 C   0  0  0  0  0  0  0  0  0  0  0  0
   -7.3782   -0.7039  -14.8645 C   0  0  0  0  0  0  0  0  0  0  0  0
   -8.6529    0.9344  -16.2839 C   0  0  0  0  0  0  0  0  0  0  0  0
   -7.5231   -1.0755  -17.3766 C   0  0  0  0  0  0  0  0  0  0  0  0
   -7.6621    0.3220  -13.7629 C   0  0  0  0  0  0  0  0  0  0  0  0
   -9.4408    1.4565  -15.0802 C   0  0  0  0  0  0  0  0  0  0  0  0
   -8.5692   -1.8677  -18.1559 C   0  0  1  0  0  0  0  0  0  0  0  0
   -8.2695   -0.5505  -16.1222 C   0  0  0  0  0  0  0  0  0  0  0  0
  -10.5165   -1.5569  -12.0112 C   0  0  0  0  0  0  0  0  0  0  0  0
   -8.6503   -1.5994  -10.3305 C   0  0  0  0  0  0  0  0  0  0  0  0
  -10.7258   -0.2653   -9.8612 C   0  0  0  0  0  0  0  0  0  0  0  0
   -9.7679   -0.7591  -10.9444 C   0  0  0  0  0  0  0  0  0  0  0  0
   -9.0188    0.8500  -13.8152 N   0  0  0  0  0  0  0  0  0  0  0  0
   -7.9781   -2.8036  -19.0959 N   0  0  0  0  0  0  0  0  0  0  0  0
  -10.9624    1.3125  -12.6229 O   0  0  0  0  0  0  0  0  0  0  0  0
   -9.1601    0.3776  -11.5683 O   0  0  0  0  0  0  0  0  0  0  0  0
   -8.7529   -3.3659  -16.5939 H   0  0  0  0  0  0  0  0  0  0  0  0
  -10.2884   -2.9812  -17.3891 H   0  0  0  0  0  0  0  0  0  0  0  0
  -10.4428   -0.8785  -16.2930 H   0  0  0  0  0  0  0  0  0  0  0  0
   -9.7023   -1.8611  -15.0317 H   0  0  0  0  0  0  0  0  0  0  0  0
   -6.3194   -0.6147  -15.1588 H   0  0  0  0  0  0  0  0  0  0  0  0
   -7.4890   -1.7170  -14.4457 H   0  0  0  0  0  0  0  0  0  0  0  0
   -9.2417    1.0877  -17.1926 H   0  0  0  0  0  0  0  0  0  0  0  0
   -7.7468    1.5408  -16.3891 H   0  0  0  0  0  0  0  0  0  0  0  0
   -6.6936   -1.7344  -17.0781 H   0  0  0  0  0  0  0  0  0  0  0  0
   -7.0872   -0.2704  -17.9825 H   0  0  0  0  0  0  0  0  0  0  0  0
   -7.5301   -0.1327  -12.7664 H   0  0  0  0  0  0  0  0  0  0  0  0
   -6.9146    1.1289  -13.8275 H   0  0  0  0  0  0  0  0  0  0  0  0
   -9.3467    2.5529  -15.0292 H   0  0  0  0  0  0  0  0  0  0  0  0
  -10.5168    1.2463  -15.1947 H   0  0  0  0  0  0  0  0  0  0  0  0
   -9.2282   -1.1854  -18.7006 H   0  0  0  0  0  0  0  0  0  0  0  0
  -11.3196   -0.9571  -12.4543 H   0  0  0  0  0  0  0  0  0  0  0  0
   -9.8468   -1.8871  -12.8120 H   0  0  0  0  0  0  0  0  0  0  0  0
  -10.9956   -2.4405  -11.5743 H   0  0  0  0  0  0  0  0  0  0  0  0
   -8.1105   -1.0310   -9.5646 H   0  0  0  0  0  0  0  0  0  0  0  0
   -7.9090   -1.8767  -11.0887 H   0  0  0  0  0  0  0  0  0  0  0  0
   -9.0381   -2.5156   -9.8735 H   0  0  0  0  0  0  0  0  0  0  0  0
  -10.1891    0.3070   -9.0959 H   0  0  0  0  0  0  0  0  0  0  0  0
  -11.5137    0.3700  -10.2786 H   0  0  0  0  0  0  0  0  0  0  0  0
  -11.1965   -1.1088   -9.3432 H   0  0  0  0  0  0  0  0  0  0  0  0
   -8.7088   -3.3128  -19.5387 H   0  0  0  0  0  0  0  0  0  0  0  0
   -7.4574   -2.2896  -19.7698 H   0  0  0  0  0  0  0  0  0  0  0  0
  1 15  1  0  0  0  0
  1 17  2  0  0  0  0
  1 18  1  0  0  0  0
  2  3  1  0  0  0  0
  2  9  1  0  0  0  0
  3 10  1  0  0  0  0
  4  7  1  0  0  0  0
  4 10  1  0  0  0  0
  5  8  1  0  0  0  0
  5 10  1  0  0  0  0
  6  9  1  0  0  0  0
  6 10  1  0  0  0  0
  7 15  1  0  0  0  0
  8 15  1  0  0  0  0
  9 16  1  0  0  0  0
 11 14  1  0  0  0  0
 12 14  1  0  0  0  0
 13 14  1  0  0  0  0
 14 18  1  0  0  0  0
  2 19  1  0  0  0  0
  2 20  1  0  0  0  0
  3 21  1  0  0  0  0
  3 22  1  0  0  0  0
  4 23  1  0  0  0  0
  4 24  1  0  0  0  0
  5 25  1  0  0  0  0
  5 26  1  0  0  0  0
  6 27  1  0  0  0  0
  6 28  1  0  0  0  0
  7 29  1  0  0  0  0
  7 30  1  0  0  0  0
  8 31  1  0  0  0  0
  8 32  1  0  0  0  0
  9 33  1  0  0  0  0
 11 34  1  0  0  0  0
 11 35  1  0  0  0  0
 11 36  1  0  0  0  0
 12 37  1  0  0  0  0
 12 38  1  0  0  0  0
 12 39  1  0  0  0  0
 13 40  1  0  0  0  0
 13 41  1  0  0  0  0
 13 42  1  0  0  0  0
 16 43  1  0  0  0  0
 16 44  1  0  0  0  0
M  END
> <id>
EN300-1668520

> <smiles>
CC(C)(C)OC(=O)N1CCC2(CCC(N)C2)CC1

> <MDLNUMBER>
MFCD18791679

> <IUPAC Name>
tert-butyl 2-amino-8-azaspiro[4.5]decane-8-carboxylate

> <CAS>
1251010-90-8

> <Purity>
95

> <URL>
https://www.enaminestore.com/catalog/EN300-1668520

> <ROCS_ShapeQuery>
amalgated

> <ROCS_TanimotoCombo>
0.845 

> <ROCS_ShapeTanimoto>
0.557 

> <ROCS_ColorTanimoto>
0.288 

> <ROCS_RefTversky>
0.537 

> <ROCS_RefColorTversky>
0.419 

> <ROCS_RefTverskyCombo>
0.956 

> <ROCS_FitTversky>
1.072 

> <ROCS_FitColorTversky>
0.481 

> <ROCS_FitTverskyCombo>
1.553 

> <ROCS_ColorScore>
-2.910

> <ROCS_Overlap>
883.004

> <ROCS_Rank>
234                 

$$$$
untitled-dbase-34804_377
  -OEChem-10092318153D

 44 45  0     1  0  0  0  0  0999 V2000
   -9.8107    0.8839  -12.6632 C   0  0  0  0  0  0  0  0  0  0  0  0
   -9.3420   -2.5620  -17.0451 C   0  0  0  0  0  0  0  0  0  0  0  0
   -9.5429   -1.4427  -16.0288 C   0  0  0  0  0  0  0  0  0  0  0  0
   -7.3782   -0.7039  -14.8645 C   0  0  0  0  0  0  0  0  0  0  0  0
   -8.6529    0.9344  -16.2839 C   0  0  0  0  0  0  0  0  0  0  0  0
   -7.5231   -1.0755  -17.3766 C   0  0  0  0  0  0  0  0  0  0  0  0
   -7.6621    0.3220  -13.7629 C   0  0  0  0  0  0  0  0  0  0  0  0
   -9.4408    1.4565  -15.0802 C   0  0  0  0  0  0  0  0  0  0  0  0
   -8.5692   -1.8677  -18.1559 C   0  0  1  0  0  0  0  0  0  0  0  0
   -8.2695   -0.5505  -16.1222 C   0  0  0  0  0  0  0  0  0  0  0  0
  -10.5165   -1.5569  -12.0112 C   0  0  0  0  0  0  0  0  0  0  0  0
   -8.6503   -1.5994  -10.3305 C   0  0  0  0  0  0  0  0  0  0  0  0
  -10.7258   -0.2653   -9.8612 C   0  0  0  0  0  0  0  0  0  0  0  0
   -9.7679   -0.7591  -10.9444 C   0  0  0  0  0  0  0  0  0  0  0  0
   -9.0188    0.8500  -13.8152 N   0  0  0  0  0  0  0  0  0  0  0  0
   -7.9781   -2.8036  -19.0959 N   0  0  0  0  0  0  0  0  0  0  0  0
  -10.9624    1.3125  -12.6229 O   0  0  0  0  0  0  0  0  0  0  0  0
   -9.1601    0.3776  -11.5683 O   0  0  0  0  0  0  0  0  0  0  0  0
   -8.7529   -3.3659  -16.5939 H   0  0  0  0  0  0  0  0  0  0  0  0
  -10.2884   -2.9812  -17.3891 H   0  0  0  0  0  0  0  0  0  0  0  0
  -10.4428   -0.8785  -16.2930 H   0  0  0  0  0  0  0  0  0  0  0  0
   -9.7023   -1.8611  -15.0317 H   0  0  0  0  0  0  0  0  0  0  0  0
   -6.3194   -0.6147  -15.1588 H   0  0  0  0  0  0  0  0  0  0  0  0
   -7.4890   -1.7170  -14.4457 H   0  0  0  0  0  0  0  0  0  0  0  0
   -9.2417    1.0877  -17.1926 H   0  0  0  0  0  0  0  0  0  0  0  0
   -7.7468    1.5408  -16.3891 H   0  0  0  0  0  0  0  0  0  0  0  0
   -6.6936   -1.7344  -17.0781 H   0  0  0  0  0  0  0  0  0  0  0  0
   -7.0872   -0.2704  -17.9825 H   0  0  0  0  0  0  0  0  0  0  0  0
   -7.5301   -0.1327  -12.7664 H   0  0  0  0  0  0  0  0  0  0  0  0
   -6.9146    1.1289  -13.8275 H   0  0  0  0  0  0  0  0  0  0  0  0
   -9.3467    2.5529  -15.0292 H   0  0  0  0  0  0  0  0  0  0  0  0
  -10.5168    1.2463  -15.1947 H   0  0  0  0  0  0  0  0  0  0  0  0
   -9.2282   -1.1854  -18.7006 H   0  0  0  0  0  0  0  0  0  0  0  0
  -11.3196   -0.9571  -12.4543 H   0  0  0  0  0  0  0  0  0  0  0  0
   -9.8468   -1.8871  -12.8120 H   0  0  0  0  0  0  0  0  0  0  0  0
  -10.9956   -2.4405  -11.5743 H   0  0  0  0  0  0  0  0  0  0  0  0
   -8.1105   -1.0310   -9.5646 H   0  0  0  0  0  0  0  0  0  0  0  0
   -7.9090   -1.8767  -11.0887 H   0  0  0  0  0  0  0  0  0  0  0  0
   -9.0381   -2.5156   -9.8735 H   0  0  0  0  0  0  0  0  0  0  0  0
  -10.1891    0.3070   -9.0959 H   0  0  0  0  0  0  0  0  0  0  0  0
  -11.5137    0.3700  -10.2786 H   0  0  0  0  0  0  0  0  0  0  0  0
  -11.1965   -1.1088   -9.3432 H   0  0  0  0  0  0  0  0  0  0  0  0
   -8.7088   -3.3128  -19.5387 H   0  0  0  0  0  0  0  0  0  0  0  0
   -7.4574   -2.2896  -19.7698 H   0  0  0  0  0  0  0  0  0  0  0  0
  1 15  1  0  0  0  0
  1 17  2  0  0  0  0
  1 18  1  0  0  0  0
  2  3  1  0  0  0  0
  2  9  1  0  0  0  0
  3 10  1  0  0  0  0
  4  7  1  0  0  0  0
  4 10  1  0  0  0  0
  5  8  1  0  0  0  0
  5 10  1  0  0  0  0
  6  9  1  0  0  0  0
  6 10  1  0  0  0  0
  7 15  1  0  0  0  0
  8 15  1  0  0  0  0
  9 16  1  0  0  0  0
 11 14  1  0  0  0  0
 12 14  1  0  0  0  0
 13 14  1  0  0  0  0
 14 18  1  0  0  0  0
  2 19  1  0  0  0  0
  2 20  1  0  0  0  0
  3 21  1  0  0  0  0
  3 22  1  0  0  0  0
  4 23  1  0  0  0  0
  4 24  1  0  0  0  0
  5 25  1  0  0  0  0
  5 26  1  0  0  0  0
  6 27  1  0  0  0  0
  6 28  1  0  0  0  0
  7 29  1  0  0  0  0
  7 30  1  0  0  0  0
  8 31  1  0  0  0  0
  8 32  1  0  0  0  0
  9 33  1  0  0  0  0
 11 34  1  0  0  0  0
 11 35  1  0  0  0  0
 11 36  1  0  0  0  0
 12 37  1  0  0  0  0
 12 38  1  0  0  0  0
 12 39  1  0  0  0  0
 13 40  1  0  0  0  0
 13 41  1  0  0  0  0
 13 42  1  0  0  0  0
 16 43  1  0  0  0  0
 16 44  1  0  0  0  0
M  END
> <id>
EN300-27082210

> <smiles>
Cl.CC(C)(C)OC(=O)N1CCC2(CCC(N)C2)CC1

> <MDLNUMBER>
MFCD32703054

> <IUPAC Name>
tert-butyl 2-amino-8-azaspiro[4.5]decane-8-carboxylate hydrochloride

> <CAS>
2460756-16-3

> <Purity>
95

> <URL>
https://www.enaminestore.com/catalog/EN300-27082210

> <Saltdate>
Cl

> <ROCS_ShapeQuery>
amalgated

> <ROCS_TanimotoCombo>
0.845 

> <ROCS_ShapeTanimoto>
0.557 

> <ROCS_ColorTanimoto>
0.288 

> <ROCS_RefTversky>
0.537 

> <ROCS_RefColorTversky>
0.419 

> <ROCS_RefTverskyCombo>
0.956 

> <ROCS_FitTversky>
1.072 

> <ROCS_FitColorTversky>
0.481 

> <ROCS_FitTverskyCombo>
1.553 

> <ROCS_ColorScore>
-2.910

> <ROCS_Overlap>
883.004

> <ROCS_Rank>
235                 

$$$$
untitled-dbase-9620_1
  -OEChem-10092318153D

 29 31  0     0  0  0  0  0  0999 V2000
   -8.4308   -1.4328  -18.3145 C   0  0  0  0  0  0  0  0  0  0  0  0
   -8.8973   -2.6373  -17.7580 C   0  0  0  0  0  0  0  0  0  0  0  0
   -8.1992   -0.3208  -17.5064 C   0  0  0  0  0  0  0  0  0  0  0  0
   -9.1398   -2.7482  -16.3832 C   0  0  0  0  0  0  0  0  0  0  0  0
   -8.4490   -0.4670  -16.1567 C   0  0  0  0  0  0  0  0  0  0  0  0
   -8.9108   -1.6461  -15.5802 C   0  0  0  0  0  0  0  0  0  0  0  0
   -8.3088    0.4895  -15.0673 C   0  0  0  0  0  0  0  0  0  0  0  0
   -9.9343    0.4949  -13.1365 C   0  0  0  0  0  0  0  0  0  0  0  0
   -7.5551   -0.2625  -12.7789 C   0  0  0  0  0  0  0  0  0  0  0  0
  -10.2660   -0.0648  -11.7528 C   0  0  0  0  0  0  0  0  0  0  0  0
   -7.9837   -0.7916  -11.4098 C   0  0  0  0  0  0  0  0  0  0  0  0
   -8.7252   -0.2040  -13.7654 C   0  0  0  0  0  0  0  0  0  0  0  0
   -9.0875   -1.5522  -14.2085 N   0  0  0  0  0  0  0  0  0  0  0  0
   -9.1035   -0.0232  -10.8654 N   0  0  0  0  0  0  0  0  0  0  0  0
   -7.9239    1.6354  -15.2041 O   0  0  0  0  0  0  0  0  0  0  0  0
   -8.2502   -1.3710  -19.3843 H   0  0  0  0  0  0  0  0  0  0  0  0
   -9.0715   -3.4933  -18.4050 H   0  0  0  0  0  0  0  0  0  0  0  0
   -7.8399    0.6108  -17.9266 H   0  0  0  0  0  0  0  0  0  0  0  0
   -9.4997   -3.6831  -15.9661 H   0  0  0  0  0  0  0  0  0  0  0  0
  -10.8132    0.3596  -13.7812 H   0  0  0  0  0  0  0  0  0  0  0  0
   -9.7617    1.5747  -13.0515 H   0  0  0  0  0  0  0  0  0  0  0  0
   -7.1008    0.7277  -12.6513 H   0  0  0  0  0  0  0  0  0  0  0  0
   -6.7741   -0.9259  -13.1740 H   0  0  0  0  0  0  0  0  0  0  0  0
  -11.1033    0.4795  -11.3052 H   0  0  0  0  0  0  0  0  0  0  0  0
  -10.5866   -1.1053  -11.8602 H   0  0  0  0  0  0  0  0  0  0  0  0
   -8.2949   -1.8351  -11.5161 H   0  0  0  0  0  0  0  0  0  0  0  0
   -7.1426   -0.7821  -10.7099 H   0  0  0  0  0  0  0  0  0  0  0  0
   -9.4126   -2.2943  -13.6127 H   0  0  0  0  0  0  0  0  0  0  0  0
   -8.8129    0.9491  -10.7388 H   0  0  0  0  0  0  0  0  0  0  0  0
  1  2  2  0  0  0  0
  1  3  1  0  0  0  0
  2  4  1  0  0  0  0
  3  5  2  0  0  0  0
  4  6  2  0  0  0  0
  5  6  1  0  0  0  0
  5  7  1  0  0  0  0
  6 13  1  0  0  0  0
  7 12  1  0  0  0  0
  7 15  2  0  0  0  0
  8 10  1  0  0  0  0
  8 12  1  0  0  0  0
  9 11  1  0  0  0  0
  9 12  1  0  0  0  0
 10 14  1  0  0  0  0
 11 14  1  0  0  0  0
 12 13  1  0  0  0  0
  1 16  1  0  0  0  0
  2 17  1  0  0  0  0
  3 18  1  0  0  0  0
  4 19  1  0  0  0  0
  8 20  1  0  0  0  0
  8 21  1  0  0  0  0
  9 22  1  0  0  0  0
  9 23  1  0  0  0  0
 10 24  1  0  0  0  0
 10 25  1  0  0  0  0
 11 26  1  0  0  0  0
 11 27  1  0  0  0  0
 13 28  1  0  0  0  0
 14 29  1  0  0  0  0
M  END
> <id>
EN300-328408

> <smiles>
O=C1C=2C=CC=CC2NC31CCNCC3

> <MDLNUMBER>
MFCD24613887

> <IUPAC Name>
1,3-dihydrospiro[indole-2,4'-piperidine]-3-one

> <CAS>
1050596-44-5

> <URL>
https://www.enaminestore.com/catalog/EN300-328408

> <ROCS_ShapeQuery>
amalgated

> <ROCS_TanimotoCombo>
0.845 

> <ROCS_ShapeTanimoto>
0.546 

> <ROCS_ColorTanimoto>
0.299 

> <ROCS_RefTversky>
0.512 

> <ROCS_RefColorTversky>
0.461 

> <ROCS_RefTverskyCombo>
0.974 

> <ROCS_FitTversky>
1.137 

> <ROCS_FitColorTversky>
0.460 

> <ROCS_FitTverskyCombo>
1.597 

> <ROCS_ColorScore>
-3.231

> <ROCS_Overlap>
839.832

> <ROCS_Rank>
236                 

$$$$
untitled-dbase-16673_5
  -OEChem-10092318153D

 42 45  0     1  0  0  0  0  0999 V2000
   -9.7171   -1.6803  -11.3762 C   0  0  0  0  0  0  0  0  0  0  0  0
  -10.7390   -0.5689  -11.6217 C   0  0  0  0  0  0  0  0  0  0  0  0
   -7.2794   -1.4126  -17.2332 C   0  0  0  0  0  0  0  0  0  0  0  0
   -9.6706   -0.7482  -17.5806 C   0  0  0  0  0  0  0  0  0  0  0  0
   -7.6508   -0.7592  -12.6158 C   0  0  0  0  0  0  0  0  0  0  0  0
   -9.3479    1.0841  -13.0358 C   0  0  0  0  0  0  0  0  0  0  0  0
   -8.2490    0.5970  -16.0064 C   0  0  0  0  0  0  0  0  0  0  0  0
   -7.5970   -2.6878  -18.0060 C   0  0  0  0  0  0  0  0  0  0  0  0
   -9.8415   -2.0387  -18.3788 C   0  0  0  0  0  0  0  0  0  0  0  0
   -8.9336   -1.7467  -15.3458 C   0  0  0  0  0  0  0  0  0  0  0  0
   -8.3787   -0.9523  -11.2701 C   0  0  1  0  0  0  0  0  0  0  0  0
   -9.9104    0.7138  -11.6480 C   0  0  2  0  0  0  0  0  0  0  0  0
   -8.5330   -0.8312  -16.5339 C   0  0  0  0  0  0  0  0  0  0  0  0
   -8.5048   -0.0431  -13.6954 C   0  0  0  0  0  0  0  0  0  0  0  0
   -7.5882    0.5231  -14.7077 N   0  0  0  0  0  0  0  0  0  0  0  0
   -8.7712    0.3785  -10.7782 N   0  0  0  0  0  0  0  0  0  0  0  0
   -8.6114   -2.4398  -18.9770 O   0  0  0  0  0  0  0  0  0  0  0  0
   -9.4523   -0.9777  -14.2609 O   0  0  0  0  0  0  0  0  0  0  0  0
   -9.9529   -2.1800  -10.4283 H   0  0  0  0  0  0  0  0  0  0  0  0
   -9.7305   -2.4455  -12.1579 H   0  0  0  0  0  0  0  0  0  0  0  0
  -11.3177   -0.7247  -12.5369 H   0  0  0  0  0  0  0  0  0  0  0  0
  -11.4503   -0.5455  -10.7867 H   0  0  0  0  0  0  0  0  0  0  0  0
   -6.4727   -1.6178  -16.5237 H   0  0  0  0  0  0  0  0  0  0  0  0
   -6.9031   -0.6712  -17.9483 H   0  0  0  0  0  0  0  0  0  0  0  0
   -9.4349    0.0597  -18.2893 H   0  0  0  0  0  0  0  0  0  0  0  0
  -10.6221   -0.4794  -17.1018 H   0  0  0  0  0  0  0  0  0  0  0  0
   -6.7382   -0.1797  -12.4147 H   0  0  0  0  0  0  0  0  0  0  0  0
   -7.3300   -1.7426  -12.9842 H   0  0  0  0  0  0  0  0  0  0  0  0
  -10.1839    1.3849  -13.6759 H   0  0  0  0  0  0  0  0  0  0  0  0
   -8.7193    1.9779  -12.9103 H   0  0  0  0  0  0  0  0  0  0  0  0
   -7.6042    1.1376  -16.6987 H   0  0  0  0  0  0  0  0  0  0  0  0
   -9.1736    1.1679  -15.9242 H   0  0  0  0  0  0  0  0  0  0  0  0
   -6.7053   -3.0246  -18.5400 H   0  0  0  0  0  0  0  0  0  0  0  0
   -7.9102   -3.5013  -17.3471 H   0  0  0  0  0  0  0  0  0  0  0  0
  -10.2333   -2.8546  -17.7584 H   0  0  0  0  0  0  0  0  0  0  0  0
  -10.5642   -1.8759  -19.1873 H   0  0  0  0  0  0  0  0  0  0  0  0
   -9.6701   -2.4929  -15.6535 H   0  0  0  0  0  0  0  0  0  0  0  0
   -8.0768   -2.3022  -14.9613 H   0  0  0  0  0  0  0  0  0  0  0  0
   -7.7083   -1.4516  -10.5622 H   0  0  0  0  0  0  0  0  0  0  0  0
  -10.4739    1.5622  -11.2450 H   0  0  0  0  0  0  0  0  0  0  0  0
   -6.7674   -0.0616  -14.7797 H   0  0  0  0  0  0  0  0  0  0  0  0
   -9.1070    0.2876   -9.8182 H   0  0  0  0  0  0  0  0  0  0  0  0
  1  2  1  0  0  0  0
  1 11  1  0  0  0  0
  2 12  1  0  0  0  0
  3  8  1  0  0  0  0
  3 13  1  0  0  0  0
  4  9  1  0  0  0  0
  4 13  1  0  0  0  0
  5 11  1  0  0  0  0
  5 14  1  0  0  0  0
  6 12  1  0  0  0  0
  6 14  1  0  0  0  0
  7 13  1  0  0  0  0
  7 15  1  0  0  0  0
  8 17  1  0  0  0  0
  9 17  1  0  0  0  0
 10 13  1  0  0  0  0
 10 18  1  0  0  0  0
 11 16  1  0  0  0  0
 12 16  1  0  0  0  0
 14 15  1  0  0  0  0
 14 18  1  0  0  0  0
  1 19  1  0  0  0  0
  1 20  1  0  0  0  0
  2 21  1  0  0  0  0
  2 22  1  0  0  0  0
  3 23  1  0  0  0  0
  3 24  1  0  0  0  0
  4 25  1  0  0  0  0
  4 26  1  0  0  0  0
  5 27  1  0  0  0  0
  5 28  1  0  0  0  0
  6 29  1  0  0  0  0
  6 30  1  0  0  0  0
  7 31  1  0  0  0  0
  7 32  1  0  0  0  0
  8 33  1  0  0  0  0
  8 34  1  0  0  0  0
  9 35  1  0  0  0  0
  9 36  1  0  0  0  0
 10 37  1  0  0  0  0
 10 38  1  0  0  0  0
 11 39  1  0  0  0  0
 12 40  1  0  0  0  0
 15 41  1  0  0  0  0
 16 42  1  0  0  0  0
M  END
> <id>
EN300-1278993

> <smiles>
C1CC2CC3(CC1N2)NCC4(CCOCC4)CO3

> <IUPAC Name>
dispiro[8-azabicyclo[3.2.1]octane-3,2'-[1,3]oxazinane-5',4''-oxane]

> <URL>
https://www.enaminestore.com/catalog/EN300-1278993

> <ROCS_ShapeQuery>
amalgated

> <ROCS_TanimotoCombo>
0.845 

> <ROCS_ShapeTanimoto>
0.606 

> <ROCS_ColorTanimoto>
0.239 

> <ROCS_RefTversky>
0.574 

> <ROCS_RefColorTversky>
0.546 

> <ROCS_RefTverskyCombo>
1.120 

> <ROCS_FitTversky>
1.100 

> <ROCS_FitColorTversky>
0.298 

> <ROCS_FitTverskyCombo>
1.399 

> <ROCS_ColorScore>
-4.009

> <ROCS_Overlap>
945.011

> <ROCS_Rank>
237                 

$$$$
untitled-dbase-6564_5
  -OEChem-10092318153D

 34 35  0     0  0  0  0  0  0999 V2000
   -7.9409    0.6871  -17.0760 C   0  0  0  0  0  0  0  0  0  0  0  0
   -8.1399    0.6981  -15.7128 C   0  0  0  0  0  0  0  0  0  0  0  0
   -8.2044   -0.6223  -17.5231 C   0  0  0  0  0  0  0  0  0  0  0  0
   -8.5712   -1.3674  -16.4180 C   0  0  0  0  0  0  0  0  0  0  0  0
   -8.7761   -0.9626  -13.9690 C   0  0  0  0  0  0  0  0  0  0  0  0
   -8.1554   -1.1889  -18.8988 C   0  0  0  0  0  0  0  0  0  0  0  0
   -8.9185   -2.8181  -16.4872 C   0  0  0  0  0  0  0  0  0  0  0  0
   -9.0952   -3.2400  -17.9605 C   0  0  0  0  0  0  0  0  0  0  0  0
   -8.2745   -0.6595  -11.1935 C   0  0  0  0  0  0  0  0  0  0  0  0
  -10.0653    1.1008  -11.2531 C   0  0  0  0  0  0  0  0  0  0  0  0
  -10.6286   -1.2765  -11.8356 C   0  0  0  0  0  0  0  0  0  0  0  0
   -9.5538   -0.1916  -11.8858 C   0  0  0  0  0  0  0  0  0  0  0  0
   -8.5149   -0.5691  -15.2888 N   0  0  0  0  0  0  0  0  0  0  0  0
   -8.0584   -2.6590  -18.8302 N   0  0  0  0  0  0  0  0  0  0  0  0
   -8.5725   -2.1056  -13.5937 O   0  0  0  0  0  0  0  0  0  0  0  0
   -9.2534    0.0889  -13.2562 O   0  0  0  0  0  0  0  0  0  0  0  0
   -7.6389    1.5362  -17.6729 H   0  0  0  0  0  0  0  0  0  0  0  0
   -8.0490    1.5174  -15.0120 H   0  0  0  0  0  0  0  0  0  0  0  0
   -9.0563   -0.9169  -19.4589 H   0  0  0  0  0  0  0  0  0  0  0  0
   -7.2938   -0.7847  -19.4423 H   0  0  0  0  0  0  0  0  0  0  0  0
   -8.1361   -3.4352  -16.0338 H   0  0  0  0  0  0  0  0  0  0  0  0
   -9.8542   -2.9886  -15.9416 H   0  0  0  0  0  0  0  0  0  0  0  0
   -9.0712   -4.3339  -18.0478 H   0  0  0  0  0  0  0  0  0  0  0  0
  -10.0827   -2.9216  -18.3124 H   0  0  0  0  0  0  0  0  0  0  0  0
   -7.9042   -1.5870  -11.6448 H   0  0  0  0  0  0  0  0  0  0  0  0
   -7.4842    0.0959  -11.2530 H   0  0  0  0  0  0  0  0  0  0  0  0
   -8.4610   -0.8829  -10.1369 H   0  0  0  0  0  0  0  0  0  0  0  0
  -10.9831    1.4402  -11.7467 H   0  0  0  0  0  0  0  0  0  0  0  0
   -9.3344    1.9090  -11.3710 H   0  0  0  0  0  0  0  0  0  0  0  0
  -10.2724    0.9737  -10.1857 H   0  0  0  0  0  0  0  0  0  0  0  0
  -11.5463   -0.9411  -12.3321 H   0  0  0  0  0  0  0  0  0  0  0  0
  -10.2924   -2.1999  -12.3181 H   0  0  0  0  0  0  0  0  0  0  0  0
  -10.9034   -1.5050  -10.7995 H   0  0  0  0  0  0  0  0  0  0  0  0
   -8.1577   -3.0456  -19.7693 H   0  0  0  0  0  0  0  0  0  0  0  0
  1  2  2  0  0  0  0
  1  3  1  0  0  0  0
  2 13  1  0  0  0  0
  3  4  2  0  0  0  0
  3  6  1  0  0  0  0
  4  7  1  0  0  0  0
  4 13  1  0  0  0  0
  5 13  1  0  0  0  0
  5 15  2  0  0  0  0
  5 16  1  0  0  0  0
  6 14  1  0  0  0  0
  7  8  1  0  0  0  0
  8 14  1  0  0  0  0
  9 12  1  0  0  0  0
 10 12  1  0  0  0  0
 11 12  1  0  0  0  0
 12 16  1  0  0  0  0
  1 17  1  0  0  0  0
  2 18  1  0  0  0  0
  6 19  1  0  0  0  0
  6 20  1  0  0  0  0
  7 21  1  0  0  0  0
  7 22  1  0  0  0  0
  8 23  1  0  0  0  0
  8 24  1  0  0  0  0
  9 25  1  0  0  0  0
  9 26  1  0  0  0  0
  9 27  1  0  0  0  0
 10 28  1  0  0  0  0
 10 29  1  0  0  0  0
 10 30  1  0  0  0  0
 11 31  1  0  0  0  0
 11 32  1  0  0  0  0
 11 33  1  0  0  0  0
 14 34  1  0  0  0  0
M  END
> <id>
EN300-224817

> <smiles>
CC(C)(C)OC(=O)N1C=CC=2CNCCC21

> <MDLNUMBER>
MFCD29033993

> <IUPAC Name>
tert-butyl 1H,4H,5H,6H,7H-pyrrolo[3,2-c]pyridine-1-carboxylate

> <CAS>
1820684-09-0

> <Purity>
95

> <URL>
https://www.enaminestore.com/catalog/EN300-224817

> <ROCS_ShapeQuery>
amalgated

> <ROCS_TanimotoCombo>
0.845 

> <ROCS_ShapeTanimoto>
0.588 

> <ROCS_ColorTanimoto>
0.257 

> <ROCS_RefTversky>
0.544 

> <ROCS_RefColorTversky>
0.382 

> <ROCS_RefTverskyCombo>
0.926 

> <ROCS_FitTversky>
1.162 

> <ROCS_FitColorTversky>
0.438 

> <ROCS_FitTverskyCombo>
1.600 

> <ROCS_ColorScore>
-2.658

> <ROCS_Overlap>
892.500

> <ROCS_Rank>
238                 

$$$$
untitled-dbase-51201_117
  -OEChem-10092318153D

 44 45  0     0  0  0  0  0  0999 V2000
   -8.7192   -0.5875  -14.0134 C   0  0  0  0  0  0  0  0  0  0  0  0
   -6.9194    1.2513  -16.9315 C   0  0  0  0  0  0  0  0  0  0  0  0
   -7.6967    1.9724  -15.8262 C   0  0  0  0  0  0  0  0  0  0  0  0
   -6.9049   -0.2751  -16.7523 C   0  0  0  0  0  0  0  0  0  0  0  0
   -9.2238   -0.6442  -17.7928 C   0  0  0  0  0  0  0  0  0  0  0  0
   -8.2686   -2.4088  -16.3213 C   0  0  0  0  0  0  0  0  0  0  0  0
   -9.0573    1.3313  -15.5468 C   0  0  0  0  0  0  0  0  0  0  0  0
   -8.6914   -1.3622  -19.0449 C   0  0  0  0  0  0  0  0  0  0  0  0
   -8.5527   -3.2574  -17.5706 C   0  0  0  0  0  0  0  0  0  0  0  0
   -8.3301   -0.8608  -16.5351 C   0  0  0  0  0  0  0  0  0  0  0  0
   -7.8064   -0.1983  -11.3228 C   0  0  0  0  0  0  0  0  0  0  0  0
  -10.0766    0.7861  -10.8912 C   0  0  0  0  0  0  0  0  0  0  0  0
   -9.8678   -1.6177  -11.5888 C   0  0  0  0  0  0  0  0  0  0  0  0
   -9.2801   -0.2140  -11.7264 C   0  0  0  0  0  0  0  0  0  0  0  0
   -8.0482   -2.6514  -18.7919 N   0  0  0  0  0  0  0  0  0  0  0  0
   -8.8724   -0.1148  -15.3391 N   0  0  0  0  0  0  0  0  0  0  0  0
   -8.0738   -1.5776  -13.6783 O   0  0  0  0  0  0  0  0  0  0  0  0
   -9.3816    0.1907  -13.0969 O   0  0  0  0  0  0  0  0  0  0  0  0
   -7.3457    1.5133  -17.9052 H   0  0  0  0  0  0  0  0  0  0  0  0
   -5.8850    1.6111  -16.9477 H   0  0  0  0  0  0  0  0  0  0  0  0
   -7.0991    1.9878  -14.9080 H   0  0  0  0  0  0  0  0  0  0  0  0
   -7.8459    3.0206  -16.1126 H   0  0  0  0  0  0  0  0  0  0  0  0
   -6.4018   -0.7100  -17.6131 H   0  0  0  0  0  0  0  0  0  0  0  0
   -6.2786   -0.5087  -15.8881 H   0  0  0  0  0  0  0  0  0  0  0  0
   -9.3337    0.4233  -18.0123 H   0  0  0  0  0  0  0  0  0  0  0  0
  -10.2371   -1.0199  -17.6149 H   0  0  0  0  0  0  0  0  0  0  0  0
   -8.9923   -2.7261  -15.5495 H   0  0  0  0  0  0  0  0  0  0  0  0
   -7.2792   -2.6917  -15.9122 H   0  0  0  0  0  0  0  0  0  0  0  0
   -9.5072    1.7419  -14.6469 H   0  0  0  0  0  0  0  0  0  0  0  0
   -9.7171    1.5427  -16.3800 H   0  0  0  0  0  0  0  0  0  0  0  0
   -9.5377   -1.5282  -19.7432 H   0  0  0  0  0  0  0  0  0  0  0  0
   -8.0005   -0.7032  -19.6115 H   0  0  0  0  0  0  0  0  0  0  0  0
   -8.1471   -4.2756  -17.4540 H   0  0  0  0  0  0  0  0  0  0  0  0
   -9.6425   -3.3913  -17.6665 H   0  0  0  0  0  0  0  0  0  0  0  0
   -7.2312   -0.9148  -11.9200 H   0  0  0  0  0  0  0  0  0  0  0  0
   -7.3638    0.7950  -11.4501 H   0  0  0  0  0  0  0  0  0  0  0  0
   -7.6844   -0.5000  -10.2762 H   0  0  0  0  0  0  0  0  0  0  0  0
  -11.1346    0.7782  -11.1775 H   0  0  0  0  0  0  0  0  0  0  0  0
   -9.7188    1.8082  -11.0600 H   0  0  0  0  0  0  0  0  0  0  0  0
  -10.0054    0.5661   -9.8211 H   0  0  0  0  0  0  0  0  0  0  0  0
  -10.9248   -1.6291  -11.8783 H   0  0  0  0  0  0  0  0  0  0  0  0
   -9.3315   -2.3422  -12.2101 H   0  0  0  0  0  0  0  0  0  0  0  0
   -9.8288   -1.9560  -10.5470 H   0  0  0  0  0  0  0  0  0  0  0  0
   -8.2388   -3.2722  -19.5762 H   0  0  0  0  0  0  0  0  0  0  0  0
  1 16  1  0  0  0  0
  1 17  2  0  0  0  0
  1 18  1  0  0  0  0
  2  3  1  0  0  0  0
  2  4  1  0  0  0  0
  3  7  1  0  0  0  0
  4 10  1  0  0  0  0
  5  8  1  0  0  0  0
  5 10  1  0  0  0  0
  6  9  1  0  0  0  0
  6 10  1  0  0  0  0
  7 16  1  0  0  0  0
  8 15  1  0  0  0  0
  9 15  1  0  0  0  0
 10 16  1  0  0  0  0
 11 14  1  0  0  0  0
 12 14  1  0  0  0  0
 13 14  1  0  0  0  0
 14 18  1  0  0  0  0
  2 19  1  0  0  0  0
  2 20  1  0  0  0  0
  3 21  1  0  0  0  0
  3 22  1  0  0  0  0
  4 23  1  0  0  0  0
  4 24  1  0  0  0  0
  5 25  1  0  0  0  0
  5 26  1  0  0  0  0
  6 27  1  0  0  0  0
  6 28  1  0  0  0  0
  7 29  1  0  0  0  0
  7 30  1  0  0  0  0
  8 31  1  0  0  0  0
  8 32  1  0  0  0  0
  9 33  1  0  0  0  0
  9 34  1  0  0  0  0
 11 35  1  0  0  0  0
 11 36  1  0  0  0  0
 11 37  1  0  0  0  0
 12 38  1  0  0  0  0
 12 39  1  0  0  0  0
 12 40  1  0  0  0  0
 13 41  1  0  0  0  0
 13 42  1  0  0  0  0
 13 43  1  0  0  0  0
 15 44  1  0  0  0  0
M  END
> <id>
EN300-3145066

> <smiles>
CC(C)(C)OC(=O)N1CCCCC21CCNCC2

> <MDLNUMBER>
MFCD12406520

> <IUPAC Name>
tert-butyl 1,9-diazaspiro[5.5]undecane-1-carboxylate

> <CAS>
1158750-00-5

> <URL>
https://www.enaminestore.com/catalog/EN300-3145066

> <ROCS_ShapeQuery>
amalgated

> <ROCS_TanimotoCombo>
0.844 

> <ROCS_ShapeTanimoto>
0.592 

> <ROCS_ColorTanimoto>
0.252 

> <ROCS_RefTversky>
0.558 

> <ROCS_RefColorTversky>
0.377 

> <ROCS_RefTverskyCombo>
0.935 

> <ROCS_FitTversky>
1.114 

> <ROCS_FitColorTversky>
0.433 

> <ROCS_FitTverskyCombo>
1.547 

> <ROCS_ColorScore>
-2.620

> <ROCS_Overlap>
917.942

> <ROCS_Rank>
239                 

$$$$
untitled-dbase-49949_117
  -OEChem-10092318153D

 44 45  0     0  0  0  0  0  0999 V2000
   -8.7192   -0.5875  -14.0134 C   0  0  0  0  0  0  0  0  0  0  0  0
   -6.9194    1.2513  -16.9315 C   0  0  0  0  0  0  0  0  0  0  0  0
   -7.6967    1.9724  -15.8262 C   0  0  0  0  0  0  0  0  0  0  0  0
   -6.9049   -0.2751  -16.7523 C   0  0  0  0  0  0  0  0  0  0  0  0
   -9.2238   -0.6442  -17.7928 C   0  0  0  0  0  0  0  0  0  0  0  0
   -8.2686   -2.4088  -16.3213 C   0  0  0  0  0  0  0  0  0  0  0  0
   -9.0573    1.3313  -15.5468 C   0  0  0  0  0  0  0  0  0  0  0  0
   -8.6914   -1.3622  -19.0449 C   0  0  0  0  0  0  0  0  0  0  0  0
   -8.5527   -3.2574  -17.5706 C   0  0  0  0  0  0  0  0  0  0  0  0
   -8.3301   -0.8608  -16.5351 C   0  0  0  0  0  0  0  0  0  0  0  0
   -7.8064   -0.1983  -11.3228 C   0  0  0  0  0  0  0  0  0  0  0  0
  -10.0766    0.7861  -10.8912 C   0  0  0  0  0  0  0  0  0  0  0  0
   -9.8678   -1.6177  -11.5888 C   0  0  0  0  0  0  0  0  0  0  0  0
   -9.2801   -0.2140  -11.7264 C   0  0  0  0  0  0  0  0  0  0  0  0
   -8.0482   -2.6514  -18.7919 N   0  0  0  0  0  0  0  0  0  0  0  0
   -8.8724   -0.1148  -15.3391 N   0  0  0  0  0  0  0  0  0  0  0  0
   -8.0738   -1.5776  -13.6783 O   0  0  0  0  0  0  0  0  0  0  0  0
   -9.3816    0.1907  -13.0969 O   0  0  0  0  0  0  0  0  0  0  0  0
   -7.3457    1.5133  -17.9052 H   0  0  0  0  0  0  0  0  0  0  0  0
   -5.8850    1.6111  -16.9477 H   0  0  0  0  0  0  0  0  0  0  0  0
   -7.0991    1.9878  -14.9080 H   0  0  0  0  0  0  0  0  0  0  0  0
   -7.8459    3.0206  -16.1126 H   0  0  0  0  0  0  0  0  0  0  0  0
   -6.4018   -0.7100  -17.6131 H   0  0  0  0  0  0  0  0  0  0  0  0
   -6.2786   -0.5087  -15.8881 H   0  0  0  0  0  0  0  0  0  0  0  0
   -9.3337    0.4233  -18.0123 H   0  0  0  0  0  0  0  0  0  0  0  0
  -10.2371   -1.0199  -17.6149 H   0  0  0  0  0  0  0  0  0  0  0  0
   -8.9923   -2.7261  -15.5495 H   0  0  0  0  0  0  0  0  0  0  0  0
   -7.2792   -2.6917  -15.9122 H   0  0  0  0  0  0  0  0  0  0  0  0
   -9.5072    1.7419  -14.6469 H   0  0  0  0  0  0  0  0  0  0  0  0
   -9.7171    1.5427  -16.3800 H   0  0  0  0  0  0  0  0  0  0  0  0
   -9.5377   -1.5282  -19.7432 H   0  0  0  0  0  0  0  0  0  0  0  0
   -8.0005   -0.7032  -19.6115 H   0  0  0  0  0  0  0  0  0  0  0  0
   -8.1471   -4.2756  -17.4540 H   0  0  0  0  0  0  0  0  0  0  0  0
   -9.6425   -3.3913  -17.6665 H   0  0  0  0  0  0  0  0  0  0  0  0
   -7.2312   -0.9148  -11.9200 H   0  0  0  0  0  0  0  0  0  0  0  0
   -7.3638    0.7950  -11.4501 H   0  0  0  0  0  0  0  0  0  0  0  0
   -7.6844   -0.5000  -10.2762 H   0  0  0  0  0  0  0  0  0  0  0  0
  -11.1346    0.7782  -11.1775 H   0  0  0  0  0  0  0  0  0  0  0  0
   -9.7188    1.8082  -11.0600 H   0  0  0  0  0  0  0  0  0  0  0  0
  -10.0054    0.5661   -9.8211 H   0  0  0  0  0  0  0  0  0  0  0  0
  -10.9248   -1.6291  -11.8783 H   0  0  0  0  0  0  0  0  0  0  0  0
   -9.3315   -2.3422  -12.2101 H   0  0  0  0  0  0  0  0  0  0  0  0
   -9.8288   -1.9560  -10.5470 H   0  0  0  0  0  0  0  0  0  0  0  0
   -8.2388   -3.2722  -19.5762 H   0  0  0  0  0  0  0  0  0  0  0  0
  1 16  1  0  0  0  0
  1 17  2  0  0  0  0
  1 18  1  0  0  0  0
  2  3  1  0  0  0  0
  2  4  1  0  0  0  0
  3  7  1  0  0  0  0
  4 10  1  0  0  0  0
  5  8  1  0  0  0  0
  5 10  1  0  0  0  0
  6  9  1  0  0  0  0
  6 10  1  0  0  0  0
  7 16  1  0  0  0  0
  8 15  1  0  0  0  0
  9 15  1  0  0  0  0
 10 16  1  0  0  0  0
 11 14  1  0  0  0  0
 12 14  1  0  0  0  0
 13 14  1  0  0  0  0
 14 18  1  0  0  0  0
  2 19  1  0  0  0  0
  2 20  1  0  0  0  0
  3 21  1  0  0  0  0
  3 22  1  0  0  0  0
  4 23  1  0  0  0  0
  4 24  1  0  0  0  0
  5 25  1  0  0  0  0
  5 26  1  0  0  0  0
  6 27  1  0  0  0  0
  6 28  1  0  0  0  0
  7 29  1  0  0  0  0
  7 30  1  0  0  0  0
  8 31  1  0  0  0  0
  8 32  1  0  0  0  0
  9 33  1  0  0  0  0
  9 34  1  0  0  0  0
 11 35  1  0  0  0  0
 11 36  1  0  0  0  0
 11 37  1  0  0  0  0
 12 38  1  0  0  0  0
 12 39  1  0  0  0  0
 12 40  1  0  0  0  0
 13 41  1  0  0  0  0
 13 42  1  0  0  0  0
 13 43  1  0  0  0  0
 15 44  1  0  0  0  0
M  END
> <id>
EN300-25776186

> <smiles>
Cl.CC(C)(C)OC(=O)N1CCCCC21CCNCC2

> <MDLNUMBER>
MFCD16622777

> <IUPAC Name>
tert-butyl 1,9-diazaspiro[5.5]undecane-1-carboxylate hydrochloride

> <CAS>
1228182-67-9

> <Purity>
95

> <URL>
https://www.enaminestore.com/catalog/EN300-25776186

> <Saltdate>
Cl

> <ROCS_ShapeQuery>
amalgated

> <ROCS_TanimotoCombo>
0.844 

> <ROCS_ShapeTanimoto>
0.592 

> <ROCS_ColorTanimoto>
0.252 

> <ROCS_RefTversky>
0.558 

> <ROCS_RefColorTversky>
0.377 

> <ROCS_RefTverskyCombo>
0.935 

> <ROCS_FitTversky>
1.114 

> <ROCS_FitColorTversky>
0.433 

> <ROCS_FitTverskyCombo>
1.547 

> <ROCS_ColorScore>
-2.620

> <ROCS_Overlap>
917.942

> <ROCS_Rank>
240                 

$$$$
untitled-dbase-31263_283
  -OEChem-10092318153D

 47 48  0     1  0  0  0  0  0999 V2000
   -9.2447    0.4283  -12.4813 C   0  0  0  0  0  0  0  0  0  0  0  0
   -9.6288   -2.3057  -16.9649 C   0  0  0  0  0  0  0  0  0  0  0  0
  -10.0284   -0.0749  -15.9221 C   0  0  0  0  0  0  0  0  0  0  0  0
   -7.9648   -1.4422  -15.2645 C   0  0  0  0  0  0  0  0  0  0  0  0
   -8.7013   -3.2864  -17.6755 C   0  0  0  0  0  0  0  0  0  0  0  0
   -9.6211    0.9561  -14.8741 C   0  0  0  0  0  0  0  0  0  0  0  0
   -7.6268   -0.3407  -14.2618 C   0  0  0  0  0  0  0  0  0  0  0  0
   -7.2819   -1.4820  -18.4094 C   0  0  0  0  0  0  0  0  0  0  0  0
   -8.1411   -0.4231  -17.6788 C   0  0  1  0  0  0  0  0  0  0  0  0
   -8.9017   -1.0244  -16.4377 C   0  0  0  0  0  0  0  0  0  0  0  0
   -7.2579    0.7974  -17.4171 C   0  0  0  0  0  0  0  0  0  0  0  0
  -11.0929   -1.3411  -11.1986 C   0  0  0  0  0  0  0  0  0  0  0  0
   -9.0961   -2.2320   -9.9623 C   0  0  0  0  0  0  0  0  0  0  0  0
   -9.7765    0.1686   -9.6747 C   0  0  0  0  0  0  0  0  0  0  0  0
   -9.7079   -1.0103  -10.6444 C   0  0  0  0  0  0  0  0  0  0  0  0
   -8.0569   -2.6498  -18.8165 N   0  0  0  0  0  0  0  0  0  0  0  0
   -8.8362    0.3413  -13.8150 N   0  0  0  0  0  0  0  0  0  0  0  0
   -9.8871    1.3666  -12.0131 O   0  0  0  0  0  0  0  0  0  0  0  0
   -8.8533   -0.6529  -11.7369 O   0  0  0  0  0  0  0  0  0  0  0  0
  -10.4182   -2.0020  -17.6679 H   0  0  0  0  0  0  0  0  0  0  0  0
  -10.1421   -2.8375  -16.1570 H   0  0  0  0  0  0  0  0  0  0  0  0
  -10.8703   -0.6795  -15.5219 H   0  0  0  0  0  0  0  0  0  0  0  0
  -10.4687    0.4814  -16.7748 H   0  0  0  0  0  0  0  0  0  0  0  0
   -7.0051   -1.8093  -15.6731 H   0  0  0  0  0  0  0  0  0  0  0  0
   -8.3849   -2.3026  -14.7140 H   0  0  0  0  0  0  0  0  0  0  0  0
   -7.9542   -3.6929  -16.9877 H   0  0  0  0  0  0  0  0  0  0  0  0
   -9.2920   -4.1332  -18.0370 H   0  0  0  0  0  0  0  0  0  0  0  0
   -9.0555    1.7590  -15.3556 H   0  0  0  0  0  0  0  0  0  0  0  0
  -10.4976    1.4182  -14.4107 H   0  0  0  0  0  0  0  0  0  0  0  0
   -7.1319   -0.7477  -13.3766 H   0  0  0  0  0  0  0  0  0  0  0  0
   -6.9265    0.3571  -14.7249 H   0  0  0  0  0  0  0  0  0  0  0  0
   -6.8527   -1.0316  -19.3146 H   0  0  0  0  0  0  0  0  0  0  0  0
   -6.4300   -1.7907  -17.7880 H   0  0  0  0  0  0  0  0  0  0  0  0
   -8.9123   -0.0936  -18.4030 H   0  0  0  0  0  0  0  0  0  0  0  0
   -6.4773    0.5340  -16.7091 H   0  0  0  0  0  0  0  0  0  0  0  0
   -7.8632    1.6007  -17.0068 H   0  0  0  0  0  0  0  0  0  0  0  0
   -6.8063    1.1238  -18.3497 H   0  0  0  0  0  0  0  0  0  0  0  0
  -11.5355   -0.4667  -11.6891 H   0  0  0  0  0  0  0  0  0  0  0  0
  -11.0524   -2.1621  -11.9219 H   0  0  0  0  0  0  0  0  0  0  0  0
  -11.7794   -1.6237  -10.3923 H   0  0  0  0  0  0  0  0  0  0  0  0
   -8.1023   -1.9991   -9.5632 H   0  0  0  0  0  0  0  0  0  0  0  0
   -8.9573   -3.0501  -10.6782 H   0  0  0  0  0  0  0  0  0  0  0  0
   -9.7238   -2.5927   -9.1410 H   0  0  0  0  0  0  0  0  0  0  0  0
   -8.7831    0.4061   -9.2770 H   0  0  0  0  0  0  0  0  0  0  0  0
  -10.1789    1.0651  -10.1574 H   0  0  0  0  0  0  0  0  0  0  0  0
  -10.4056   -0.0738   -8.8105 H   0  0  0  0  0  0  0  0  0  0  0  0
   -7.4425   -3.3204  -19.2766 H   0  0  0  0  0  0  0  0  0  0  0  0
  1 17  1  0  0  0  0
  1 18  2  0  0  0  0
  1 19  1  0  0  0  0
  2  5  1  0  0  0  0
  2 10  1  0  0  0  0
  3  6  1  0  0  0  0
  3 10  1  0  0  0  0
  4  7  1  0  0  0  0
  4 10  1  0  0  0  0
  5 16  1  0  0  0  0
  6 17  1  0  0  0  0
  7 17  1  0  0  0  0
  8  9  1  0  0  0  0
  8 16  1  0  0  0  0
  9 10  1  0  0  0  0
  9 11  1  0  0  0  0
 12 15  1  0  0  0  0
 13 15  1  0  0  0  0
 14 15  1  0  0  0  0
 15 19  1  0  0  0  0
  2 20  1  0  0  0  0
  2 21  1  0  0  0  0
  3 22  1  0  0  0  0
  3 23  1  0  0  0  0
  4 24  1  0  0  0  0
  4 25  1  0  0  0  0
  5 26  1  0  0  0  0
  5 27  1  0  0  0  0
  6 28  1  0  0  0  0
  6 29  1  0  0  0  0
  7 30  1  0  0  0  0
  7 31  1  0  0  0  0
  8 32  1  0  0  0  0
  8 33  1  0  0  0  0
  9 34  1  0  0  0  0
 11 35  1  0  0  0  0
 11 36  1  0  0  0  0
 11 37  1  0  0  0  0
 12 38  1  0  0  0  0
 12 39  1  0  0  0  0
 12 40  1  0  0  0  0
 13 41  1  0  0  0  0
 13 42  1  0  0  0  0
 13 43  1  0  0  0  0
 14 44  1  0  0  0  0
 14 45  1  0  0  0  0
 14 46  1  0  0  0  0
 16 47  1  0  0  0  0
M  END
> <id>
EN300-7535142

> <smiles>
CC1CNCCC21CCN(CC2)C(=O)OC(C)(C)C

> <MDLNUMBER>
MFCD32667892

> <IUPAC Name>
tert-butyl 7-methyl-3,9-diazaspiro[5.5]undecane-3-carboxylate

> <CAS>
1554158-37-0

> <Purity>
90

> <URL>
https://www.enaminestore.com/catalog/EN300-7535142

> <ROCS_ShapeQuery>
amalgated

> <ROCS_TanimotoCombo>
0.844 

> <ROCS_ShapeTanimoto>
0.591 

> <ROCS_ColorTanimoto>
0.254 

> <ROCS_RefTversky>
0.565 

> <ROCS_RefColorTversky>
0.379 

> <ROCS_RefTverskyCombo>
0.944 

> <ROCS_FitTversky>
1.082 

> <ROCS_FitColorTversky>
0.435 

> <ROCS_FitTverskyCombo>
1.516 

> <ROCS_ColorScore>
-2.631

> <ROCS_Overlap>
930.987

> <ROCS_Rank>
241                 

$$$$
untitled-dbase-53651_31
  -OEChem-10092318153D

 39 40  0     1  0  0  0  0  0999 V2000
   -8.5982   -0.2843  -14.2643 C   0  0  0  0  0  0  0  0  0  0  0  0
   -7.7354   -0.7634  -17.7771 C   0  0  0  0  0  0  0  0  0  0  0  0
   -8.4875    0.0487  -16.7196 C   0  0  0  0  0  0  0  0  0  0  0  0
   -8.3446   -4.2313  -19.1232 C   0  0  0  0  0  0  0  0  0  0  0  0
   -9.6293   -1.9736  -15.8066 C   0  0  0  0  0  0  0  0  0  0  0  0
   -9.7688   -4.3805  -18.6028 C   0  0  0  0  0  0  0  0  0  0  0  0
   -8.1044   -2.2547  -17.7733 C   0  0  1  0  0  0  0  0  0  0  0  0
   -9.5324   -2.4623  -17.2542 C   0  0  1  0  0  0  0  0  0  0  0  0
   -9.3882    1.2245  -11.9652 C   0  0  0  0  0  0  0  0  0  0  0  0
  -10.4510   -0.9047  -11.1613 C   0  0  0  0  0  0  0  0  0  0  0  0
   -7.9666   -0.8032  -11.5159 C   0  0  0  0  0  0  0  0  0  0  0  0
   -9.3263   -0.3018  -12.0002 C   0  0  0  0  0  0  0  0  0  0  0  0
   -7.9463   -2.8235  -19.1161 N   0  0  0  0  0  0  0  0  0  0  0  0
   -8.8611   -0.7498  -15.5566 N   0  0  0  0  0  0  0  0  0  0  0  0
   -7.6571    0.4486  -13.9665 O   0  0  0  0  0  0  0  0  0  0  0  0
   -9.8722   -3.8523  -17.2798 O   0  0  0  0  0  0  0  0  0  0  0  0
   -9.5168   -0.7347  -13.3520 O   0  0  0  0  0  0  0  0  0  0  0  0
   -7.9360   -0.3266  -18.7758 H   0  0  0  0  0  0  0  0  0  0  0  0
   -6.6463   -0.6452  -17.6163 H   0  0  0  0  0  0  0  0  0  0  0  0
   -7.8533    0.8711  -16.3552 H   0  0  0  0  0  0  0  0  0  0  0  0
   -9.3745    0.5115  -17.1749 H   0  0  0  0  0  0  0  0  0  0  0  0
   -7.6551   -4.8068  -18.4956 H   0  0  0  0  0  0  0  0  0  0  0  0
   -8.2784   -4.6253  -20.1413 H   0  0  0  0  0  0  0  0  0  0  0  0
  -10.6927   -1.8496  -15.5344 H   0  0  0  0  0  0  0  0  0  0  0  0
   -9.2498   -2.7479  -15.1125 H   0  0  0  0  0  0  0  0  0  0  0  0
  -10.4905   -3.8751  -19.2540 H   0  0  0  0  0  0  0  0  0  0  0  0
  -10.0421   -5.4385  -18.5609 H   0  0  0  0  0  0  0  0  0  0  0  0
   -7.3897   -2.7759  -17.1029 H   0  0  0  0  0  0  0  0  0  0  0  0
  -10.2610   -1.9071  -17.8537 H   0  0  0  0  0  0  0  0  0  0  0  0
   -8.5825    1.6611  -12.5662 H   0  0  0  0  0  0  0  0  0  0  0  0
  -10.3455    1.5982  -12.3430 H   0  0  0  0  0  0  0  0  0  0  0  0
   -9.2495    1.5981  -10.9442 H   0  0  0  0  0  0  0  0  0  0  0  0
  -10.4104   -1.9997  -11.1836 H   0  0  0  0  0  0  0  0  0  0  0  0
  -11.4313   -0.6239  -11.5632 H   0  0  0  0  0  0  0  0  0  0  0  0
  -10.3972   -0.5770  -10.1181 H   0  0  0  0  0  0  0  0  0  0  0  0
   -7.9220   -1.8981  -11.5409 H   0  0  0  0  0  0  0  0  0  0  0  0
   -7.1497   -0.4099  -12.1296 H   0  0  0  0  0  0  0  0  0  0  0  0
   -7.7918   -0.5104  -10.4743 H   0  0  0  0  0  0  0  0  0  0  0  0
   -6.9711   -2.7425  -19.4114 H   0  0  0  0  0  0  0  0  0  0  0  0
  1 14  1  0  0  0  0
  1 15  2  0  0  0  0
  1 17  1  0  0  0  0
  2  3  1  0  0  0  0
  2  7  1  6  0  0  0
  3 14  1  0  0  0  0
  4  6  1  0  0  0  0
  4 13  1  0  0  0  0
  5  8  1  1  0  0  0
  5 14  1  0  0  0  0
  6 16  1  0  0  0  0
  7  8  1  0  0  0  0
  7 13  1  0  0  0  0
  8 16  1  0  0  0  0
  9 12  1  0  0  0  0
 10 12  1  0  0  0  0
 11 12  1  0  0  0  0
 12 17  1  0  0  0  0
  2 18  1  0  0  0  0
  2 19  1  0  0  0  0
  3 20  1  0  0  0  0
  3 21  1  0  0  0  0
  4 22  1  0  0  0  0
  4 23  1  0  0  0  0
  5 24  1  0  0  0  0
  5 25  1  0  0  0  0
  6 26  1  0  0  0  0
  6 27  1  0  0  0  0
  7 28  1  0  0  0  0
  8 29  1  0  0  0  0
  9 30  1  0  0  0  0
  9 31  1  0  0  0  0
  9 32  1  0  0  0  0
 10 33  1  0  0  0  0
 10 34  1  0  0  0  0
 10 35  1  0  0  0  0
 11 36  1  0  0  0  0
 11 37  1  0  0  0  0
 11 38  1  0  0  0  0
 13 39  1  0  0  0  0
M  END
> <id>
EN300-33329605

> <smiles>
CC(C)(C)OC(=O)N1CC[C@@H]2NCCO[C@H]2C1 |&1:10,15,r|

> <MDLNUMBER>
MFCD14581086

> <IUPAC Name>
rac-tert-butyl (4aR,8aR)-octahydro-1H-pyrido[3,4-b]morpholine-6-carboxylate

> <Purity>
95

> <URL>
https://www.enaminestore.com/catalog/EN300-33329605

> <ROCS_ShapeQuery>
amalgated

> <ROCS_TanimotoCombo>
0.844 

> <ROCS_ShapeTanimoto>
0.595 

> <ROCS_ColorTanimoto>
0.249 

> <ROCS_RefTversky>
0.553 

> <ROCS_RefColorTversky>
0.398 

> <ROCS_RefTverskyCombo>
0.951 

> <ROCS_FitTversky>
1.147 

> <ROCS_FitColorTversky>
0.398 

> <ROCS_FitTverskyCombo>
1.545 

> <ROCS_ColorScore>
-2.789

> <ROCS_Overlap>
908.713

> <ROCS_Rank>
242                 

$$$$
untitled-dbase-25700_3
  -OEChem-10092318153D

 40 43  0     1  0  0  0  0  0999 V2000
   -5.8636    2.6978  -18.3140 C   0  0  0  0  0  0  0  0  0  0  0  0
   -5.9786    1.5927  -19.1491 C   0  0  0  0  0  0  0  0  0  0  0  0
   -8.9378    0.6642  -12.3137 C   0  0  0  0  0  0  0  0  0  0  0  0
   -8.8615   -0.7029  -12.5056 C   0  0  0  0  0  0  0  0  0  0  0  0
   -6.7245    2.8371  -17.2284 C   0  0  0  0  0  0  0  0  0  0  0  0
   -6.9485    0.6206  -18.8964 C   0  0  0  0  0  0  0  0  0  0  0  0
   -8.8604    1.5111  -13.4141 C   0  0  0  0  0  0  0  0  0  0  0  0
   -8.7014   -1.2125  -13.7954 C   0  0  0  0  0  0  0  0  0  0  0  0
   -7.7044    1.8669  -16.9637 C   0  0  0  0  0  0  0  0  0  0  0  0
   -7.8194    0.7391  -17.8029 C   0  0  0  0  0  0  0  0  0  0  0  0
   -8.6851    1.0158  -14.7289 C   0  0  0  0  0  0  0  0  0  0  0  0
   -8.5976   -0.3845  -14.9413 C   0  0  0  0  0  0  0  0  0  0  0  0
   -8.6705    2.0715  -15.8211 C   0  0  0  0  0  0  0  0  0  0  0  0
   -7.4502   -2.0639  -16.3401 C   0  0  0  0  0  0  0  0  0  0  0  0
   -7.9305   -3.0774  -17.3771 C   0  0  0  0  0  0  0  0  0  0  0  0
   -9.2076   -1.3701  -18.5076 C   0  0  0  0  0  0  0  0  0  0  0  0
   -8.8532   -0.3115  -17.4340 C   0  0  1  0  0  0  0  0  0  0  0  0
   -8.5899   -3.3897  -19.6730 C   0  0  0  0  0  0  0  0  0  0  0  0
   -8.4408   -0.9873  -16.1934 N   0  0  2  0  0  0  0  0  0  0  0  0
   -8.1862   -2.4165  -18.6596 N   0  0  2  0  0  0  0  0  0  0  0  0
   -5.1090    3.4533  -18.5112 H   0  0  0  0  0  0  0  0  0  0  0  0
   -5.3086    1.4813  -19.9987 H   0  0  0  0  0  0  0  0  0  0  0  0
   -9.0598    1.0746  -11.3176 H   0  0  0  0  0  0  0  0  0  0  0  0
   -8.9272   -1.3798  -11.6605 H   0  0  0  0  0  0  0  0  0  0  0  0
   -6.6334    3.7157  -16.5968 H   0  0  0  0  0  0  0  0  0  0  0  0
   -7.0073   -0.2365  -19.5588 H   0  0  0  0  0  0  0  0  0  0  0  0
   -8.9411    2.5920  -13.2530 H   0  0  0  0  0  0  0  0  0  0  0  0
   -8.6699   -2.3019  -13.9079 H   0  0  0  0  0  0  0  0  0  0  0  0
   -8.4925    3.0876  -15.3610 H   0  0  0  0  0  0  0  0  0  0  0  0
   -9.7187    2.1970  -16.2228 H   0  0  0  0  0  0  0  0  0  0  0  0
   -7.2872   -2.5552  -15.3725 H   0  0  0  0  0  0  0  0  0  0  0  0
   -6.4862   -1.6701  -16.6850 H   0  0  0  0  0  0  0  0  0  0  0  0
   -7.1890   -3.8792  -17.4844 H   0  0  0  0  0  0  0  0  0  0  0  0
   -8.8540   -3.5347  -17.0043 H   0  0  0  0  0  0  0  0  0  0  0  0
  -10.1625   -1.8559  -18.2306 H   0  0  0  0  0  0  0  0  0  0  0  0
   -9.4019   -0.8711  -19.4788 H   0  0  0  0  0  0  0  0  0  0  0  0
   -9.7538    0.2533  -17.1235 H   0  0  0  0  0  0  0  0  0  0  0  0
   -8.7763   -2.8721  -20.6255 H   0  0  0  0  0  0  0  0  0  0  0  0
   -7.7885   -4.1308  -19.8092 H   0  0  0  0  0  0  0  0  0  0  0  0
   -9.5087   -3.8989  -19.3467 H   0  0  0  0  0  0  0  0  0  0  0  0
  1  2  2  0  0  0  0
  1  5  1  0  0  0  0
  2  6  1  0  0  0  0
  3  4  2  0  0  0  0
  3  7  1  0  0  0  0
  4  8  1  0  0  0  0
  5  9  2  0  0  0  0
  6 10  2  0  0  0  0
  7 11  2  0  0  0  0
  8 12  2  0  0  0  0
  9 10  1  0  0  0  0
  9 13  1  0  0  0  0
 10 17  1  0  0  0  0
 11 12  1  0  0  0  0
 11 13  1  0  0  0  0
 12 19  1  0  0  0  0
 14 15  1  0  0  0  0
 14 19  1  0  0  0  0
 15 20  1  0  0  0  0
 16 17  1  0  0  0  0
 16 20  1  0  0  0  0
 17 19  1  0  0  0  0
 18 20  1  0  0  0  0
  1 21  1  0  0  0  0
  2 22  1  0  0  0  0
  3 23  1  0  0  0  0
  4 24  1  0  0  0  0
  5 25  1  0  0  0  0
  6 26  1  0  0  0  0
  7 27  1  0  0  0  0
  8 28  1  0  0  0  0
 13 29  1  0  0  0  0
 13 30  1  0  0  0  0
 14 31  1  0  0  0  0
 14 32  1  0  0  0  0
 15 33  1  0  0  0  0
 15 34  1  0  0  0  0
 16 35  1  0  0  0  0
 16 36  1  0  0  0  0
 17 37  1  0  0  0  0
 18 38  1  0  0  0  0
 18 39  1  0  0  0  0
 18 40  1  0  0  0  0
M  END
> <id>
EN300-18559884

> <smiles>
CN1CCN2C(C1)C=3C=CC=CC3CC=4C=CC=CC24

> <MDLNUMBER>
MFCD00600076

> <IUPAC Name>
5-methyl-2,5-diazatetracyclo[13.4.0.0^{2,7}.0^{8,13}]nonadeca-1(19),8,10,12,15,17-hexaene

> <CAS>
24219-97-4

> <URL>
https://www.enaminestore.com/catalog/EN300-18559884

> <ROCS_ShapeQuery>
amalgated

> <ROCS_TanimotoCombo>
0.844 

> <ROCS_ShapeTanimoto>
0.561 

> <ROCS_ColorTanimoto>
0.282 

> <ROCS_RefTversky>
0.568 

> <ROCS_RefColorTversky>
0.383 

> <ROCS_RefTverskyCombo>
0.951 

> <ROCS_FitTversky>
0.980 

> <ROCS_FitColorTversky>
0.517 

> <ROCS_FitTverskyCombo>
1.497 

> <ROCS_ColorScore>
-2.643

> <ROCS_Overlap>
938.145

> <ROCS_Rank>
243                 

$$$$
untitled-dbase-10081_0
  -OEChem-10092318153D

 32 34  0     0  0  0  0  0  0999 V2000
   -9.5840   -2.2961  -16.2433 C   0  0  0  0  0  0  0  0  0  0  0  0
   -9.0875   -2.8116  -17.4409 C   0  0  0  0  0  0  0  0  0  0  0  0
   -7.7313   -0.8327  -17.7373 C   0  0  0  0  0  0  0  0  0  0  0  0
   -8.2337   -0.3186  -16.5387 C   0  0  0  0  0  0  0  0  0  0  0  0
   -9.1472   -1.0528  -15.7821 C   0  0  0  0  0  0  0  0  0  0  0  0
   -8.1593   -2.0829  -18.1841 C   0  0  0  0  0  0  0  0  0  0  0  0
   -7.8322    1.0208  -16.0744 C   0  0  0  0  0  0  0  0  0  0  0  0
   -8.5552    1.5402  -14.8606 C   0  0  0  0  0  0  0  0  0  0  0  0
   -9.8831    0.9626  -12.8240 C   0  0  0  0  0  0  0  0  0  0  0  0
   -7.6860   -0.2110  -13.2107 C   0  0  0  0  0  0  0  0  0  0  0  0
  -10.2594   -0.0790  -11.7688 C   0  0  0  0  0  0  0  0  0  0  0  0
   -8.0593   -1.2607  -12.1630 C   0  0  0  0  0  0  0  0  0  0  0  0
   -8.9303    0.3981  -13.9053 C   0  0  0  0  0  0  0  0  0  0  0  0
   -9.0272   -0.6999  -11.1374 C   0  0  0  0  0  0  0  0  0  0  0  0
   -7.0048    1.6879  -16.6838 O   0  0  0  0  0  0  0  0  0  0  0  0
   -9.6730   -0.6271  -14.5937 O   0  0  0  0  0  0  0  0  0  0  0  0
   -7.6848   -2.5805  -19.3335 F   0  0  0  0  0  0  0  0  0  0  0  0
   -9.4033   -1.6845  -10.2840 F   0  0  0  0  0  0  0  0  0  0  0  0
   -8.3898    0.2366  -10.3873 F   0  0  0  0  0  0  0  0  0  0  0  0
  -10.3038   -2.8741  -15.6699 H   0  0  0  0  0  0  0  0  0  0  0  0
   -9.4233   -3.7822  -17.7942 H   0  0  0  0  0  0  0  0  0  0  0  0
   -7.0191   -0.2741  -18.3378 H   0  0  0  0  0  0  0  0  0  0  0  0
   -7.9170    2.2725  -14.3535 H   0  0  0  0  0  0  0  0  0  0  0  0
   -9.4513    2.0559  -15.2274 H   0  0  0  0  0  0  0  0  0  0  0  0
  -10.8090    1.3206  -13.2917 H   0  0  0  0  0  0  0  0  0  0  0  0
   -9.4163    1.8230  -12.3275 H   0  0  0  0  0  0  0  0  0  0  0  0
   -7.1075    0.5867  -12.7273 H   0  0  0  0  0  0  0  0  0  0  0  0
   -7.0197   -0.6871  -13.9387 H   0  0  0  0  0  0  0  0  0  0  0  0
  -10.8675    0.3981  -10.9918 H   0  0  0  0  0  0  0  0  0  0  0  0
  -10.8828   -0.8637  -12.2135 H   0  0  0  0  0  0  0  0  0  0  0  0
   -8.4983   -2.1419  -12.6457 H   0  0  0  0  0  0  0  0  0  0  0  0
   -7.1502   -1.6038  -11.6558 H   0  0  0  0  0  0  0  0  0  0  0  0
  1  2  1  0  0  0  0
  1  5  2  0  0  0  0
  2  6  2  0  0  0  0
  3  4  2  0  0  0  0
  3  6  1  0  0  0  0
  4  5  1  0  0  0  0
  4  7  1  0  0  0  0
  5 16  1  0  0  0  0
  6 17  1  0  0  0  0
  7  8  1  0  0  0  0
  7 15  2  0  0  0  0
  8 13  1  0  0  0  0
  9 11  1  0  0  0  0
  9 13  1  0  0  0  0
 10 12  1  0  0  0  0
 10 13  1  0  0  0  0
 11 14  1  0  0  0  0
 12 14  1  0  0  0  0
 13 16  1  0  0  0  0
 14 18  1  0  0  0  0
 14 19  1  0  0  0  0
  1 20  1  0  0  0  0
  2 21  1  0  0  0  0
  3 22  1  0  0  0  0
  8 23  1  0  0  0  0
  8 24  1  0  0  0  0
  9 25  1  0  0  0  0
  9 26  1  0  0  0  0
 10 27  1  0  0  0  0
 10 28  1  0  0  0  0
 11 29  1  0  0  0  0
 11 30  1  0  0  0  0
 12 31  1  0  0  0  0
 12 32  1  0  0  0  0
M  END
> <id>
EN300-338173

> <smiles>
FC=1C=CC=2OC3(CCC(F)(F)CC3)CC(=O)C2C1

> <MDLNUMBER>
MFCD30499646

> <IUPAC Name>
4',4',6-trifluoro-3,4-dihydrospiro[1-benzopyran-2,1'-cyclohexane]-4-one

> <CAS>
2060042-10-4

> <URL>
https://www.enaminestore.com/catalog/EN300-338173

> <ROCS_ShapeQuery>
amalgated

> <ROCS_TanimotoCombo>
0.843 

> <ROCS_ShapeTanimoto>
0.653 

> <ROCS_ColorTanimoto>
0.190 

> <ROCS_RefTversky>
0.614 

> <ROCS_RefColorTversky>
0.278 

> <ROCS_RefTverskyCombo>
0.892 

> <ROCS_FitTversky>
1.107 

> <ROCS_FitColorTversky>
0.376 

> <ROCS_FitTverskyCombo>
1.483 

> <ROCS_ColorScore>
-1.919

> <ROCS_Overlap>
1013.331

> <ROCS_Rank>
244                 

$$$$
untitled-dbase-31819_70
  -OEChem-10092318153D

 57 60  0     0  0  0  0  0  0999 V2000
   -7.9669   -0.5786  -11.3669 C   0  0  0  0  0  0  0  0  0  0  0  0
   -9.1981   -1.2240  -11.3462 C   0  0  0  0  0  0  0  0  0  0  0  0
   -7.7475    0.4713  -12.2569 C   0  0  0  0  0  0  0  0  0  0  0  0
  -10.2126   -0.8257  -12.2182 C   0  0  0  0  0  0  0  0  0  0  0  0
   -8.7562    0.8767  -13.1458 C   0  0  0  0  0  0  0  0  0  0  0  0
   -9.9984    0.2110  -13.1361 C   0  0  0  0  0  0  0  0  0  0  0  0
  -11.4439   -0.5060  -17.0814 C   0  0  0  0  0  0  0  0  0  0  0  0
  -11.1169   -0.8481  -15.8260 C   0  0  0  0  0  0  0  0  0  0  0  0
   -8.4087    2.0028  -14.0639 C   0  0  0  0  0  0  0  0  0  0  0  0
   -8.3861   -0.2502  -17.4331 C   0  0  0  0  0  0  0  0  0  0  0  0
  -10.7631   -0.8929  -18.3659 C   0  0  0  0  0  0  0  0  0  0  0  0
  -11.8194   -0.3063  -14.6139 C   0  0  0  0  0  0  0  0  0  0  0  0
   -5.2945    2.5623  -19.1847 C   0  0  0  0  0  0  0  0  0  0  0  0
   -5.3425    1.5766  -18.0222 C   0  0  0  0  0  0  0  0  0  0  0  0
   -6.6823    2.8422  -19.7502 C   0  0  0  0  0  0  0  0  0  0  0  0
   -6.3257    2.0322  -16.9436 C   0  0  0  0  0  0  0  0  0  0  0  0
   -7.6626    3.2731  -18.6572 C   0  0  0  0  0  0  0  0  0  0  0  0
   -9.0724   -2.8045  -17.8472 C   0  0  0  0  0  0  0  0  0  0  0  0
   -8.6792   -1.7572  -19.5983 C   0  0  0  0  0  0  0  0  0  0  0  0
   -8.6822    2.8646  -16.4032 C   0  0  0  0  0  0  0  0  0  0  0  0
   -9.2826   -1.2997  -18.2274 C   0  0  0  0  0  0  0  0  0  0  0  0
   -7.7592    2.2502  -17.4905 C   0  0  0  0  0  0  0  0  0  0  0  0
   -8.9882    1.9521  -15.3163 N   0  0  0  0  0  0  0  0  0  0  0  0
   -8.3647    1.0054  -18.0318 N   0  0  0  0  0  0  0  0  0  0  0  0
   -8.0409   -2.8860  -18.8976 N   0  0  0  0  0  0  0  0  0  0  0  0
   -7.6144    2.8628  -13.6934 O   0  0  0  0  0  0  0  0  0  0  0  0
   -7.7799   -0.5305  -16.3949 O   0  0  0  0  0  0  0  0  0  0  0  0
  -10.9956    0.6703  -13.9577 O   0  0  0  0  0  0  0  0  0  0  0  0
   -7.1778   -0.8893  -10.6888 H   0  0  0  0  0  0  0  0  0  0  0  0
   -9.3758   -2.0329  -10.6432 H   0  0  0  0  0  0  0  0  0  0  0  0
   -6.7744    0.9605  -12.2562 H   0  0  0  0  0  0  0  0  0  0  0  0
  -11.1747   -1.3288  -12.1503 H   0  0  0  0  0  0  0  0  0  0  0  0
  -12.3418    0.1585  -17.2045 H   0  0  0  0  0  0  0  0  0  0  0  0
  -10.3200   -1.5616  -15.6517 H   0  0  0  0  0  0  0  0  0  0  0  0
  -11.3617   -1.7182  -18.8269 H   0  0  0  0  0  0  0  0  0  0  0  0
  -10.8456   -0.0610  -19.1110 H   0  0  0  0  0  0  0  0  0  0  0  0
  -12.7639    0.1727  -14.9356 H   0  0  0  0  0  0  0  0  0  0  0  0
  -12.0788   -1.1321  -13.9195 H   0  0  0  0  0  0  0  0  0  0  0  0
   -4.8452    3.5033  -18.8430 H   0  0  0  0  0  0  0  0  0  0  0  0
   -4.6451    2.1696  -19.9754 H   0  0  0  0  0  0  0  0  0  0  0  0
   -5.6247    0.5869  -18.3942 H   0  0  0  0  0  0  0  0  0  0  0  0
   -4.3435    1.4782  -17.5870 H   0  0  0  0  0  0  0  0  0  0  0  0
   -6.6130    3.6327  -20.5086 H   0  0  0  0  0  0  0  0  0  0  0  0
   -7.0609    1.9490  -20.2644 H   0  0  0  0  0  0  0  0  0  0  0  0
   -6.3267    1.2939  -16.1335 H   0  0  0  0  0  0  0  0  0  0  0  0
   -5.9550    2.9686  -16.5081 H   0  0  0  0  0  0  0  0  0  0  0  0
   -7.3293    4.2410  -18.2587 H   0  0  0  0  0  0  0  0  0  0  0  0
   -8.6446    3.4623  -19.1029 H   0  0  0  0  0  0  0  0  0  0  0  0
   -8.6698   -2.9801  -16.8435 H   0  0  0  0  0  0  0  0  0  0  0  0
   -9.9245   -3.4707  -17.9998 H   0  0  0  0  0  0  0  0  0  0  0  0
   -9.3937   -2.0488  -20.3724 H   0  0  0  0  0  0  0  0  0  0  0  0
   -7.9608   -1.0541  -20.0357 H   0  0  0  0  0  0  0  0  0  0  0  0
   -8.2169    3.7695  -15.9874 H   0  0  0  0  0  0  0  0  0  0  0  0
   -9.6418    3.1822  -16.8312 H   0  0  0  0  0  0  0  0  0  0  0  0
   -9.6850    1.2171  -15.4916 H   0  0  0  0  0  0  0  0  0  0  0  0
   -8.8067    1.0884  -18.9510 H   0  0  0  0  0  0  0  0  0  0  0  0
   -7.0893   -2.7123  -18.5797 H   0  0  0  0  0  0  0  0  0  0  0  0
  1  2  2  0  0  0  0
  1  3  1  0  0  0  0
  2  4  1  0  0  0  0
  3  5  2  0  0  0  0
  4  6  2  0  0  0  0
  5  6  1  0  0  0  0
  5  9  1  0  0  0  0
  6 28  1  0  0  0  0
  7  8  2  0  0  0  0
  7 11  1  0  0  0  0
  8 12  1  0  0  0  0
  9 23  1  0  0  0  0
  9 26  2  0  0  0  0
 10 21  1  0  0  0  0
 10 24  1  0  0  0  0
 10 27  2  0  0  0  0
 11 21  1  0  0  0  0
 12 28  1  0  0  0  0
 13 14  1  0  0  0  0
 13 15  1  0  0  0  0
 14 16  1  0  0  0  0
 15 17  1  0  0  0  0
 16 22  1  0  0  0  0
 17 22  1  0  0  0  0
 18 21  1  0  0  0  0
 18 25  1  0  0  0  0
 19 21  1  0  0  0  0
 19 25  1  0  0  0  0
 20 22  1  0  0  0  0
 20 23  1  0  0  0  0
 22 24  1  0  0  0  0
  1 29  1  0  0  0  0
  2 30  1  0  0  0  0
  3 31  1  0  0  0  0
  4 32  1  0  0  0  0
  7 33  1  0  0  0  0
  8 34  1  0  0  0  0
 11 35  1  0  0  0  0
 11 36  1  0  0  0  0
 12 37  1  0  0  0  0
 12 38  1  0  0  0  0
 13 39  1  0  0  0  0
 13 40  1  0  0  0  0
 14 41  1  0  0  0  0
 14 42  1  0  0  0  0
 15 43  1  0  0  0  0
 15 44  1  0  0  0  0
 16 45  1  0  0  0  0
 16 46  1  0  0  0  0
 17 47  1  0  0  0  0
 17 48  1  0  0  0  0
 18 49  1  0  0  0  0
 18 50  1  0  0  0  0
 19 51  1  0  0  0  0
 19 52  1  0  0  0  0
 20 53  1  0  0  0  0
 20 54  1  0  0  0  0
 23 55  1  0  0  0  0
 24 56  1  0  0  0  0
 25 57  1  0  0  0  0
M  END
> <id>
EN300-6482042

> <smiles>
OC(=O)C(F)(F)F.O=C1NCC2(CCCCC2)NC(=O)C3(CNC3)C/C=C/COC=4C=CC=CC14

> <MDLNUMBER>
MFCD31736687

> <IUPAC Name>
(3'E)-5',7',8',10',11',12'-hexahydro-2'H-dispiro[azetidine-3,6'-[1,8,11]benzoxadiazacyclotetradecine-9',1''-cyclohexan]-3'-ene-7',12'-dione; trifluoroacetic acid

> <CAS>
2648972-77-2

> <URL>
https://www.enaminestore.com/catalog/EN300-6482042

> <Saltdate>
OC(=O)C(F)(F)F

> <ROCS_ShapeQuery>
amalgated

> <ROCS_TanimotoCombo>
0.843 

> <ROCS_ShapeTanimoto>
0.551 

> <ROCS_ColorTanimoto>
0.292 

> <ROCS_RefTversky>
0.626 

> <ROCS_RefColorTversky>
0.537 

> <ROCS_RefTverskyCombo>
1.162 

> <ROCS_FitTversky>
0.823 

> <ROCS_FitColorTversky>
0.390 

> <ROCS_FitTverskyCombo>
1.213 

> <ROCS_ColorScore>
-3.839

> <ROCS_Overlap>
1043.279

> <ROCS_Rank>
245                 

$$$$
untitled-dbase-22256_0
  -OEChem-10092318153D

 28 30  0     1  0  0  0  0  0999 V2000
   -8.9986    0.3010  -11.8470 C   0  0  0  0  0  0  0  0  0  0  0  0
   -8.6375    1.0026  -13.0011 C   0  0  0  0  0  0  0  0  0  0  0  0
   -9.2113   -1.7730  -13.0953 C   0  0  0  0  0  0  0  0  0  0  0  0
   -8.8506   -1.0907  -14.2720 C   0  0  0  0  0  0  0  0  0  0  0  0
   -8.6802   -1.4514  -15.6189 C   0  0  0  0  0  0  0  0  0  0  0  0
   -9.2809   -1.0634  -11.8911 C   0  0  0  0  0  0  0  0  0  0  0  0
   -8.5693    0.2879  -14.2027 C   0  0  0  0  0  0  0  0  0  0  0  0
   -8.3136   -0.3350  -16.3137 C   0  0  0  0  0  0  0  0  0  0  0  0
   -8.7657   -2.6309  -16.5054 C   0  0  0  0  0  0  0  0  0  0  0  0
   -8.0907   -0.5355  -17.7561 C   0  0  0  0  0  0  0  0  0  0  0  0
   -8.7461   -1.9568  -17.9326 C   0  0  1  0  0  0  0  0  0  0  0  0
   -9.6626   -1.7795  -10.6379 C   0  0  0  0  0  0  0  0  0  0  0  0
   -8.2409    0.7253  -15.4793 N   0  0  0  0  0  0  0  0  0  0  0  0
   -8.0675   -2.7639  -18.9338 N   0  0  0  0  0  0  0  0  0  0  0  0
   -9.0584    0.8394  -10.9035 H   0  0  0  0  0  0  0  0  0  0  0  0
   -8.4190    2.0645  -12.9618 H   0  0  0  0  0  0  0  0  0  0  0  0
   -9.4326   -2.8366  -13.1235 H   0  0  0  0  0  0  0  0  0  0  0  0
   -7.8967   -3.2808  -16.3535 H   0  0  0  0  0  0  0  0  0  0  0  0
   -9.6807   -3.2117  -16.3580 H   0  0  0  0  0  0  0  0  0  0  0  0
   -8.5869    0.2105  -18.3828 H   0  0  0  0  0  0  0  0  0  0  0  0
   -7.0189   -0.5507  -17.9804 H   0  0  0  0  0  0  0  0  0  0  0  0
   -9.7879   -1.8108  -18.2513 H   0  0  0  0  0  0  0  0  0  0  0  0
  -10.7498   -1.7512  -10.4999 H   0  0  0  0  0  0  0  0  0  0  0  0
   -9.3413   -2.8281  -10.6665 H   0  0  0  0  0  0  0  0  0  0  0  0
   -9.1871   -1.3241   -9.7602 H   0  0  0  0  0  0  0  0  0  0  0  0
   -7.9933    1.6739  -15.7277 H   0  0  0  0  0  0  0  0  0  0  0  0
   -8.5347   -3.6390  -19.0051 H   0  0  0  0  0  0  0  0  0  0  0  0
   -8.0998   -2.2824  -19.8033 H   0  0  0  0  0  0  0  0  0  0  0  0
  1  2  1  0  0  0  0
  1  6  2  0  0  0  0
  2  7  2  0  0  0  0
  3  4  2  0  0  0  0
  3  6  1  0  0  0  0
  4  5  1  0  0  0  0
  4  7  1  0  0  0  0
  5  8  2  0  0  0  0
  5  9  1  0  0  0  0
  6 12  1  0  0  0  0
  7 13  1  0  0  0  0
  8 10  1  0  0  0  0
  8 13  1  0  0  0  0
  9 11  1  0  0  0  0
 10 11  1  0  0  0  0
 11 14  1  0  0  0  0
  1 15  1  0  0  0  0
  2 16  1  0  0  0  0
  3 17  1  0  0  0  0
  9 18  1  0  0  0  0
  9 19  1  0  0  0  0
 10 20  1  0  0  0  0
 10 21  1  0  0  0  0
 11 22  1  0  0  0  0
 12 23  1  0  0  0  0
 12 24  1  0  0  0  0
 12 25  1  0  0  0  0
 13 26  1  0  0  0  0
 14 27  1  0  0  0  0
 14 28  1  0  0  0  0
M  END
> <id>
EN300-748931

> <smiles>
CC=1C=CC=2NC=3CC(N)CC3C2C1

> <MDLNUMBER>
MFCD26593750

> <IUPAC Name>
7-methyl-1H,2H,3H,4H-cyclopenta[b]indol-2-amine

> <CAS>
1706459-15-5

> <Purity>
75

> <URL>
https://www.enaminestore.com/catalog/EN300-748931

> <ROCS_ShapeQuery>
amalgated

> <ROCS_TanimotoCombo>
0.843 

> <ROCS_ShapeTanimoto>
0.500 

> <ROCS_ColorTanimoto>
0.343 

> <ROCS_RefTversky>
0.475 

> <ROCS_RefColorTversky>
0.480 

> <ROCS_RefTverskyCombo>
0.955 

> <ROCS_FitTversky>
1.117 

> <ROCS_FitColorTversky>
0.545 

> <ROCS_FitTverskyCombo>
1.662 

> <ROCS_ColorScore>
-3.335

> <ROCS_Overlap>
778.371

> <ROCS_Rank>
246                 

$$$$
untitled-dbase-11722_22
  -OEChem-10092318153D

 35 36  0     0  0  0  0  0  0999 V2000
   -8.7370    0.1063  -13.4043 C   0  0  0  0  0  0  0  0  0  0  0  0
   -8.9134    0.0141  -12.2202 C   0  0  0  0  0  0  0  0  0  0  0  0
   -8.9503   -2.1725  -15.7190 C   0  0  0  0  0  0  0  0  0  0  0  0
   -8.9697   -2.9353  -16.8885 C   0  0  0  0  0  0  0  0  0  0  0  0
   -8.3538   -0.9927  -18.2049 C   0  0  0  0  0  0  0  0  0  0  0  0
   -8.1764    1.3775  -15.4526 C   0  0  0  0  0  0  0  0  0  0  0  0
   -8.5262    0.2170  -14.8089 C   0  0  0  0  0  0  0  0  0  0  0  0
   -8.6289   -0.8007  -15.7861 C   0  0  0  0  0  0  0  0  0  0  0  0
   -8.3328   -0.2209  -17.0273 C   0  0  0  0  0  0  0  0  0  0  0  0
   -8.6753   -2.3509  -18.1137 C   0  0  0  0  0  0  0  0  0  0  0  0
   -7.7063    2.0821  -17.7852 C   0  0  0  0  0  0  0  0  0  0  0  0
   -5.1342    2.4416  -17.7216 C   0  0  0  0  0  0  0  0  0  0  0  0
   -4.9056    0.7981  -19.6074 C   0  0  0  0  0  0  0  0  0  0  0  0
   -5.7934    3.1038  -20.0586 C   0  0  0  0  0  0  0  0  0  0  0  0
   -5.7225    1.9606  -19.0473 C   0  0  0  0  0  0  0  0  0  0  0  0
   -8.0527    1.1324  -16.8092 N   0  0  0  0  0  0  0  0  0  0  0  0
   -9.1249   -0.0957  -10.8026 N   0  0  0  0  0  0  0  0  0  0  0  0
   -7.9908    3.2616  -17.6589 O   0  0  0  0  0  0  0  0  0  0  0  0
   -7.0489    1.4800  -18.8092 O   0  0  0  0  0  0  0  0  0  0  0  0
   -8.7000   -3.0980  -19.2261 F   0  0  0  0  0  0  0  0  0  0  0  0
   -9.1834   -2.6425  -14.7675 H   0  0  0  0  0  0  0  0  0  0  0  0
   -9.2172   -3.9918  -16.8384 H   0  0  0  0  0  0  0  0  0  0  0  0
   -8.1295   -0.5660  -19.1760 H   0  0  0  0  0  0  0  0  0  0  0  0
   -8.0036    2.3664  -15.0472 H   0  0  0  0  0  0  0  0  0  0  0  0
   -5.7178    3.2760  -17.3164 H   0  0  0  0  0  0  0  0  0  0  0  0
   -5.1102    1.6398  -16.9765 H   0  0  0  0  0  0  0  0  0  0  0  0
   -4.1136    2.8164  -17.8598 H   0  0  0  0  0  0  0  0  0  0  0  0
   -5.3241    0.4498  -20.5586 H   0  0  0  0  0  0  0  0  0  0  0  0
   -4.9306   -0.0603  -18.9264 H   0  0  0  0  0  0  0  0  0  0  0  0
   -3.8606    1.0805  -19.7711 H   0  0  0  0  0  0  0  0  0  0  0  0
   -6.2153    2.7591  -21.0096 H   0  0  0  0  0  0  0  0  0  0  0  0
   -6.4065    3.9321  -19.6887 H   0  0  0  0  0  0  0  0  0  0  0  0
   -4.7916    3.4862  -20.2854 H   0  0  0  0  0  0  0  0  0  0  0  0
   -8.8481   -0.9376  -10.3180 H   0  0  0  0  0  0  0  0  0  0  0  0
   -9.5502    0.6692  -10.2983 H   0  0  0  0  0  0  0  0  0  0  0  0
  1  2  3  0  0  0  0
  1  7  1  0  0  0  0
  2 17  1  0  0  0  0
  3  4  1  0  0  0  0
  3  8  2  0  0  0  0
  4 10  2  0  0  0  0
  5  9  2  0  0  0  0
  5 10  1  0  0  0  0
  6  7  2  0  0  0  0
  6 16  1  0  0  0  0
  7  8  1  0  0  0  0
  8  9  1  0  0  0  0
  9 16  1  0  0  0  0
 10 20  1  0  0  0  0
 11 16  1  0  0  0  0
 11 18  2  0  0  0  0
 11 19  1  0  0  0  0
 12 15  1  0  0  0  0
 13 15  1  0  0  0  0
 14 15  1  0  0  0  0
 15 19  1  0  0  0  0
  3 21  1  0  0  0  0
  4 22  1  0  0  0  0
  5 23  1  0  0  0  0
  6 24  1  0  0  0  0
 12 25  1  0  0  0  0
 12 26  1  0  0  0  0
 12 27  1  0  0  0  0
 13 28  1  0  0  0  0
 13 29  1  0  0  0  0
 13 30  1  0  0  0  0
 14 31  1  0  0  0  0
 14 32  1  0  0  0  0
 14 33  1  0  0  0  0
 17 34  1  0  0  0  0
 17 35  1  0  0  0  0
M  END
> <id>
EN300-624594

> <smiles>
CC(C)(C)OC(=O)N1C=C(C#CN)C=2C=CC(F)=CC12

> <MDLNUMBER>
MFCD30752587

> <IUPAC Name>
tert-butyl 3-(2-aminoethynyl)-6-fluoro-1H-indole-1-carboxylate

> <CAS>
2137743-18-9

> <URL>
https://www.enaminestore.com/catalog/EN300-624594

> <ROCS_ShapeQuery>
amalgated

> <ROCS_TanimotoCombo>
0.842 

> <ROCS_ShapeTanimoto>
0.631 

> <ROCS_ColorTanimoto>
0.210 

> <ROCS_RefTversky>
0.608 

> <ROCS_RefColorTversky>
0.326 

> <ROCS_RefTverskyCombo>
0.934 

> <ROCS_FitTversky>
1.064 

> <ROCS_FitColorTversky>
0.373 

> <ROCS_FitTverskyCombo>
1.437 

> <ROCS_ColorScore>
-2.264

> <ROCS_Overlap>
1004.437

> <ROCS_Rank>
247                 

$$$$
untitled-dbase-34225_29
  -OEChem-10092318153D

 42 44  0     1  0  0  0  0  0999 V2000
   -8.0773   -0.1110  -12.3662 C   0  0  0  0  0  0  0  0  0  0  0  0
  -10.1991   -1.8387  -16.5528 C   0  0  0  0  0  0  0  0  0  0  0  0
   -7.2593   -1.2276  -17.1901 C   0  0  0  0  0  0  0  0  0  0  0  0
   -8.8963   -3.5042  -18.1924 C   0  0  0  0  0  0  0  0  0  0  0  0
   -9.4842   -1.1035  -14.1782 C   0  0  0  0  0  0  0  0  0  0  0  0
   -7.2448   -0.3815  -14.7440 C   0  0  0  0  0  0  0  0  0  0  0  0
   -9.6248   -2.1648  -17.9315 C   0  0  2  0  0  0  0  0  0  0  0  0
   -9.0831   -1.6752  -15.5311 C   0  0  2  0  0  0  0  0  0  0  0  0
   -8.0375   -0.6564  -16.0141 C   0  0  2  0  0  0  0  0  0  0  0  0
   -8.2595   -1.5143  -18.3207 C   0  0  2  0  0  0  0  0  0  0  0  0
  -10.2725    1.0279  -11.5030 C   0  0  0  0  0  0  0  0  0  0  0  0
  -10.9326   -1.1510  -10.4419 C   0  0  0  0  0  0  0  0  0  0  0  0
   -9.1223    0.2474   -9.4048 C   0  0  0  0  0  0  0  0  0  0  0  0
   -9.7816   -0.1848  -10.7137 C   0  0  0  0  0  0  0  0  0  0  0  0
   -7.9486   -2.7646  -19.0585 N   0  0  0  0  0  0  0  0  0  0  0  0
   -8.2482   -0.5007  -13.6832 N   0  0  0  0  0  0  0  0  0  0  0  0
   -7.3554    0.8173  -12.0093 O   0  0  0  0  0  0  0  0  0  0  0  0
   -8.8116   -0.8810  -11.5046 O   0  0  0  0  0  0  0  0  0  0  0  0
  -10.7750   -0.9073  -16.6199 H   0  0  0  0  0  0  0  0  0  0  0  0
  -10.8981   -2.6208  -16.2365 H   0  0  0  0  0  0  0  0  0  0  0  0
   -6.4977   -0.5173  -17.5315 H   0  0  0  0  0  0  0  0  0  0  0  0
   -6.7285   -2.1355  -16.8756 H   0  0  0  0  0  0  0  0  0  0  0  0
   -8.4262   -3.9653  -17.3169 H   0  0  0  0  0  0  0  0  0  0  0  0
   -9.4860   -4.2646  -18.7122 H   0  0  0  0  0  0  0  0  0  0  0  0
  -10.2330   -0.3082  -14.2608 H   0  0  0  0  0  0  0  0  0  0  0  0
   -9.8486   -1.8625  -13.4795 H   0  0  0  0  0  0  0  0  0  0  0  0
   -6.4705   -1.1339  -14.5579 H   0  0  0  0  0  0  0  0  0  0  0  0
   -6.7875    0.6123  -14.7329 H   0  0  0  0  0  0  0  0  0  0  0  0
  -10.3992   -1.9868  -18.6945 H   0  0  0  0  0  0  0  0  0  0  0  0
   -8.5986   -2.6479  -15.3638 H   0  0  0  0  0  0  0  0  0  0  0  0
   -8.5407    0.2709  -16.3253 H   0  0  0  0  0  0  0  0  0  0  0  0
   -8.3764   -0.6370  -18.9687 H   0  0  0  0  0  0  0  0  0  0  0  0
   -9.4492    1.7238  -11.7002 H   0  0  0  0  0  0  0  0  0  0  0  0
  -10.7160    0.7339  -12.4599 H   0  0  0  0  0  0  0  0  0  0  0  0
  -11.0214    1.5889  -10.9323 H   0  0  0  0  0  0  0  0  0  0  0  0
  -10.5849   -2.0226   -9.8758 H   0  0  0  0  0  0  0  0  0  0  0  0
  -11.3475   -1.5375  -11.3798 H   0  0  0  0  0  0  0  0  0  0  0  0
  -11.7388   -0.6705   -9.8781 H   0  0  0  0  0  0  0  0  0  0  0  0
   -8.7701   -0.6223   -8.8384 H   0  0  0  0  0  0  0  0  0  0  0  0
   -8.2707    0.9121   -9.5824 H   0  0  0  0  0  0  0  0  0  0  0  0
   -9.8405    0.7663   -8.7596 H   0  0  0  0  0  0  0  0  0  0  0  0
   -6.9816   -3.0796  -19.0059 H   0  0  0  0  0  0  0  0  0  0  0  0
  1 16  1  0  0  0  0
  1 17  2  0  0  0  0
  1 18  1  0  0  0  0
  2  7  1  0  0  0  0
  2  8  1  0  0  0  0
  3  9  1  0  0  0  0
  3 10  1  0  0  0  0
  4  7  1  0  0  0  0
  4 15  1  0  0  0  0
  5  8  1  0  0  0  0
  5 16  1  0  0  0  0
  6  9  1  0  0  0  0
  6 16  1  0  0  0  0
  7 10  1  0  0  0  0
  8  9  1  0  0  0  0
 10 15  1  0  0  0  0
 11 14  1  0  0  0  0
 12 14  1  0  0  0  0
 13 14  1  0  0  0  0
 14 18  1  0  0  0  0
  2 19  1  0  0  0  0
  2 20  1  0  0  0  0
  3 21  1  0  0  0  0
  3 22  1  0  0  0  0
  4 23  1  0  0  0  0
  4 24  1  0  0  0  0
  5 25  1  0  0  0  0
  5 26  1  0  0  0  0
  6 27  1  0  0  0  0
  6 28  1  0  0  0  0
  7 29  1  0  0  0  0
  8 30  1  0  0  0  0
  9 31  1  0  0  0  0
 10 32  1  0  0  0  0
 11 33  1  0  0  0  0
 11 34  1  0  0  0  0
 11 35  1  0  0  0  0
 12 36  1  0  0  0  0
 12 37  1  0  0  0  0
 12 38  1  0  0  0  0
 13 39  1  0  0  0  0
 13 40  1  0  0  0  0
 13 41  1  0  0  0  0
 15 42  1  0  0  0  0
M  END
> <id>
EN300-295728

> <smiles>
CC(C)(C)OC(=O)N1CC2CC3CNC3CC2C1

> <MDLNUMBER>
MFCD24531663

> <IUPAC Name>
tert-butyl decahydro-1H-azeto[2,3-f]isoindole-5-carboxylate

> <CAS>
1824427-71-5

> <URL>
https://www.enaminestore.com/catalog/EN300-295728

> <ROCS_ShapeQuery>
amalgated

> <ROCS_TanimotoCombo>
0.841 

> <ROCS_ShapeTanimoto>
0.570 

> <ROCS_ColorTanimoto>
0.272 

> <ROCS_RefTversky>
0.549 

> <ROCS_RefColorTversky>
0.430 

> <ROCS_RefTverskyCombo>
0.979 

> <ROCS_FitTversky>
1.070 

> <ROCS_FitColorTversky>
0.424 

> <ROCS_FitTverskyCombo>
1.495 

> <ROCS_ColorScore>
-3.015

> <ROCS_Overlap>
903.679

> <ROCS_Rank>
248                 

$$$$
untitled-dbase-51845_0
  -OEChem-10092318153D

 37 37  0     1  0  0  0  0  0999 V2000
   -8.3655   -0.4511  -14.5690 C   0  0  0  0  0  0  0  0  0  0  0  0
   -8.5678   -0.5277  -18.2377 C   0  0  0  0  0  0  0  0  0  0  0  0
   -9.7717   -2.5397  -17.3487 C   0  0  0  0  0  0  0  0  0  0  0  0
   -7.7359   -0.4747  -16.9611 C   0  0  0  0  0  0  0  0  0  0  0  0
   -9.0530   -1.9420  -18.5638 C   0  0  2  0  0  0  0  0  0  0  0  0
   -9.0116   -2.4245  -16.0145 C   0  0  1  0  0  0  0  0  0  0  0  0
   -7.9436   -3.5051  -15.8286 C   0  0  0  0  0  0  0  0  0  0  0  0
   -9.6444    0.8435  -12.3592 C   0  0  0  0  0  0  0  0  0  0  0  0
   -9.8638   -1.4578  -11.3769 C   0  0  0  0  0  0  0  0  0  0  0  0
   -7.5849   -0.4944  -11.8088 C   0  0  0  0  0  0  0  0  0  0  0  0
   -9.0344   -0.5557  -12.2882 C   0  0  0  0  0  0  0  0  0  0  0  0
   -8.4316   -1.0789  -15.8224 N   0  0  0  0  0  0  0  0  0  0  0  0
   -7.9372   -2.7856  -18.9889 N   0  0  0  0  0  0  0  0  0  0  0  0
   -7.7539    0.5924  -14.3473 O   0  0  0  0  0  0  0  0  0  0  0  0
   -9.0570   -1.1298  -13.6001 O   0  0  0  0  0  0  0  0  0  0  0  0
   -9.4383    0.1314  -18.1216 H   0  0  0  0  0  0  0  0  0  0  0  0
   -7.9844   -0.1207  -19.0728 H   0  0  0  0  0  0  0  0  0  0  0  0
  -10.7251   -2.0048  -17.2329 H   0  0  0  0  0  0  0  0  0  0  0  0
  -10.0427   -3.5858  -17.5410 H   0  0  0  0  0  0  0  0  0  0  0  0
   -6.7894   -1.0124  -17.0885 H   0  0  0  0  0  0  0  0  0  0  0  0
   -7.4791    0.5666  -16.7393 H   0  0  0  0  0  0  0  0  0  0  0  0
   -9.7621   -1.8878  -19.3985 H   0  0  0  0  0  0  0  0  0  0  0  0
   -9.7549   -2.5941  -15.2262 H   0  0  0  0  0  0  0  0  0  0  0  0
   -7.1716   -3.3904  -16.5860 H   0  0  0  0  0  0  0  0  0  0  0  0
   -8.3979   -4.4886  -15.9247 H   0  0  0  0  0  0  0  0  0  0  0  0
   -7.4959   -3.4108  -14.8418 H   0  0  0  0  0  0  0  0  0  0  0  0
   -9.0520    1.4942  -13.0125 H   0  0  0  0  0  0  0  0  0  0  0  0
  -10.6725    0.8168  -12.7349 H   0  0  0  0  0  0  0  0  0  0  0  0
   -9.6490    1.3187  -11.3716 H   0  0  0  0  0  0  0  0  0  0  0  0
   -9.4297   -2.4628  -11.3230 H   0  0  0  0  0  0  0  0  0  0  0  0
  -10.8797   -1.5810  -11.7693 H   0  0  0  0  0  0  0  0  0  0  0  0
   -9.9309   -1.0542  -10.3614 H   0  0  0  0  0  0  0  0  0  0  0  0
   -7.1471   -1.4979  -11.7578 H   0  0  0  0  0  0  0  0  0  0  0  0
   -6.9664    0.1191  -12.4720 H   0  0  0  0  0  0  0  0  0  0  0  0
   -7.5266   -0.0798  -10.7960 H   0  0  0  0  0  0  0  0  0  0  0  0
   -8.2958   -3.6833  -19.2117 H   0  0  0  0  0  0  0  0  0  0  0  0
   -7.5192   -2.3661  -19.7849 H   0  0  0  0  0  0  0  0  0  0  0  0
  1 12  1  0  0  0  0
  1 14  2  0  0  0  0
  1 15  1  0  0  0  0
  2  4  1  0  0  0  0
  2  5  1  0  0  0  0
  3  5  1  0  0  0  0
  3  6  1  0  0  0  0
  4 12  1  0  0  0  0
  5 13  1  6  0  0  0
  6  7  1  6  0  0  0
  6 12  1  0  0  0  0
  8 11  1  0  0  0  0
  9 11  1  0  0  0  0
 10 11  1  0  0  0  0
 11 15  1  0  0  0  0
  2 16  1  0  0  0  0
  2 17  1  0  0  0  0
  3 18  1  0  0  0  0
  3 19  1  0  0  0  0
  4 20  1  0  0  0  0
  4 21  1  0  0  0  0
  5 22  1  0  0  0  0
  6 23  1  0  0  0  0
  7 24  1  0  0  0  0
  7 25  1  0  0  0  0
  7 26  1  0  0  0  0
  8 27  1  0  0  0  0
  8 28  1  0  0  0  0
  8 29  1  0  0  0  0
  9 30  1  0  0  0  0
  9 31  1  0  0  0  0
  9 32  1  0  0  0  0
 10 33  1  0  0  0  0
 10 34  1  0  0  0  0
 10 35  1  0  0  0  0
 13 36  1  0  0  0  0
 13 37  1  0  0  0  0
M  END
> <id>
EN300-6292192

> <smiles>
C[C@@H]1C[C@H](N)CCN1C(=O)OC(C)(C)C |&1:1,3,r|

> <MDLNUMBER>
MFCD24850074

> <IUPAC Name>
rac-tert-butyl (2R,4R)-4-amino-2-methylpiperidine-1-carboxylate

> <CAS>
1434073-24-1

> <Purity>
95

> <URL>
https://www.enaminestore.com/catalog/EN300-6292192

> <ROCS_ShapeQuery>
amalgated

> <ROCS_TanimotoCombo>
0.841 

> <ROCS_ShapeTanimoto>
0.514 

> <ROCS_ColorTanimoto>
0.328 

> <ROCS_RefTversky>
0.482 

> <ROCS_RefColorTversky>
0.429 

> <ROCS_RefTverskyCombo>
0.911 

> <ROCS_FitTversky>
1.147 

> <ROCS_FitColorTversky>
0.581 

> <ROCS_FitTverskyCombo>
1.727 

> <ROCS_ColorScore>
-2.961

> <ROCS_Overlap>
789.072

> <ROCS_Rank>
249                 

$$$$
untitled-dbase-51553_24
  -OEChem-10092318153D

 34 34  0     1  0  0  0  0  0999 V2000
   -8.5175   -0.5609  -15.0761 C   0  0  0  0  0  0  0  0  0  0  0  0
   -9.1639   -3.0319  -17.9057 C   0  0  0  0  0  0  0  0  0  0  0  0
   -8.8926   -2.5633  -16.4869 C   0  0  0  0  0  0  0  0  0  0  0  0
   -8.0194   -1.1780  -18.8401 C   0  0  0  0  0  0  0  0  0  0  0  0
   -7.7353   -0.5365  -17.4671 C   0  0  1  0  0  0  0  0  0  0  0  0
   -9.8580    0.8762  -12.9898 C   0  0  0  0  0  0  0  0  0  0  0  0
  -10.5869   -1.3786  -12.1569 C   0  0  0  0  0  0  0  0  0  0  0  0
   -8.1429   -0.8058  -12.2389 C   0  0  0  0  0  0  0  0  0  0  0  0
   -7.9594    0.9760  -17.6233 C   0  0  0  0  0  0  0  0  0  0  0  0
   -9.5028   -0.6076  -12.9069 C   0  0  0  0  0  0  0  0  0  0  0  0
   -8.0759   -2.6332  -18.7873 N   0  0  0  0  0  0  0  0  0  0  0  0
   -8.5158   -1.1474  -16.3618 N   0  0  0  0  0  0  0  0  0  0  0  0
   -7.7846    0.3563  -14.7147 O   0  0  0  0  0  0  0  0  0  0  0  0
   -9.4390   -1.1361  -14.2368 O   0  0  0  0  0  0  0  0  0  0  0  0
   -7.2377    1.4389  -18.6532 F   0  0  0  0  0  0  0  0  0  0  0  0
   -9.2566    1.2226  -17.8510 F   0  0  0  0  0  0  0  0  0  0  0  0
   -7.5826    1.6096  -16.5043 F   0  0  0  0  0  0  0  0  0  0  0  0
   -9.2949   -4.1172  -17.9287 H   0  0  0  0  0  0  0  0  0  0  0  0
  -10.0937   -2.5826  -18.2612 H   0  0  0  0  0  0  0  0  0  0  0  0
   -9.7923   -2.7038  -15.8561 H   0  0  0  0  0  0  0  0  0  0  0  0
   -8.1104   -3.1974  -16.0279 H   0  0  0  0  0  0  0  0  0  0  0  0
   -8.9730   -0.7977  -19.2311 H   0  0  0  0  0  0  0  0  0  0  0  0
   -7.2475   -0.8611  -19.5574 H   0  0  0  0  0  0  0  0  0  0  0  0
   -6.6583   -0.6727  -17.2833 H   0  0  0  0  0  0  0  0  0  0  0  0
   -9.0822    1.4331  -13.5274 H   0  0  0  0  0  0  0  0  0  0  0  0
  -10.8148    1.0341  -13.4981 H   0  0  0  0  0  0  0  0  0  0  0  0
   -9.9200    1.3200  -11.9896 H   0  0  0  0  0  0  0  0  0  0  0  0
  -10.3362   -2.4437  -12.0950 H   0  0  0  0  0  0  0  0  0  0  0  0
  -11.5455   -1.3173  -12.6848 H   0  0  0  0  0  0  0  0  0  0  0  0
  -10.7256   -0.9954  -11.1408 H   0  0  0  0  0  0  0  0  0  0  0  0
   -7.8879   -1.8701  -12.1793 H   0  0  0  0  0  0  0  0  0  0  0  0
   -7.3464   -0.2896  -12.7847 H   0  0  0  0  0  0  0  0  0  0  0  0
   -8.1569   -0.4330  -11.2083 H   0  0  0  0  0  0  0  0  0  0  0  0
   -7.1983   -2.9925  -18.4248 H   0  0  0  0  0  0  0  0  0  0  0  0
  1 12  1  0  0  0  0
  1 13  2  0  0  0  0
  1 14  1  0  0  0  0
  2  3  1  0  0  0  0
  2 11  1  0  0  0  0
  3 12  1  0  0  0  0
  4  5  1  0  0  0  0
  4 11  1  0  0  0  0
  5  9  1  0  0  0  0
  5 12  1  0  0  0  0
  6 10  1  0  0  0  0
  7 10  1  0  0  0  0
  8 10  1  0  0  0  0
  9 15  1  0  0  0  0
  9 16  1  0  0  0  0
  9 17  1  0  0  0  0
 10 14  1  0  0  0  0
  2 18  1  0  0  0  0
  2 19  1  0  0  0  0
  3 20  1  0  0  0  0
  3 21  1  0  0  0  0
  4 22  1  0  0  0  0
  4 23  1  0  0  0  0
  5 24  1  0  0  0  0
  6 25  1  0  0  0  0
  6 26  1  0  0  0  0
  6 27  1  0  0  0  0
  7 28  1  0  0  0  0
  7 29  1  0  0  0  0
  7 30  1  0  0  0  0
  8 31  1  0  0  0  0
  8 32  1  0  0  0  0
  8 33  1  0  0  0  0
 11 34  1  0  0  0  0
M  END
> <id>
EN300-1703198

> <smiles>
CC(C)(C)OC(=O)N1CCNCC1C(F)(F)F

> <MDLNUMBER>
MFCD08686629

> <IUPAC Name>
tert-butyl 2-(trifluoromethyl)piperazine-1-carboxylate

> <CAS>
886779-77-7

> <Purity>
95

> <URL>
https://www.enaminestore.com/catalog/EN300-1703198

> <ROCS_ShapeQuery>
amalgated

> <ROCS_TanimotoCombo>
0.841 

> <ROCS_ShapeTanimoto>
0.564 

> <ROCS_ColorTanimoto>
0.277 

> <ROCS_RefTversky>
0.536 

> <ROCS_RefColorTversky>
0.377 

> <ROCS_RefTverskyCombo>
0.913 

> <ROCS_FitTversky>
1.102 

> <ROCS_FitColorTversky>
0.510 

> <ROCS_FitTverskyCombo>
1.612 

> <ROCS_ColorScore>
-2.602

> <ROCS_Overlap>
881.149

> <ROCS_Rank>
250                 

$$$$
untitled-dbase-51552_24
  -OEChem-10092318153D

 34 34  0     1  0  0  0  0  0999 V2000
   -8.5175   -0.5609  -15.0761 C   0  0  0  0  0  0  0  0  0  0  0  0
   -9.1639   -3.0319  -17.9057 C   0  0  0  0  0  0  0  0  0  0  0  0
   -8.8926   -2.5633  -16.4869 C   0  0  0  0  0  0  0  0  0  0  0  0
   -8.0194   -1.1780  -18.8401 C   0  0  0  0  0  0  0  0  0  0  0  0
   -7.7353   -0.5365  -17.4671 C   0  0  1  0  0  0  0  0  0  0  0  0
   -9.8580    0.8762  -12.9898 C   0  0  0  0  0  0  0  0  0  0  0  0
  -10.5869   -1.3786  -12.1569 C   0  0  0  0  0  0  0  0  0  0  0  0
   -8.1429   -0.8058  -12.2389 C   0  0  0  0  0  0  0  0  0  0  0  0
   -7.9594    0.9760  -17.6233 C   0  0  0  0  0  0  0  0  0  0  0  0
   -9.5028   -0.6076  -12.9069 C   0  0  0  0  0  0  0  0  0  0  0  0
   -8.0759   -2.6332  -18.7873 N   0  0  0  0  0  0  0  0  0  0  0  0
   -8.5158   -1.1474  -16.3618 N   0  0  0  0  0  0  0  0  0  0  0  0
   -7.7846    0.3563  -14.7147 O   0  0  0  0  0  0  0  0  0  0  0  0
   -9.4390   -1.1361  -14.2368 O   0  0  0  0  0  0  0  0  0  0  0  0
   -7.2377    1.4389  -18.6532 F   0  0  0  0  0  0  0  0  0  0  0  0
   -9.2566    1.2226  -17.8510 F   0  0  0  0  0  0  0  0  0  0  0  0
   -7.5826    1.6096  -16.5043 F   0  0  0  0  0  0  0  0  0  0  0  0
   -9.2949   -4.1172  -17.9287 H   0  0  0  0  0  0  0  0  0  0  0  0
  -10.0937   -2.5826  -18.2612 H   0  0  0  0  0  0  0  0  0  0  0  0
   -9.7923   -2.7038  -15.8561 H   0  0  0  0  0  0  0  0  0  0  0  0
   -8.1104   -3.1974  -16.0279 H   0  0  0  0  0  0  0  0  0  0  0  0
   -8.9730   -0.7977  -19.2311 H   0  0  0  0  0  0  0  0  0  0  0  0
   -7.2475   -0.8611  -19.5574 H   0  0  0  0  0  0  0  0  0  0  0  0
   -6.6583   -0.6727  -17.2833 H   0  0  0  0  0  0  0  0  0  0  0  0
   -9.0822    1.4331  -13.5274 H   0  0  0  0  0  0  0  0  0  0  0  0
  -10.8148    1.0341  -13.4981 H   0  0  0  0  0  0  0  0  0  0  0  0
   -9.9200    1.3200  -11.9896 H   0  0  0  0  0  0  0  0  0  0  0  0
  -10.3362   -2.4437  -12.0950 H   0  0  0  0  0  0  0  0  0  0  0  0
  -11.5455   -1.3173  -12.6848 H   0  0  0  0  0  0  0  0  0  0  0  0
  -10.7256   -0.9954  -11.1408 H   0  0  0  0  0  0  0  0  0  0  0  0
   -7.8879   -1.8701  -12.1793 H   0  0  0  0  0  0  0  0  0  0  0  0
   -7.3464   -0.2896  -12.7847 H   0  0  0  0  0  0  0  0  0  0  0  0
   -8.1569   -0.4330  -11.2083 H   0  0  0  0  0  0  0  0  0  0  0  0
   -7.1983   -2.9925  -18.4248 H   0  0  0  0  0  0  0  0  0  0  0  0
  1 12  1  0  0  0  0
  1 13  2  0  0  0  0
  1 14  1  0  0  0  0
  2  3  1  0  0  0  0
  2 11  1  0  0  0  0
  3 12  1  0  0  0  0
  4  5  1  0  0  0  0
  4 11  1  0  0  0  0
  5  9  1  0  0  0  0
  5 12  1  0  0  0  0
  6 10  1  0  0  0  0
  7 10  1  0  0  0  0
  8 10  1  0  0  0  0
  9 15  1  0  0  0  0
  9 16  1  0  0  0  0
  9 17  1  0  0  0  0
 10 14  1  0  0  0  0
  2 18  1  0  0  0  0
  2 19  1  0  0  0  0
  3 20  1  0  0  0  0
  3 21  1  0  0  0  0
  4 22  1  0  0  0  0
  4 23  1  0  0  0  0
  5 24  1  0  0  0  0
  6 25  1  0  0  0  0
  6 26  1  0  0  0  0
  6 27  1  0  0  0  0
  7 28  1  0  0  0  0
  7 29  1  0  0  0  0
  7 30  1  0  0  0  0
  8 31  1  0  0  0  0
  8 32  1  0  0  0  0
  8 33  1  0  0  0  0
 11 34  1  0  0  0  0
M  END
> <id>
EN300-26204130

> <smiles>
Cl.CC(C)(C)OC(=O)N1CCNCC1C(F)(F)F

> <MDLNUMBER>
MFCD27922061

> <IUPAC Name>
tert-butyl 2-(trifluoromethyl)piperazine-1-carboxylate hydrochloride

> <CAS>
2820473-46-7

> <Purity>
95

> <URL>
https://www.enaminestore.com/catalog/EN300-26204130

> <ROCS_ShapeQuery>
amalgated

> <ROCS_TanimotoCombo>
0.841 

> <ROCS_ShapeTanimoto>
0.564 

> <ROCS_ColorTanimoto>
0.277 

> <ROCS_RefTversky>
0.536 

> <ROCS_RefColorTversky>
0.377 

> <ROCS_RefTverskyCombo>
0.913 

> <ROCS_FitTversky>
1.102 

> <ROCS_FitColorTversky>
0.510 

> <ROCS_FitTverskyCombo>
1.612 

> <ROCS_ColorScore>
-2.602

> <ROCS_Overlap>
881.149

> <ROCS_Rank>
251                 

$$$$
untitled-dbase-40938_0
  -OEChem-10092318153D

 35 37  0     0  0  0  0  0  0999 V2000
   -9.1154   -2.8023  -17.4473 C   0  0  0  0  0  0  0  0  0  0  0  0
   -9.6084   -2.2762  -16.2529 C   0  0  0  0  0  0  0  0  0  0  0  0
   -7.7072   -0.8579  -17.7294 C   0  0  0  0  0  0  0  0  0  0  0  0
   -8.2062   -0.3330  -16.5341 C   0  0  0  0  0  0  0  0  0  0  0  0
   -8.1631   -2.0962  -18.1818 C   0  0  0  0  0  0  0  0  0  0  0  0
   -9.1440   -1.0450  -15.7861 C   0  0  0  0  0  0  0  0  0  0  0  0
   -7.7747    0.9951  -16.0643 C   0  0  0  0  0  0  0  0  0  0  0  0
   -8.4941    1.5308  -14.8555 C   0  0  0  0  0  0  0  0  0  0  0  0
   -9.8527    0.9840  -12.8306 C   0  0  0  0  0  0  0  0  0  0  0  0
   -7.6830   -0.2442  -13.2016 C   0  0  0  0  0  0  0  0  0  0  0  0
  -10.2637   -0.0493  -11.7802 C   0  0  0  0  0  0  0  0  0  0  0  0
   -8.0912   -1.2857  -12.1587 C   0  0  0  0  0  0  0  0  0  0  0  0
   -8.9057    0.3972  -13.9052 C   0  0  0  0  0  0  0  0  0  0  0  0
   -9.0528   -0.7021  -11.1399 C   0  0  0  0  0  0  0  0  0  0  0  0
   -7.6374   -2.6630  -19.4574 C   0  0  0  0  0  0  0  0  0  0  0  0
   -6.9258    1.6420  -16.6659 O   0  0  0  0  0  0  0  0  0  0  0  0
   -9.6685   -0.6079  -14.6012 O   0  0  0  0  0  0  0  0  0  0  0  0
   -9.4606   -1.6782  -10.2913 F   0  0  0  0  0  0  0  0  0  0  0  0
   -8.3980    0.2168  -10.3832 F   0  0  0  0  0  0  0  0  0  0  0  0
   -9.4783   -3.7653  -17.7968 H   0  0  0  0  0  0  0  0  0  0  0  0
  -10.3468   -2.8371  -15.6861 H   0  0  0  0  0  0  0  0  0  0  0  0
   -6.9756   -0.3091  -18.3168 H   0  0  0  0  0  0  0  0  0  0  0  0
   -7.8420    2.2463  -14.3417 H   0  0  0  0  0  0  0  0  0  0  0  0
   -9.3739    2.0699  -15.2285 H   0  0  0  0  0  0  0  0  0  0  0  0
  -10.7658    1.3655  -13.3053 H   0  0  0  0  0  0  0  0  0  0  0  0
   -9.3685    1.8318  -12.3287 H   0  0  0  0  0  0  0  0  0  0  0  0
   -7.0883    0.5377  -12.7122 H   0  0  0  0  0  0  0  0  0  0  0  0
   -7.0230   -0.7363  -13.9250 H   0  0  0  0  0  0  0  0  0  0  0  0
  -10.8657    0.4421  -11.0071 H   0  0  0  0  0  0  0  0  0  0  0  0
  -10.9034   -0.8172  -12.2312 H   0  0  0  0  0  0  0  0  0  0  0  0
   -8.5485   -2.1546  -12.6463 H   0  0  0  0  0  0  0  0  0  0  0  0
   -7.1949   -1.6524  -11.6449 H   0  0  0  0  0  0  0  0  0  0  0  0
   -8.2539   -2.3355  -20.3034 H   0  0  0  0  0  0  0  0  0  0  0  0
   -6.6022   -2.3455  -19.6375 H   0  0  0  0  0  0  0  0  0  0  0  0
   -7.6335   -3.7605  -19.4337 H   0  0  0  0  0  0  0  0  0  0  0  0
  1  2  1  0  0  0  0
  1  5  2  0  0  0  0
  2  6  2  0  0  0  0
  3  4  2  0  0  0  0
  3  5  1  0  0  0  0
  4  6  1  0  0  0  0
  4  7  1  0  0  0  0
  5 15  1  0  0  0  0
  6 17  1  0  0  0  0
  7  8  1  0  0  0  0
  7 16  2  0  0  0  0
  8 13  1  0  0  0  0
  9 11  1  0  0  0  0
  9 13  1  0  0  0  0
 10 12  1  0  0  0  0
 10 13  1  0  0  0  0
 11 14  1  0  0  0  0
 12 14  1  0  0  0  0
 13 17  1  0  0  0  0
 14 18  1  0  0  0  0
 14 19  1  0  0  0  0
  1 20  1  0  0  0  0
  2 21  1  0  0  0  0
  3 22  1  0  0  0  0
  8 23  1  0  0  0  0
  8 24  1  0  0  0  0
  9 25  1  0  0  0  0
  9 26  1  0  0  0  0
 10 27  1  0  0  0  0
 10 28  1  0  0  0  0
 11 29  1  0  0  0  0
 11 30  1  0  0  0  0
 12 31  1  0  0  0  0
 12 32  1  0  0  0  0
 15 33  1  0  0  0  0
 15 34  1  0  0  0  0
 15 35  1  0  0  0  0
M  END
> <id>
EN300-338191

> <smiles>
CC=1C=CC=2OC3(CCC(F)(F)CC3)CC(=O)C2C1

> <MDLNUMBER>
MFCD30499661

> <IUPAC Name>
4',4'-difluoro-6-methyl-3,4-dihydrospiro[1-benzopyran-2,1'-cyclohexane]-4-one

> <CAS>
2060046-73-1

> <URL>
https://www.enaminestore.com/catalog/EN300-338191

> <ROCS_ShapeQuery>
amalgated

> <ROCS_TanimotoCombo>
0.841 

> <ROCS_ShapeTanimoto>
0.651 

> <ROCS_ColorTanimoto>
0.190 

> <ROCS_RefTversky>
0.612 

> <ROCS_RefColorTversky>
0.278 

> <ROCS_RefTverskyCombo>
0.890 

> <ROCS_FitTversky>
1.108 

> <ROCS_FitColorTversky>
0.376 

> <ROCS_FitTverskyCombo>
1.484 

> <ROCS_ColorScore>
-1.919

> <ROCS_Overlap>
1008.868

> <ROCS_Rank>
252                 

$$$$
untitled-dbase-25549_55
  -OEChem-10092318153D

 55 59  0     1  0  0  0  0  0999 V2000
   -6.1061    2.2310  -20.1760 C   0  0  0  0  0  0  0  0  0  0  0  0
   -7.9618   -5.0225  -18.2675 C   0  0  0  0  0  0  0  0  0  0  0  0
   -8.3853   -5.1856  -16.9402 C   0  0  0  0  0  0  0  0  0  0  0  0
   -5.0720    2.5283  -19.2882 C   0  0  0  0  0  0  0  0  0  0  0  0
   -7.3973    2.0238  -19.6972 C   0  0  0  0  0  0  0  0  0  0  0  0
   -7.9707   -3.7613  -18.8656 C   0  0  0  0  0  0  0  0  0  0  0  0
   -8.8210   -4.0893  -16.1927 C   0  0  0  0  0  0  0  0  0  0  0  0
   -5.3212    2.6163  -17.9157 C   0  0  0  0  0  0  0  0  0  0  0  0
   -7.6383    2.0936  -18.3228 C   0  0  0  0  0  0  0  0  0  0  0  0
   -8.3928   -2.6777  -18.1123 C   0  0  0  0  0  0  0  0  0  0  0  0
   -8.8099   -2.8355  -16.7863 C   0  0  0  0  0  0  0  0  0  0  0  0
   -6.6072    2.3882  -17.4202 C   0  0  0  0  0  0  0  0  0  0  0  0
   -6.3688    0.2769  -13.5774 C   0  0  0  0  0  0  0  0  0  0  0  0
   -6.6252    1.5290  -13.9833 C   0  0  0  0  0  0  0  0  0  0  0  0
   -9.0230    1.9314  -17.8563 C   0  0  0  0  0  0  0  0  0  0  0  0
   -9.3071   -0.3193  -14.0111 C   0  0  0  0  0  0  0  0  0  0  0  0
   -8.5295   -1.2566  -18.5585 C   0  0  0  0  0  0  0  0  0  0  0  0
   -7.1062   -0.5001  -12.5241 C   0  0  0  0  0  0  0  0  0  0  0  0
   -5.9310    2.1651  -15.1479 C   0  0  0  0  0  0  0  0  0  0  0  0
   -9.3757   -1.2247  -11.5345 C   0  0  0  0  0  0  0  0  0  0  0  0
   -9.1410    0.8419  -11.6067 C   0  0  0  0  0  0  0  0  0  0  0  0
   -9.2625   -1.5239  -16.2066 C   0  0  2  0  0  0  0  0  0  0  0  0
   -8.6264   -0.5150  -17.2075 C   0  0  2  0  0  0  0  0  0  0  0  0
   -8.6420   -0.2975  -12.5618 C   0  0  0  0  0  0  0  0  0  0  0  0
   -9.4066    0.7162  -17.3223 N   0  0  0  0  0  0  0  0  0  0  0  0
   -8.8100   -1.3190  -14.8396 N   0  0  0  0  0  0  0  0  0  0  0  0
   -9.2763   -0.1541  -10.5304 N   0  0  0  0  0  0  0  0  0  0  0  0
   -9.7777    2.8953  -17.9687 O   0  0  0  0  0  0  0  0  0  0  0  0
  -10.1941    0.4624  -14.3709 O   0  0  0  0  0  0  0  0  0  0  0  0
   -6.9496    2.4815  -16.1000 O   0  0  0  0  0  0  0  0  0  0  0  0
   -5.9033    2.1669  -21.2404 H   0  0  0  0  0  0  0  0  0  0  0  0
   -7.6298   -5.8868  -18.8356 H   0  0  0  0  0  0  0  0  0  0  0  0
   -8.3811   -6.1754  -16.4931 H   0  0  0  0  0  0  0  0  0  0  0  0
   -4.0647    2.6924  -19.6654 H   0  0  0  0  0  0  0  0  0  0  0  0
   -8.1940    1.8255  -20.4021 H   0  0  0  0  0  0  0  0  0  0  0  0
   -7.6535   -3.6382  -19.8962 H   0  0  0  0  0  0  0  0  0  0  0  0
   -9.1617   -4.2284  -15.1721 H   0  0  0  0  0  0  0  0  0  0  0  0
   -4.5032    2.8613  -17.2425 H   0  0  0  0  0  0  0  0  0  0  0  0
   -5.5277   -0.2626  -14.0708 H   0  0  0  0  0  0  0  0  0  0  0  0
   -7.3709    2.1194  -13.4750 H   0  0  0  0  0  0  0  0  0  0  0  0
   -7.6618   -0.9162  -19.1399 H   0  0  0  0  0  0  0  0  0  0  0  0
   -9.4439   -1.1402  -19.1586 H   0  0  0  0  0  0  0  0  0  0  0  0
   -6.8527   -1.5759  -12.6449 H   0  0  0  0  0  0  0  0  0  0  0  0
   -6.7323   -0.2373  -11.5096 H   0  0  0  0  0  0  0  0  0  0  0  0
   -5.4334    3.0749  -14.8028 H   0  0  0  0  0  0  0  0  0  0  0  0
   -5.1930    1.4868  -15.5865 H   0  0  0  0  0  0  0  0  0  0  0  0
  -10.4033   -1.5311  -11.7618 H   0  0  0  0  0  0  0  0  0  0  0  0
   -8.8225   -2.1344  -11.2545 H   0  0  0  0  0  0  0  0  0  0  0  0
   -8.4049    1.6275  -11.3820 H   0  0  0  0  0  0  0  0  0  0  0  0
  -10.0794    1.3358  -11.8881 H   0  0  0  0  0  0  0  0  0  0  0  0
  -10.3610   -1.4904  -16.2394 H   0  0  0  0  0  0  0  0  0  0  0  0
   -7.6204   -0.2494  -16.8890 H   0  0  0  0  0  0  0  0  0  0  0  0
  -10.3956    0.6665  -16.9455 H   0  0  0  0  0  0  0  0  0  0  0  0
   -8.0894   -1.9404  -14.4887 H   0  0  0  0  0  0  0  0  0  0  0  0
  -10.1334   -0.0372   -9.9832 H   0  0  0  0  0  0  0  0  0  0  0  0
  1  4  2  0  0  0  0
  1  5  1  0  0  0  0
  2  3  2  0  0  0  0
  2  6  1  0  0  0  0
  3  7  1  0  0  0  0
  4  8  1  0  0  0  0
  5  9  2  0  0  0  0
  6 10  2  0  0  0  0
  7 11  2  0  0  0  0
  8 12  2  0  0  0  0
  9 12  1  0  0  0  0
  9 15  1  0  0  0  0
 10 11  1  0  0  0  0
 10 17  1  0  0  0  0
 11 22  1  0  0  0  0
 12 30  1  0  0  0  0
 13 14  2  0  0  0  0
 13 18  1  0  0  0  0
 14 19  1  0  0  0  0
 15 25  1  0  0  0  0
 15 28  2  0  0  0  0
 16 24  1  0  0  0  0
 16 26  1  0  0  0  0
 16 29  2  0  0  0  0
 17 23  1  6  0  0  0
 18 24  1  0  0  0  0
 19 30  1  0  0  0  0
 20 24  1  0  0  0  0
 20 27  1  0  0  0  0
 21 24  1  0  0  0  0
 21 27  1  0  0  0  0
 22 23  1  0  0  0  0
 22 26  1  1  0  0  0
 23 25  1  0  0  0  0
  1 31  1  0  0  0  0
  2 32  1  0  0  0  0
  3 33  1  0  0  0  0
  4 34  1  0  0  0  0
  5 35  1  0  0  0  0
  6 36  1  0  0  0  0
  7 37  1  0  0  0  0
  8 38  1  0  0  0  0
 13 39  1  0  0  0  0
 14 40  1  0  0  0  0
 17 41  1  0  0  0  0
 17 42  1  0  0  0  0
 18 43  1  0  0  0  0
 18 44  1  0  0  0  0
 19 45  1  0  0  0  0
 19 46  1  0  0  0  0
 20 47  1  0  0  0  0
 20 48  1  0  0  0  0
 21 49  1  0  0  0  0
 21 50  1  0  0  0  0
 22 51  1  0  0  0  0
 23 52  1  0  0  0  0
 25 53  1  0  0  0  0
 26 54  1  0  0  0  0
 27 55  1  0  0  0  0
M  END
> <id>
EN300-6486916

> <smiles>
OC(=O)C(F)(F)F.O=C1N[C@@H]2CC=3C=CC=CC3[C@H]2NC(=O)C4(CNC4)C/C=C/COC=5C=CC=CC15

> <MDLNUMBER>
MFCD31736692

> <IUPAC Name>
(1'R,12'E,18'R)-10'-oxa-2',17'-diazaspiro[azetidine-3,15'-tetracyclo[16.7.0.0^{4,9}.0^{19,24}]pentacosane]-4'(9'),5',7',12',19'(24'),20',22'-heptaene-3',16'-dione; trifluoroacetic acid

> <URL>
https://www.enaminestore.com/catalog/EN300-6486916

> <Saltdate>
OC(=O)C(F)(F)F

> <ROCS_ShapeQuery>
amalgated

> <ROCS_TanimotoCombo>
0.840 

> <ROCS_ShapeTanimoto>
0.604 

> <ROCS_ColorTanimoto>
0.237 

> <ROCS_RefTversky>
0.689 

> <ROCS_RefColorTversky>
0.479 

> <ROCS_RefTverskyCombo>
1.168 

> <ROCS_FitTversky>
0.830 

> <ROCS_FitColorTversky>
0.319 

> <ROCS_FitTverskyCombo>
1.149 

> <ROCS_ColorScore>
-3.450

> <ROCS_Overlap>
1152.892

> <ROCS_Rank>
253                 

$$$$
untitled-dbase-34853_16
  -OEChem-10092318153D

 41 42  0     1  0  0  0  0  0999 V2000
   -9.3337   -1.3616  -13.9878 C   0  0  0  0  0  0  0  0  0  0  0  0
   -8.4471    0.3380  -17.1522 C   0  0  0  0  0  0  0  0  0  0  0  0
   -8.6080    0.3651  -15.6375 C   0  0  0  0  0  0  0  0  0  0  0  0
   -7.9625   -1.0790  -17.4883 C   0  0  1  0  0  0  0  0  0  0  0  0
   -8.4106   -1.9555  -16.2917 C   0  0  2  0  0  0  0  0  0  0  0  0
   -8.8400   -1.9352  -18.4311 C   0  0  2  0  0  0  0  0  0  0  0  0
   -9.5040   -2.6234  -17.1891 C   0  0  0  0  0  0  0  0  0  0  0  0
  -10.9505   -2.1382  -17.0071 C   0  0  0  0  0  0  0  0  0  0  0  0
   -9.4699   -4.1535  -17.0776 C   0  0  0  0  0  0  0  0  0  0  0  0
   -7.9464   -0.9237  -11.5280 C   0  0  0  0  0  0  0  0  0  0  0  0
   -9.6361    0.8876  -11.1116 C   0  0  0  0  0  0  0  0  0  0  0  0
  -10.3885   -1.4988  -11.3287 C   0  0  0  0  0  0  0  0  0  0  0  0
   -9.3757   -0.4535  -11.7940 C   0  0  0  0  0  0  0  0  0  0  0  0
   -8.8542   -1.0162  -15.2413 N   0  0  0  0  0  0  0  0  0  0  0  0
   -7.9572   -2.8656  -19.1338 N   0  0  0  0  0  0  0  0  0  0  0  0
   -9.5518   -2.5140  -13.6221 O   0  0  0  0  0  0  0  0  0  0  0  0
   -9.5364   -0.2588  -13.2032 O   0  0  0  0  0  0  0  0  0  0  0  0
   -9.3763    0.5857  -17.6705 H   0  0  0  0  0  0  0  0  0  0  0  0
   -7.6827    1.0620  -17.4528 H   0  0  0  0  0  0  0  0  0  0  0  0
   -7.7281    0.7708  -15.1245 H   0  0  0  0  0  0  0  0  0  0  0  0
   -9.4839    0.9528  -15.3346 H   0  0  0  0  0  0  0  0  0  0  0  0
   -6.8744   -1.1225  -17.6880 H   0  0  0  0  0  0  0  0  0  0  0  0
   -7.6212   -2.6277  -15.9120 H   0  0  0  0  0  0  0  0  0  0  0  0
   -9.5094   -1.3753  -19.0863 H   0  0  0  0  0  0  0  0  0  0  0  0
  -11.6060   -2.6792  -17.6857 H   0  0  0  0  0  0  0  0  0  0  0  0
  -11.0091   -1.0739  -17.2233 H   0  0  0  0  0  0  0  0  0  0  0  0
  -11.2693   -2.3149  -15.9823 H   0  0  0  0  0  0  0  0  0  0  0  0
  -10.2411   -4.5776  -17.7130 H   0  0  0  0  0  0  0  0  0  0  0  0
   -9.6478   -4.4429  -16.0465 H   0  0  0  0  0  0  0  0  0  0  0  0
   -8.4968   -4.5155  -17.3947 H   0  0  0  0  0  0  0  0  0  0  0  0
   -7.7555   -1.8861  -12.0162 H   0  0  0  0  0  0  0  0  0  0  0  0
   -7.2095   -0.1986  -11.8888 H   0  0  0  0  0  0  0  0  0  0  0  0
   -7.7799   -1.0823  -10.4564 H   0  0  0  0  0  0  0  0  0  0  0  0
  -10.6605    1.2288  -11.2998 H   0  0  0  0  0  0  0  0  0  0  0  0
   -8.9738    1.6641  -11.5114 H   0  0  0  0  0  0  0  0  0  0  0  0
   -9.4844    0.8263  -10.0291 H   0  0  0  0  0  0  0  0  0  0  0  0
  -11.4139   -1.1618  -11.5194 H   0  0  0  0  0  0  0  0  0  0  0  0
  -10.2401   -2.4578  -11.8355 H   0  0  0  0  0  0  0  0  0  0  0  0
  -10.3124   -1.6608  -10.2474 H   0  0  0  0  0  0  0  0  0  0  0  0
   -8.5197   -3.5215  -19.6239 H   0  0  0  0  0  0  0  0  0  0  0  0
   -7.3955   -2.3459  -19.7670 H   0  0  0  0  0  0  0  0  0  0  0  0
  1 14  1  0  0  0  0
  1 16  2  0  0  0  0
  1 17  1  0  0  0  0
  2  3  1  0  0  0  0
  2  4  1  0  0  0  0
  3 14  1  0  0  0  0
  4  5  1  0  0  0  0
  4  6  1  0  0  0  0
  5  7  1  0  0  0  0
  5 14  1  0  0  0  0
  6  7  1  0  0  0  0
  6 15  1  0  0  0  0
  7  8  1  0  0  0  0
  7  9  1  0  0  0  0
 10 13  1  0  0  0  0
 11 13  1  0  0  0  0
 12 13  1  0  0  0  0
 13 17  1  0  0  0  0
  2 18  1  0  0  0  0
  2 19  1  0  0  0  0
  3 20  1  0  0  0  0
  3 21  1  0  0  0  0
  4 22  1  0  0  0  0
  5 23  1  0  0  0  0
  6 24  1  0  0  0  0
  8 25  1  0  0  0  0
  8 26  1  0  0  0  0
  8 27  1  0  0  0  0
  9 28  1  0  0  0  0
  9 29  1  0  0  0  0
  9 30  1  0  0  0  0
 10 31  1  0  0  0  0
 10 32  1  0  0  0  0
 10 33  1  0  0  0  0
 11 34  1  0  0  0  0
 11 35  1  0  0  0  0
 11 36  1  0  0  0  0
 12 37  1  0  0  0  0
 12 38  1  0  0  0  0
 12 39  1  0  0  0  0
 15 40  1  0  0  0  0
 15 41  1  0  0  0  0
M  END
> <id>
EN300-7438944

> <smiles>
CC(C)(C)OC(=O)N1CCC2C(N)C(C)(C)C21

> <MDLNUMBER>
MFCD32069198

> <IUPAC Name>
tert-butyl 6-amino-7,7-dimethyl-2-azabicyclo[3.2.0]heptane-2-carboxylate

> <CAS>
2375268-07-6

> <Purity>
95

> <URL>
https://www.enaminestore.com/catalog/EN300-7438944

> <ROCS_ShapeQuery>
amalgated

> <ROCS_TanimotoCombo>
0.840 

> <ROCS_ShapeTanimoto>
0.569 

> <ROCS_ColorTanimoto>
0.271 

> <ROCS_RefTversky>
0.537 

> <ROCS_RefColorTversky>
0.517 

> <ROCS_RefTverskyCombo>
1.054 

> <ROCS_FitTversky>
1.117 

> <ROCS_FitColorTversky>
0.362 

> <ROCS_FitTverskyCombo>
1.479 

> <ROCS_ColorScore>
-3.707

> <ROCS_Overlap>
882.945

> <ROCS_Rank>
254                 

$$$$
untitled-dbase-23264_8
  -OEChem-10092318153D

 54 57  0     1  0  0  0  0  0999 V2000
   -7.9936   -0.0447  -10.6831 C   0  0  0  0  0  0  0  0  0  0  0  0
   -9.2986   -0.4697  -10.4399 C   0  0  0  0  0  0  0  0  0  0  0  0
   -7.7015    0.7136  -11.8185 C   0  0  0  0  0  0  0  0  0  0  0  0
  -10.3168   -0.1422  -11.3337 C   0  0  0  0  0  0  0  0  0  0  0  0
   -8.7177    1.0408  -12.7252 C   0  0  0  0  0  0  0  0  0  0  0  0
  -10.0247    0.5986  -12.4838 C   0  0  0  0  0  0  0  0  0  0  0  0
  -10.6513   -1.0244  -16.2188 C   0  0  0  0  0  0  0  0  0  0  0  0
  -11.2337   -0.0569  -15.4953 C   0  0  0  0  0  0  0  0  0  0  0  0
   -8.4085    1.8759  -13.9136 C   0  0  0  0  0  0  0  0  0  0  0  0
   -7.7824   -0.5644  -17.1462 C   0  0  0  0  0  0  0  0  0  0  0  0
  -10.3447   -0.8792  -17.6811 C   0  0  0  0  0  0  0  0  0  0  0  0
  -11.5700   -0.1903  -14.0420 C   0  0  0  0  0  0  0  0  0  0  0  0
   -6.1473    3.0805  -18.7389 C   0  0  0  0  0  0  0  0  0  0  0  0
   -7.2665    2.3300  -19.4441 C   0  0  0  0  0  0  0  0  0  0  0  0
   -5.3610    2.1321  -17.8445 C   0  0  0  0  0  0  0  0  0  0  0  0
   -8.1611    1.5918  -18.4550 C   0  0  0  0  0  0  0  0  0  0  0  0
   -6.6974    2.2944  -15.6859 C   0  0  0  0  0  0  0  0  0  0  0  0
   -8.7745   -2.8900  -17.9715 C   0  0  0  0  0  0  0  0  0  0  0  0
   -8.5948   -1.5200  -19.5184 C   0  0  0  0  0  0  0  0  0  0  0  0
   -6.2537    1.3815  -16.8423 C   0  0  1  0  0  0  0  0  0  0  0  0
   -8.8986   -1.3173  -17.9908 C   0  0  0  0  0  0  0  0  0  0  0  0
   -7.2385    1.5369  -14.5700 N   0  0  0  0  0  0  0  0  0  0  0  0
   -7.9497   -2.8025  -19.1870 N   0  0  0  0  0  0  0  0  0  0  0  0
   -7.4029    0.7434  -17.5255 N   0  0  0  0  0  0  0  0  0  0  0  0
   -9.1726    2.7803  -14.2346 O   0  0  0  0  0  0  0  0  0  0  0  0
   -7.2316   -1.1367  -16.1898 O   0  0  0  0  0  0  0  0  0  0  0  0
  -11.0298    0.9415  -13.3483 O   0  0  0  0  0  0  0  0  0  0  0  0
   -7.2033   -0.2974   -9.9814 H   0  0  0  0  0  0  0  0  0  0  0  0
   -9.5223   -1.0524   -9.5503 H   0  0  0  0  0  0  0  0  0  0  0  0
   -6.6801    1.0398  -11.9625 H   0  0  0  0  0  0  0  0  0  0  0  0
  -11.3276   -0.4653  -11.1143 H   0  0  0  0  0  0  0  0  0  0  0  0
  -10.3345   -1.9430  -15.7317 H   0  0  0  0  0  0  0  0  0  0  0  0
  -11.4244    0.9128  -15.9534 H   0  0  0  0  0  0  0  0  0  0  0  0
  -11.0759   -1.4762  -18.2517 H   0  0  0  0  0  0  0  0  0  0  0  0
  -10.5089    0.1612  -18.0023 H   0  0  0  0  0  0  0  0  0  0  0  0
  -12.6655   -0.1927  -13.9168 H   0  0  0  0  0  0  0  0  0  0  0  0
  -11.1806   -1.1460  -13.6445 H   0  0  0  0  0  0  0  0  0  0  0  0
   -5.4796    3.5316  -19.4791 H   0  0  0  0  0  0  0  0  0  0  0  0
   -6.5658    3.8981  -18.1436 H   0  0  0  0  0  0  0  0  0  0  0  0
   -7.8687    3.0339  -20.0315 H   0  0  0  0  0  0  0  0  0  0  0  0
   -6.8382    1.6107  -20.1548 H   0  0  0  0  0  0  0  0  0  0  0  0
   -4.8453    1.3962  -18.4758 H   0  0  0  0  0  0  0  0  0  0  0  0
   -4.5774    2.6879  -17.3158 H   0  0  0  0  0  0  0  0  0  0  0  0
   -8.7295    2.3108  -17.8473 H   0  0  0  0  0  0  0  0  0  0  0  0
   -8.9062    1.0219  -19.0112 H   0  0  0  0  0  0  0  0  0  0  0  0
   -5.8421    2.8612  -15.3161 H   0  0  0  0  0  0  0  0  0  0  0  0
   -7.4609    3.0049  -15.9954 H   0  0  0  0  0  0  0  0  0  0  0  0
   -8.2309   -3.2970  -17.1121 H   0  0  0  0  0  0  0  0  0  0  0  0
   -9.7004   -3.4565  -18.0925 H   0  0  0  0  0  0  0  0  0  0  0  0
   -9.4575   -1.6193  -20.1786 H   0  0  0  0  0  0  0  0  0  0  0  0
   -7.9076   -0.7817  -19.9423 H   0  0  0  0  0  0  0  0  0  0  0  0
   -5.6238    0.5922  -16.4057 H   0  0  0  0  0  0  0  0  0  0  0  0
   -6.7275    0.7102  -14.2537 H   0  0  0  0  0  0  0  0  0  0  0  0
   -6.9474   -2.7494  -19.0243 H   0  0  0  0  0  0  0  0  0  0  0  0
  1  2  2  0  0  0  0
  1  3  1  0  0  0  0
  2  4  1  0  0  0  0
  3  5  2  0  0  0  0
  4  6  2  0  0  0  0
  5  6  1  0  0  0  0
  5  9  1  0  0  0  0
  6 27  1  0  0  0  0
  7  8  2  0  0  0  0
  7 11  1  0  0  0  0
  8 12  1  0  0  0  0
  9 22  1  0  0  0  0
  9 25  2  0  0  0  0
 10 21  1  0  0  0  0
 10 24  1  0  0  0  0
 10 26  2  0  0  0  0
 11 21  1  0  0  0  0
 12 27  1  0  0  0  0
 13 14  1  0  0  0  0
 13 15  1  0  0  0  0
 14 16  1  0  0  0  0
 15 20  1  0  0  0  0
 16 24  1  0  0  0  0
 17 20  1  0  0  0  0
 17 22  1  0  0  0  0
 18 21  1  0  0  0  0
 18 23  1  0  0  0  0
 19 21  1  0  0  0  0
 19 23  1  0  0  0  0
 20 24  1  0  0  0  0
  1 28  1  0  0  0  0
  2 29  1  0  0  0  0
  3 30  1  0  0  0  0
  4 31  1  0  0  0  0
  7 32  1  0  0  0  0
  8 33  1  0  0  0  0
 11 34  1  0  0  0  0
 11 35  1  0  0  0  0
 12 36  1  0  0  0  0
 12 37  1  0  0  0  0
 13 38  1  0  0  0  0
 13 39  1  0  0  0  0
 14 40  1  0  0  0  0
 14 41  1  0  0  0  0
 15 42  1  0  0  0  0
 15 43  1  0  0  0  0
 16 44  1  0  0  0  0
 16 45  1  0  0  0  0
 17 46  1  0  0  0  0
 17 47  1  0  0  0  0
 18 48  1  0  0  0  0
 18 49  1  0  0  0  0
 19 50  1  0  0  0  0
 19 51  1  0  0  0  0
 20 52  1  0  0  0  0
 22 53  1  0  0  0  0
 23 54  1  0  0  0  0
M  END
> <id>
EN300-6477914

> <smiles>
OC(=O)C(F)(F)F.O=C1NCC2CCCCN2C(=O)C3(CNC3)C/C=C/COC=4C=CC=CC14

> <MDLNUMBER>
MFCD31667275

> <IUPAC Name>
(14'E)-17'-oxa-3',10'-diazaspiro[azetidine-3,12'-tricyclo[16.4.0.0,5,10]docosane]-1'(18'),14',19',21'-tetraene-2',11'-dione; trifluoroacetic acid

> <Purity>
95

> <URL>
https://www.enaminestore.com/catalog/EN300-6477914

> <Saltdate>
OC(=O)C(F)(F)F

> <ROCS_ShapeQuery>
amalgated

> <ROCS_TanimotoCombo>
0.840 

> <ROCS_ShapeTanimoto>
0.563 

> <ROCS_ColorTanimoto>
0.277 

> <ROCS_RefTversky>
0.626 

> <ROCS_RefColorTversky>
0.488 

> <ROCS_RefTverskyCombo>
1.115 

> <ROCS_FitTversky>
0.848 

> <ROCS_FitColorTversky>
0.390 

> <ROCS_FitTverskyCombo>
1.238 

> <ROCS_ColorScore>
-3.467

> <ROCS_Overlap>
1043.404

> <ROCS_Rank>
255                 

$$$$
untitled-dbase-20459_113
  -OEChem-10092318153D

 37 37  0     1  0  0  0  0  0999 V2000
   -8.8192    0.0728  -15.0465 C   0  0  0  0  0  0  0  0  0  0  0  0
   -9.3766   -2.9572  -16.3217 C   0  0  0  0  0  0  0  0  0  0  0  0
   -9.9655   -2.3006  -17.5756 C   0  0  0  0  0  0  0  0  0  0  0  0
   -8.3740   -0.4201  -18.3098 C   0  0  0  0  0  0  0  0  0  0  0  0
   -8.1788   -2.2763  -15.6649 C   0  0  0  0  0  0  0  0  0  0  0  0
   -7.4712   -0.3636  -17.0799 C   0  0  0  0  0  0  0  0  0  0  0  0
   -8.9952   -1.7856  -18.6519 C   0  0  1  0  0  0  0  0  0  0  0  0
   -9.3810    1.3054  -12.5267 C   0  0  0  0  0  0  0  0  0  0  0  0
  -10.0537   -0.9908  -11.7622 C   0  0  0  0  0  0  0  0  0  0  0  0
   -7.6887   -0.5573  -12.4882 C   0  0  0  0  0  0  0  0  0  0  0  0
   -9.1568   -0.1952  -12.7081 C   0  0  0  0  0  0  0  0  0  0  0  0
   -8.1417   -0.8323  -15.8708 N   0  0  0  0  0  0  0  0  0  0  0  0
   -7.9838   -2.7725  -19.0241 N   0  0  0  0  0  0  0  0  0  0  0  0
   -8.8042    1.2928  -15.1983 O   0  0  0  0  0  0  0  0  0  0  0  0
   -9.5186   -0.5513  -14.0471 O   0  0  0  0  0  0  0  0  0  0  0  0
  -10.1797   -3.1124  -15.5696 H   0  0  0  0  0  0  0  0  0  0  0  0
   -9.0599   -3.9873  -16.5895 H   0  0  0  0  0  0  0  0  0  0  0  0
  -10.7298   -2.9827  -18.0352 H   0  0  0  0  0  0  0  0  0  0  0  0
  -10.5768   -1.4302  -17.2233 H   0  0  0  0  0  0  0  0  0  0  0  0
   -9.1984    0.3048  -18.1540 H   0  0  0  0  0  0  0  0  0  0  0  0
   -7.8204   -0.0245  -19.1862 H   0  0  0  0  0  0  0  0  0  0  0  0
   -8.2026   -2.4494  -14.5912 H   0  0  0  0  0  0  0  0  0  0  0  0
   -7.2629   -2.7166  -16.0514 H   0  0  0  0  0  0  0  0  0  0  0  0
   -6.5870   -0.9945  -17.2653 H   0  0  0  0  0  0  0  0  0  0  0  0
   -7.0769    0.6520  -16.9092 H   0  0  0  0  0  0  0  0  0  0  0  0
   -9.6239   -1.6127  -19.5859 H   0  0  0  0  0  0  0  0  0  0  0  0
   -8.7390    1.8800  -13.2039 H   0  0  0  0  0  0  0  0  0  0  0  0
  -10.4229    1.5834  -12.7158 H   0  0  0  0  0  0  0  0  0  0  0  0
   -9.1179    1.6199  -11.5103 H   0  0  0  0  0  0  0  0  0  0  0  0
   -9.8961   -2.0680  -11.8890 H   0  0  0  0  0  0  0  0  0  0  0  0
  -11.1118   -0.8058  -11.9798 H   0  0  0  0  0  0  0  0  0  0  0  0
   -9.8650   -0.7337  -10.7149 H   0  0  0  0  0  0  0  0  0  0  0  0
   -7.5277   -1.6335  -12.6183 H   0  0  0  0  0  0  0  0  0  0  0  0
   -7.0331   -0.0232  -13.1836 H   0  0  0  0  0  0  0  0  0  0  0  0
   -7.3779   -0.3197  -11.4644 H   0  0  0  0  0  0  0  0  0  0  0  0
   -8.4543   -3.5951  -19.3109 H   0  0  0  0  0  0  0  0  0  0  0  0
   -7.4480   -2.3918  -19.7646 H   0  0  0  0  0  0  0  0  0  0  0  0
  1 12  1  0  0  0  0
  1 14  2  0  0  0  0
  1 15  1  0  0  0  0
  2  3  1  0  0  0  0
  2  5  1  0  0  0  0
  3  7  1  0  0  0  0
  4  6  1  0  0  0  0
  4  7  1  0  0  0  0
  5 12  1  0  0  0  0
  6 12  1  0  0  0  0
  7 13  1  0  0  0  0
  8 11  1  0  0  0  0
  9 11  1  0  0  0  0
 10 11  1  0  0  0  0
 11 15  1  0  0  0  0
  2 16  1  0  0  0  0
  2 17  1  0  0  0  0
  3 18  1  0  0  0  0
  3 19  1  0  0  0  0
  4 20  1  0  0  0  0
  4 21  1  0  0  0  0
  5 22  1  0  0  0  0
  5 23  1  0  0  0  0
  6 24  1  0  0  0  0
  6 25  1  0  0  0  0
  7 26  1  0  0  0  0
  8 27  1  0  0  0  0
  8 28  1  0  0  0  0
  8 29  1  0  0  0  0
  9 30  1  0  0  0  0
  9 31  1  0  0  0  0
  9 32  1  0  0  0  0
 10 33  1  0  0  0  0
 10 34  1  0  0  0  0
 10 35  1  0  0  0  0
 13 36  1  0  0  0  0
 13 37  1  0  0  0  0
M  END
> <id>
EN300-154247

> <smiles>
CC(C)(C)OC(=O)N1CCCC(N)CC1

> <MDLNUMBER>
MFCD07371372

> <IUPAC Name>
tert-butyl 4-aminoazepane-1-carboxylate

> <CAS>
196613-57-7

> <Purity>
95

> <URL>
https://www.enaminestore.com/catalog/EN300-154247

> <ROCS_ShapeQuery>
amalgated

> <ROCS_TanimotoCombo>
0.840 

> <ROCS_ShapeTanimoto>
0.509 

> <ROCS_ColorTanimoto>
0.331 

> <ROCS_RefTversky>
0.478 

> <ROCS_RefColorTversky>
0.432 

> <ROCS_RefTverskyCombo>
0.910 

> <ROCS_FitTversky>
1.144 

> <ROCS_FitColorTversky>
0.585 

> <ROCS_FitTverskyCombo>
1.729 

> <ROCS_ColorScore>
-2.983

> <ROCS_Overlap>
782.797

> <ROCS_Rank>
256                 

$$$$
untitled-dbase-34228_77
  -OEChem-10092318153D

 41 42  0     1  0  0  0  0  0999 V2000
   -8.1337   -0.5999  -14.1835 C   0  0  0  0  0  0  0  0  0  0  0  0
   -9.1401   -3.2121  -18.2346 C   0  0  0  0  0  0  0  0  0  0  0  0
   -7.4279   -1.5804  -18.3665 C   0  0  0  0  0  0  0  0  0  0  0  0
   -8.9700   -2.2212  -15.8821 C   0  0  0  0  0  0  0  0  0  0  0  0
   -8.4020    0.0070  -16.6198 C   0  0  0  0  0  0  0  0  0  0  0  0
   -9.5200   -2.0413  -17.3152 C   0  0  1  0  0  0  0  0  0  0  0  0
   -8.6812   -0.8565  -17.8518 C   0  0  2  0  0  0  0  0  0  0  0  0
  -11.0327   -1.8140  -17.2676 C   0  0  0  0  0  0  0  0  0  0  0  0
   -9.3365   -0.0405  -18.9717 C   0  0  0  0  0  0  0  0  0  0  0  0
   -9.8682    0.6115  -12.2618 C   0  0  0  0  0  0  0  0  0  0  0  0
   -9.9237   -1.6460  -11.1618 C   0  0  0  0  0  0  0  0  0  0  0  0
   -7.7510   -0.4004  -11.3519 C   0  0  0  0  0  0  0  0  0  0  0  0
   -9.0981   -0.6849  -12.0145 C   0  0  0  0  0  0  0  0  0  0  0  0
   -7.9531   -2.7938  -18.9915 N   0  0  0  0  0  0  0  0  0  0  0  0
   -8.4811   -0.9085  -15.4884 N   0  0  0  0  0  0  0  0  0  0  0  0
   -7.2738    0.2217  -13.8737 O   0  0  0  0  0  0  0  0  0  0  0  0
   -8.8608   -1.3215  -13.2749 O   0  0  0  0  0  0  0  0  0  0  0  0
   -8.9260   -4.1377  -17.6857 H   0  0  0  0  0  0  0  0  0  0  0  0
   -9.9388   -3.4471  -18.9503 H   0  0  0  0  0  0  0  0  0  0  0  0
   -6.8907   -0.9809  -19.1141 H   0  0  0  0  0  0  0  0  0  0  0  0
   -6.7227   -1.8212  -17.5613 H   0  0  0  0  0  0  0  0  0  0  0  0
   -9.7614   -2.4861  -15.1761 H   0  0  0  0  0  0  0  0  0  0  0  0
   -8.1776   -2.9675  -15.8086 H   0  0  0  0  0  0  0  0  0  0  0  0
   -7.4172    0.4819  -16.6039 H   0  0  0  0  0  0  0  0  0  0  0  0
   -9.1437    0.7980  -16.4708 H   0  0  0  0  0  0  0  0  0  0  0  0
  -11.2547   -0.9793  -16.6077 H   0  0  0  0  0  0  0  0  0  0  0  0
  -11.5235   -2.7092  -16.8945 H   0  0  0  0  0  0  0  0  0  0  0  0
  -11.3988   -1.5915  -18.2667 H   0  0  0  0  0  0  0  0  0  0  0  0
  -10.2214    0.4646  -18.5893 H   0  0  0  0  0  0  0  0  0  0  0  0
   -9.6258   -0.7008  -19.7869 H   0  0  0  0  0  0  0  0  0  0  0  0
   -8.6339    0.7022  -19.3450 H   0  0  0  0  0  0  0  0  0  0  0  0
   -9.2790    1.3040  -12.8735 H   0  0  0  0  0  0  0  0  0  0  0  0
  -10.8208    0.4245  -12.7681 H   0  0  0  0  0  0  0  0  0  0  0  0
  -10.0737    1.1303  -11.3185 H   0  0  0  0  0  0  0  0  0  0  0  0
   -9.3750   -2.5776  -10.9818 H   0  0  0  0  0  0  0  0  0  0  0  0
  -10.8494   -1.9276  -11.6765 H   0  0  0  0  0  0  0  0  0  0  0  0
  -10.1851   -1.2052  -10.1944 H   0  0  0  0  0  0  0  0  0  0  0  0
   -7.1984   -1.3302  -11.1743 H   0  0  0  0  0  0  0  0  0  0  0  0
   -7.1300    0.2585  -11.9673 H   0  0  0  0  0  0  0  0  0  0  0  0
   -7.8904    0.0685  -10.3711 H   0  0  0  0  0  0  0  0  0  0  0  0
   -7.2498   -3.5370  -18.9366 H   0  0  0  0  0  0  0  0  0  0  0  0
  1 15  1  0  0  0  0
  1 16  2  0  0  0  0
  1 17  1  0  0  0  0
  2  6  1  0  0  0  0
  2 14  1  0  0  0  0
  3  7  1  0  0  0  0
  3 14  1  0  0  0  0
  4  6  1  0  0  0  0
  4 15  1  0  0  0  0
  5  7  1  0  0  0  0
  5 15  1  0  0  0  0
  6  7  1  0  0  0  0
  6  8  1  1  0  0  0
  7  9  1  1  0  0  0
 10 13  1  0  0  0  0
 11 13  1  0  0  0  0
 12 13  1  0  0  0  0
 13 17  1  0  0  0  0
  2 18  1  0  0  0  0
  2 19  1  0  0  0  0
  3 20  1  0  0  0  0
  3 21  1  0  0  0  0
  4 22  1  0  0  0  0
  4 23  1  0  0  0  0
  5 24  1  0  0  0  0
  5 25  1  0  0  0  0
  8 26  1  0  0  0  0
  8 27  1  0  0  0  0
  8 28  1  0  0  0  0
  9 29  1  0  0  0  0
  9 30  1  0  0  0  0
  9 31  1  0  0  0  0
 10 32  1  0  0  0  0
 10 33  1  0  0  0  0
 10 34  1  0  0  0  0
 11 35  1  0  0  0  0
 11 36  1  0  0  0  0
 11 37  1  0  0  0  0
 12 38  1  0  0  0  0
 12 39  1  0  0  0  0
 12 40  1  0  0  0  0
 14 41  1  0  0  0  0
M  END
> <id>
EN300-322693

> <smiles>
CC(C)(C)OC(=O)N1C[C@]2(C)CNC[C@]2(C)C1

> <MDLNUMBER>
MFCD22394089

> <IUPAC Name>
tert-butyl (3aR,6aS)-3a,6a-dimethyl-octahydropyrrolo[3,4-c]pyrrole-2-carboxylate

> <CAS>
2035072-26-3

> <Purity>
80

> <URL>
https://www.enaminestore.com/catalog/EN300-322693

> <ROCS_ShapeQuery>
amalgated

> <ROCS_TanimotoCombo>
0.840 

> <ROCS_ShapeTanimoto>
0.554 

> <ROCS_ColorTanimoto>
0.285 

> <ROCS_RefTversky>
0.530 

> <ROCS_RefColorTversky>
0.418 

> <ROCS_RefTverskyCombo>
0.947 

> <ROCS_FitTversky>
1.091 

> <ROCS_FitColorTversky>
0.474 

> <ROCS_FitTverskyCombo>
1.565 

> <ROCS_ColorScore>
-2.905

> <ROCS_Overlap>
870.341

> <ROCS_Rank>
257                 

$$$$
untitled-dbase-9277_71
  -OEChem-10092318153D

 41 42  0     1  0  0  0  0  0999 V2000
   -8.1284   -0.5980  -14.1839 C   0  0  0  0  0  0  0  0  0  0  0  0
   -9.1470   -3.2053  -18.2346 C   0  0  0  0  0  0  0  0  0  0  0  0
   -7.4270   -1.5818  -18.3649 C   0  0  0  0  0  0  0  0  0  0  0  0
   -8.9742   -2.2149  -15.8820 C   0  0  0  0  0  0  0  0  0  0  0  0
   -8.3955    0.0106  -16.6198 C   0  0  0  0  0  0  0  0  0  0  0  0
   -9.5223   -2.0326  -17.3157 C   0  0  1  0  0  0  0  0  0  0  0  0
   -8.6775   -0.8519  -17.8518 C   0  0  2  0  0  0  0  0  0  0  0  0
  -11.0339   -1.7984  -17.2694 C   0  0  0  0  0  0  0  0  0  0  0  0
   -9.3277   -0.0332  -18.9726 C   0  0  0  0  0  0  0  0  0  0  0  0
   -9.8557    0.6221  -12.2612 C   0  0  0  0  0  0  0  0  0  0  0  0
   -9.9211   -1.6349  -11.1608 C   0  0  0  0  0  0  0  0  0  0  0  0
   -7.7427   -0.3997  -11.3526 C   0  0  0  0  0  0  0  0  0  0  0  0
   -9.0917   -0.6779  -12.0142 C   0  0  0  0  0  0  0  0  0  0  0  0
   -7.9574   -2.7925  -18.9906 N   0  0  0  0  0  0  0  0  0  0  0  0
   -8.4788   -0.9045  -15.4884 N   0  0  0  0  0  0  0  0  0  0  0  0
   -7.2644    0.2196  -13.8750 O   0  0  0  0  0  0  0  0  0  0  0  0
   -8.8583   -1.3158  -13.2747 O   0  0  0  0  0  0  0  0  0  0  0  0
   -8.9473   -4.1365  -17.6667 H   0  0  0  0  0  0  0  0  0  0  0  0
   -9.9660   -3.4461  -18.9438 H   0  0  0  0  0  0  0  0  0  0  0  0
   -6.8980   -1.0037  -19.1179 H   0  0  0  0  0  0  0  0  0  0  0  0
   -6.7266   -1.8380  -17.5764 H   0  0  0  0  0  0  0  0  0  0  0  0
   -9.7456   -2.5208  -15.1694 H   0  0  0  0  0  0  0  0  0  0  0  0
   -8.1540   -2.9320  -15.7989 H   0  0  0  0  0  0  0  0  0  0  0  0
   -7.4245    0.5090  -16.6384 H   0  0  0  0  0  0  0  0  0  0  0  0
   -9.1687    0.7681  -16.4624 H   0  0  0  0  0  0  0  0  0  0  0  0
  -11.2565   -0.9620  -16.6097 H   0  0  0  0  0  0  0  0  0  0  0  0
  -11.5330   -2.6907  -16.8964 H   0  0  0  0  0  0  0  0  0  0  0  0
  -11.4020   -1.5737  -18.2687 H   0  0  0  0  0  0  0  0  0  0  0  0
  -10.2091    0.4741  -18.5885 H   0  0  0  0  0  0  0  0  0  0  0  0
   -9.6177   -0.6946  -19.7851 H   0  0  0  0  0  0  0  0  0  0  0  0
   -8.6197    0.7040  -19.3425 H   0  0  0  0  0  0  0  0  0  0  0  0
   -9.2637    1.3117  -12.8735 H   0  0  0  0  0  0  0  0  0  0  0  0
  -10.8096    0.4395  -12.7668 H   0  0  0  0  0  0  0  0  0  0  0  0
  -10.0580    1.1421  -11.3179 H   0  0  0  0  0  0  0  0  0  0  0  0
   -9.3768   -2.5690  -10.9810 H   0  0  0  0  0  0  0  0  0  0  0  0
  -10.8486   -1.9122  -11.6747 H   0  0  0  0  0  0  0  0  0  0  0  0
  -10.1798   -1.1926  -10.1933 H   0  0  0  0  0  0  0  0  0  0  0  0
   -7.1944   -1.3320  -11.1753 H   0  0  0  0  0  0  0  0  0  0  0  0
   -7.1190    0.2562  -11.9686 H   0  0  0  0  0  0  0  0  0  0  0  0
   -7.8792    0.0701  -10.3718 H   0  0  0  0  0  0  0  0  0  0  0  0
   -7.2507   -3.5324  -18.9354 H   0  0  0  0  0  0  0  0  0  0  0  0
  1 15  1  0  0  0  0
  1 16  2  0  0  0  0
  1 17  1  0  0  0  0
  2  6  1  0  0  0  0
  2 14  1  0  0  0  0
  3  7  1  0  0  0  0
  3 14  1  0  0  0  0
  4  6  1  0  0  0  0
  4 15  1  0  0  0  0
  5  7  1  0  0  0  0
  5 15  1  0  0  0  0
  6  7  1  0  0  0  0
  6  8  1  0  0  0  0
  7  9  1  0  0  0  0
 10 13  1  0  0  0  0
 11 13  1  0  0  0  0
 12 13  1  0  0  0  0
 13 17  1  0  0  0  0
  2 18  1  0  0  0  0
  2 19  1  0  0  0  0
  3 20  1  0  0  0  0
  3 21  1  0  0  0  0
  4 22  1  0  0  0  0
  4 23  1  0  0  0  0
  5 24  1  0  0  0  0
  5 25  1  0  0  0  0
  8 26  1  0  0  0  0
  8 27  1  0  0  0  0
  8 28  1  0  0  0  0
  9 29  1  0  0  0  0
  9 30  1  0  0  0  0
  9 31  1  0  0  0  0
 10 32  1  0  0  0  0
 10 33  1  0  0  0  0
 10 34  1  0  0  0  0
 11 35  1  0  0  0  0
 11 36  1  0  0  0  0
 11 37  1  0  0  0  0
 12 38  1  0  0  0  0
 12 39  1  0  0  0  0
 12 40  1  0  0  0  0
 14 41  1  0  0  0  0
M  END
> <id>
EN300-316183

> <smiles>
CC(C)(C)OC(=O)N1CC2(C)CNCC2(C)C1

> <MDLNUMBER>
MFCD24533743

> <IUPAC Name>
tert-butyl 3a,6a-dimethyl-octahydropyrrolo[3,4-c]pyrrole-2-carboxylate

> <CAS>
1824512-76-6

> <URL>
https://www.enaminestore.com/catalog/EN300-316183

> <ROCS_ShapeQuery>
amalgated

> <ROCS_TanimotoCombo>
0.840 

> <ROCS_ShapeTanimoto>
0.554 

> <ROCS_ColorTanimoto>
0.285 

> <ROCS_RefTversky>
0.530 

> <ROCS_RefColorTversky>
0.418 

> <ROCS_RefTverskyCombo>
0.947 

> <ROCS_FitTversky>
1.091 

> <ROCS_FitColorTversky>
0.474 

> <ROCS_FitTverskyCombo>
1.565 

> <ROCS_ColorScore>
-2.905

> <ROCS_Overlap>
870.312

> <ROCS_Rank>
258                 

$$$$
untitled-dbase-43981_41
  -OEChem-10092318153D

 38 39  0     1  0  0  0  0  0999 V2000
   -9.1348   -1.0451  -13.9845 C   0  0  0  0  0  0  0  0  0  0  0  0
   -7.7906    0.6557  -16.9328 C   0  0  0  0  0  0  0  0  0  0  0  0
   -9.0831   -2.7898  -16.5829 C   0  0  0  0  0  0  0  0  0  0  0  0
   -7.5512    0.1955  -15.5057 C   0  0  0  0  0  0  0  0  0  0  0  0
   -9.1067   -3.2403  -18.0417 C   0  0  0  0  0  0  0  0  0  0  0  0
   -7.4143   -1.4742  -18.2805 C   0  0  0  0  0  0  0  0  0  0  0  0
   -8.4412   -0.5509  -17.6172 C   0  0  1  0  0  0  0  0  0  0  0  0
   -9.2039   -1.2647  -16.4834 C   0  0  2  0  0  0  0  0  0  0  0  0
   -9.7286   -1.3897  -11.2092 C   0  0  0  0  0  0  0  0  0  0  0  0
   -8.3295    0.6642  -10.8440 C   0  0  0  0  0  0  0  0  0  0  0  0
  -10.4255    0.8072  -12.2203 C   0  0  0  0  0  0  0  0  0  0  0  0
   -9.2443   -0.0748  -11.8183 C   0  0  0  0  0  0  0  0  0  0  0  0
   -8.0416   -2.6614  -18.8619 N   0  0  0  0  0  0  0  0  0  0  0  0
   -8.6380   -0.7354  -15.2424 N   0  0  0  0  0  0  0  0  0  0  0  0
  -10.0540   -1.8342  -13.7777 O   0  0  0  0  0  0  0  0  0  0  0  0
   -8.4767   -0.3710  -12.9905 O   0  0  0  0  0  0  0  0  0  0  0  0
   -8.4363    1.5474  -16.9745 H   0  0  0  0  0  0  0  0  0  0  0  0
   -6.8328    0.9263  -17.4074 H   0  0  0  0  0  0  0  0  0  0  0  0
   -9.9006   -3.2656  -16.0385 H   0  0  0  0  0  0  0  0  0  0  0  0
   -8.1511   -3.1322  -16.1249 H   0  0  0  0  0  0  0  0  0  0  0  0
   -6.5833   -0.2934  -15.3722 H   0  0  0  0  0  0  0  0  0  0  0  0
   -7.6360    1.0225  -14.7941 H   0  0  0  0  0  0  0  0  0  0  0  0
   -9.0171   -4.3455  -18.0806 H   0  0  0  0  0  0  0  0  0  0  0  0
  -10.0969   -3.0211  -18.4968 H   0  0  0  0  0  0  0  0  0  0  0  0
   -6.8868   -0.9287  -19.0645 H   0  0  0  0  0  0  0  0  0  0  0  0
   -6.6688   -1.7854  -17.5491 H   0  0  0  0  0  0  0  0  0  0  0  0
   -9.1305   -0.2065  -18.3698 H   0  0  0  0  0  0  0  0  0  0  0  0
  -10.2865   -0.9959  -16.5330 H   0  0  0  0  0  0  0  0  0  0  0  0
  -10.3855   -1.9231  -11.9055 H   0  0  0  0  0  0  0  0  0  0  0  0
   -8.8918   -2.0460  -10.9486 H   0  0  0  0  0  0  0  0  0  0  0  0
  -10.3199   -1.2072  -10.3046 H   0  0  0  0  0  0  0  0  0  0  0  0
   -7.9796    1.6083  -11.2770 H   0  0  0  0  0  0  0  0  0  0  0  0
   -7.4324    0.0732  -10.6263 H   0  0  0  0  0  0  0  0  0  0  0  0
   -8.8379    0.8833   -9.8995 H   0  0  0  0  0  0  0  0  0  0  0  0
  -10.0784    1.7505  -12.6573 H   0  0  0  0  0  0  0  0  0  0  0  0
  -11.0731    0.3070  -12.9477 H   0  0  0  0  0  0  0  0  0  0  0  0
  -11.0275    1.0752  -11.3445 H   0  0  0  0  0  0  0  0  0  0  0  0
   -7.3177   -3.3805  -19.0279 H   0  0  0  0  0  0  0  0  0  0  0  0
  1 14  1  0  0  0  0
  1 15  2  0  0  0  0
  1 16  1  0  0  0  0
  2  4  1  0  0  0  0
  2  7  1  0  0  0  0
  3  5  1  0  0  0  0
  3  8  1  0  0  0  0
  4 14  1  0  0  0  0
  5 13  1  0  0  0  0
  6  7  1  0  0  0  0
  6 13  1  0  0  0  0
  7  8  1  0  0  0  0
  8 14  1  0  0  0  0
  9 12  1  0  0  0  0
 10 12  1  0  0  0  0
 11 12  1  0  0  0  0
 12 16  1  0  0  0  0
  2 17  1  0  0  0  0
  2 18  1  0  0  0  0
  3 19  1  0  0  0  0
  3 20  1  0  0  0  0
  4 21  1  0  0  0  0
  4 22  1  0  0  0  0
  5 23  1  0  0  0  0
  5 24  1  0  0  0  0
  6 25  1  0  0  0  0
  6 26  1  0  0  0  0
  7 27  1  0  0  0  0
  8 28  1  0  0  0  0
  9 29  1  0  0  0  0
  9 30  1  0  0  0  0
  9 31  1  0  0  0  0
 10 32  1  0  0  0  0
 10 33  1  0  0  0  0
 10 34  1  0  0  0  0
 11 35  1  0  0  0  0
 11 36  1  0  0  0  0
 11 37  1  0  0  0  0
 13 38  1  0  0  0  0
M  END
> <id>
EN300-90568

> <smiles>
CC(C)(C)OC(=O)N1CCC2CNCCC21

> <MDLNUMBER>
MFCD11877862

> <IUPAC Name>
tert-butyl octahydro-1H-pyrrolo[3,2-c]pyridine-1-carboxylate

> <CAS>
1147422-00-1

> <URL>
https://www.enaminestore.com/catalog/EN300-90568

> <MP>
38-40

> <ROCS_ShapeQuery>
amalgated

> <ROCS_TanimotoCombo>
0.839 

> <ROCS_ShapeTanimoto>
0.575 

> <ROCS_ColorTanimoto>
0.265 

> <ROCS_RefTversky>
0.532 

> <ROCS_RefColorTversky>
0.392 

> <ROCS_RefTverskyCombo>
0.924 

> <ROCS_FitTversky>
1.163 

> <ROCS_FitColorTversky>
0.448 

> <ROCS_FitTverskyCombo>
1.612 

> <ROCS_ColorScore>
-2.726

> <ROCS_Overlap>
872.874

> <ROCS_Rank>
259                 

$$$$
untitled-dbase-7389_7
  -OEChem-10092318153D

 33 35  0     0  0  0  0  0  0999 V2000
   -8.3587   -0.5049  -16.5450 C   0  0  0  0  0  0  0  0  0  0  0  0
   -9.2164   -1.3950  -15.9330 C   0  0  0  0  0  0  0  0  0  0  0  0
   -8.3011   -2.1160  -18.0269 C   0  0  0  0  0  0  0  0  0  0  0  0
   -7.9856    0.8045  -15.9487 C   0  0  0  0  0  0  0  0  0  0  0  0
   -9.9308   -1.1649  -14.6432 C   0  0  0  0  0  0  0  0  0  0  0  0
   -8.8833    1.1596  -14.7470 C   0  0  0  0  0  0  0  0  0  0  0  0
   -8.7482   -0.1915  -10.7820 C   0  0  0  0  0  0  0  0  0  0  0  0
  -10.1302   -0.3240  -11.4227 C   0  0  0  0  0  0  0  0  0  0  0  0
   -7.6322    0.0450  -11.8001 C   0  0  0  0  0  0  0  0  0  0  0  0
  -10.2197    0.4744  -12.7183 C   0  0  0  0  0  0  0  0  0  0  0  0
   -7.9449   -0.6230  -13.1356 C   0  0  0  0  0  0  0  0  0  0  0  0
   -9.2298   -0.0432  -13.8048 C   0  0  0  0  0  0  0  0  0  0  0  0
   -7.8269   -0.9204  -17.7481 N   0  0  0  0  0  0  0  0  0  0  0  0
   -7.9858   -2.8233  -19.1445 N   0  0  0  0  0  0  0  0  0  0  0  0
   -9.3867   -2.7982  -16.8814 S   0  0  0  0  0  0  0  0  0  0  0  0
   -6.9363    0.7871  -15.6265 H   0  0  0  0  0  0  0  0  0  0  0  0
   -8.0697    1.5837  -16.7178 H   0  0  0  0  0  0  0  0  0  0  0  0
  -10.9832   -0.9292  -14.8263 H   0  0  0  0  0  0  0  0  0  0  0  0
   -9.9097   -2.1070  -14.0802 H   0  0  0  0  0  0  0  0  0  0  0  0
   -8.3736    1.9345  -14.1509 H   0  0  0  0  0  0  0  0  0  0  0  0
   -9.8052    1.6296  -15.1228 H   0  0  0  0  0  0  0  0  0  0  0  0
   -8.7630    0.6427  -10.0618 H   0  0  0  0  0  0  0  0  0  0  0  0
   -8.5264   -1.0968  -10.1961 H   0  0  0  0  0  0  0  0  0  0  0  0
  -10.3465   -1.3786  -11.6092 H   0  0  0  0  0  0  0  0  0  0  0  0
  -10.8877    0.0333  -10.7199 H   0  0  0  0  0  0  0  0  0  0  0  0
   -7.5041    1.1229  -11.9513 H   0  0  0  0  0  0  0  0  0  0  0  0
   -6.6834   -0.3310  -11.4007 H   0  0  0  0  0  0  0  0  0  0  0  0
  -11.2476    0.4443  -13.0766 H   0  0  0  0  0  0  0  0  0  0  0  0
   -9.9873    1.5181  -12.4967 H   0  0  0  0  0  0  0  0  0  0  0  0
   -7.0931   -0.4773  -13.8057 H   0  0  0  0  0  0  0  0  0  0  0  0
   -8.0510   -1.6996  -12.9876 H   0  0  0  0  0  0  0  0  0  0  0  0
   -8.3419   -3.7725  -19.2995 H   0  0  0  0  0  0  0  0  0  0  0  0
   -7.3064   -2.4739  -19.8288 H   0  0  0  0  0  0  0  0  0  0  0  0
  1  2  2  0  0  0  0
  1  4  1  0  0  0  0
  1 13  1  0  0  0  0
  2  5  1  0  0  0  0
  2 15  1  0  0  0  0
  3 13  2  0  0  0  0
  3 14  1  0  0  0  0
  3 15  1  0  0  0  0
  4  6  1  0  0  0  0
  5 12  1  0  0  0  0
  6 12  1  0  0  0  0
  7  8  1  0  0  0  0
  7  9  1  0  0  0  0
  8 10  1  0  0  0  0
  9 11  1  0  0  0  0
 10 12  1  0  0  0  0
 11 12  1  0  0  0  0
  4 16  1  0  0  0  0
  4 17  1  0  0  0  0
  5 18  1  0  0  0  0
  5 19  1  0  0  0  0
  6 20  1  0  0  0  0
  6 21  1  0  0  0  0
  7 22  1  0  0  0  0
  7 23  1  0  0  0  0
  8 24  1  0  0  0  0
  8 25  1  0  0  0  0
  9 26  1  0  0  0  0
  9 27  1  0  0  0  0
 10 28  1  0  0  0  0
 10 29  1  0  0  0  0
 11 30  1  0  0  0  0
 11 31  1  0  0  0  0
 14 32  1  0  0  0  0
 14 33  1  0  0  0  0
M  END
> <id>
EN300-247650

> <smiles>
Cl.NC1=NC=2CCC3(CCCCC3)CC2S1

> <MDLNUMBER>
MFCD29047349

> <IUPAC Name>
5,7-dihydro-4H-spiro[1,3-benzothiazole-6,1'-cyclohexane]-2-amine hydrochloride

> <CAS>
1909306-54-2

> <Purity>
95

> <URL>
https://www.enaminestore.com/catalog/EN300-247650

> <Saltdate>
Cl

> <ROCS_ShapeQuery>
amalgated

> <ROCS_TanimotoCombo>
0.839 

> <ROCS_ShapeTanimoto>
0.546 

> <ROCS_ColorTanimoto>
0.293 

> <ROCS_RefTversky>
0.504 

> <ROCS_RefColorTversky>
0.424 

> <ROCS_RefTverskyCombo>
0.928 

> <ROCS_FitTversky>
1.181 

> <ROCS_FitColorTversky>
0.486 

> <ROCS_FitTverskyCombo>
1.667 

> <ROCS_ColorScore>
-2.949

> <ROCS_Overlap>
825.805

> <ROCS_Rank>
260                 

$$$$
untitled-dbase-53387_7
  -OEChem-10092318153D

 33 35  0     0  0  0  0  0  0999 V2000
   -8.3587   -0.5049  -16.5450 C   0  0  0  0  0  0  0  0  0  0  0  0
   -9.2164   -1.3950  -15.9330 C   0  0  0  0  0  0  0  0  0  0  0  0
   -8.3011   -2.1160  -18.0269 C   0  0  0  0  0  0  0  0  0  0  0  0
   -7.9856    0.8045  -15.9487 C   0  0  0  0  0  0  0  0  0  0  0  0
   -9.9308   -1.1649  -14.6432 C   0  0  0  0  0  0  0  0  0  0  0  0
   -8.8833    1.1596  -14.7470 C   0  0  0  0  0  0  0  0  0  0  0  0
   -8.7482   -0.1915  -10.7820 C   0  0  0  0  0  0  0  0  0  0  0  0
  -10.1302   -0.3240  -11.4227 C   0  0  0  0  0  0  0  0  0  0  0  0
   -7.6322    0.0450  -11.8001 C   0  0  0  0  0  0  0  0  0  0  0  0
  -10.2197    0.4744  -12.7183 C   0  0  0  0  0  0  0  0  0  0  0  0
   -7.9449   -0.6230  -13.1356 C   0  0  0  0  0  0  0  0  0  0  0  0
   -9.2298   -0.0432  -13.8048 C   0  0  0  0  0  0  0  0  0  0  0  0
   -7.8269   -0.9204  -17.7481 N   0  0  0  0  0  0  0  0  0  0  0  0
   -7.9858   -2.8233  -19.1445 N   0  0  0  0  0  0  0  0  0  0  0  0
   -9.3867   -2.7982  -16.8814 S   0  0  0  0  0  0  0  0  0  0  0  0
   -6.9363    0.7871  -15.6265 H   0  0  0  0  0  0  0  0  0  0  0  0
   -8.0697    1.5837  -16.7178 H   0  0  0  0  0  0  0  0  0  0  0  0
  -10.9832   -0.9292  -14.8263 H   0  0  0  0  0  0  0  0  0  0  0  0
   -9.9097   -2.1070  -14.0802 H   0  0  0  0  0  0  0  0  0  0  0  0
   -8.3736    1.9345  -14.1509 H   0  0  0  0  0  0  0  0  0  0  0  0
   -9.8052    1.6296  -15.1228 H   0  0  0  0  0  0  0  0  0  0  0  0
   -8.7630    0.6427  -10.0618 H   0  0  0  0  0  0  0  0  0  0  0  0
   -8.5264   -1.0968  -10.1961 H   0  0  0  0  0  0  0  0  0  0  0  0
  -10.3465   -1.3786  -11.6092 H   0  0  0  0  0  0  0  0  0  0  0  0
  -10.8877    0.0333  -10.7199 H   0  0  0  0  0  0  0  0  0  0  0  0
   -7.5041    1.1229  -11.9513 H   0  0  0  0  0  0  0  0  0  0  0  0
   -6.6834   -0.3310  -11.4007 H   0  0  0  0  0  0  0  0  0  0  0  0
  -11.2476    0.4443  -13.0766 H   0  0  0  0  0  0  0  0  0  0  0  0
   -9.9873    1.5181  -12.4967 H   0  0  0  0  0  0  0  0  0  0  0  0
   -7.0931   -0.4773  -13.8057 H   0  0  0  0  0  0  0  0  0  0  0  0
   -8.0510   -1.6996  -12.9876 H   0  0  0  0  0  0  0  0  0  0  0  0
   -8.3419   -3.7725  -19.2995 H   0  0  0  0  0  0  0  0  0  0  0  0
   -7.3064   -2.4739  -19.8288 H   0  0  0  0  0  0  0  0  0  0  0  0
  1  2  2  0  0  0  0
  1  4  1  0  0  0  0
  1 13  1  0  0  0  0
  2  5  1  0  0  0  0
  2 15  1  0  0  0  0
  3 13  2  0  0  0  0
  3 14  1  0  0  0  0
  3 15  1  0  0  0  0
  4  6  1  0  0  0  0
  5 12  1  0  0  0  0
  6 12  1  0  0  0  0
  7  8  1  0  0  0  0
  7  9  1  0  0  0  0
  8 10  1  0  0  0  0
  9 11  1  0  0  0  0
 10 12  1  0  0  0  0
 11 12  1  0  0  0  0
  4 16  1  0  0  0  0
  4 17  1  0  0  0  0
  5 18  1  0  0  0  0
  5 19  1  0  0  0  0
  6 20  1  0  0  0  0
  6 21  1  0  0  0  0
  7 22  1  0  0  0  0
  7 23  1  0  0  0  0
  8 24  1  0  0  0  0
  8 25  1  0  0  0  0
  9 26  1  0  0  0  0
  9 27  1  0  0  0  0
 10 28  1  0  0  0  0
 10 29  1  0  0  0  0
 11 30  1  0  0  0  0
 11 31  1  0  0  0  0
 14 32  1  0  0  0  0
 14 33  1  0  0  0  0
M  END
> <id>
EN300-247479

> <smiles>
NC1=NC=2CCC3(CCCCC3)CC2S1

> <MDLNUMBER>
MFCD29047332

> <IUPAC Name>
5,7-dihydro-4H-spiro[1,3-benzothiazole-6,1'-cyclohexane]-2-amine

> <CAS>
188051-12-9

> <Purity>
95

> <URL>
https://www.enaminestore.com/catalog/EN300-247479

> <ROCS_ShapeQuery>
amalgated

> <ROCS_TanimotoCombo>
0.839 

> <ROCS_ShapeTanimoto>
0.546 

> <ROCS_ColorTanimoto>
0.293 

> <ROCS_RefTversky>
0.504 

> <ROCS_RefColorTversky>
0.424 

> <ROCS_RefTverskyCombo>
0.928 

> <ROCS_FitTversky>
1.181 

> <ROCS_FitColorTversky>
0.486 

> <ROCS_FitTverskyCombo>
1.667 

> <ROCS_ColorScore>
-2.949

> <ROCS_Overlap>
825.805

> <ROCS_Rank>
261                 

$$$$
untitled-dbase-45527_51
  -OEChem-10092318153D

 45 47  0     0  0  0  0  0  0999 V2000
   -9.4686   -2.4319  -16.2161 C   0  0  0  0  0  0  0  0  0  0  0  0
   -8.9983   -2.8875  -17.4417 C   0  0  0  0  0  0  0  0  0  0  0  0
   -7.8746   -0.7704  -17.7764 C   0  0  0  0  0  0  0  0  0  0  0  0
   -8.3327   -0.2906  -16.5397 C   0  0  0  0  0  0  0  0  0  0  0  0
   -9.1322   -1.1497  -15.7644 C   0  0  0  0  0  0  0  0  0  0  0  0
   -8.2010   -2.0573  -18.2198 C   0  0  0  0  0  0  0  0  0  0  0  0
   -7.1341    1.9150  -16.6489 C   0  0  0  0  0  0  0  0  0  0  0  0
   -7.7117   -0.0936  -13.2192 C   0  0  0  0  0  0  0  0  0  0  0  0
  -10.0269    0.7560  -12.7921 C   0  0  0  0  0  0  0  0  0  0  0  0
   -8.8711    1.4451  -14.9047 C   0  0  0  0  0  0  0  0  0  0  0  0
   -7.9422   -1.0865  -12.0829 C   0  0  0  0  0  0  0  0  0  0  0  0
  -10.1291   -0.2806  -11.6761 C   0  0  0  0  0  0  0  0  0  0  0  0
   -9.0421    0.3092  -13.8933 C   0  0  0  0  0  0  0  0  0  0  0  0
   -4.6844    2.3795  -18.0686 C   0  0  0  0  0  0  0  0  0  0  0  0
   -6.0533    2.0899  -20.1546 C   0  0  0  0  0  0  0  0  0  0  0  0
   -6.5655    3.9735  -18.5741 C   0  0  0  0  0  0  0  0  0  0  0  0
   -6.0705    2.5328  -18.6932 C   0  0  0  0  0  0  0  0  0  0  0  0
   -8.0579    1.0332  -16.0573 N   0  0  0  0  0  0  0  0  0  0  0  0
   -6.5195    2.8122  -16.0787 O   0  0  0  0  0  0  0  0  0  0  0  0
   -9.6409   -0.8275  -14.5328 O   0  0  0  0  0  0  0  0  0  0  0  0
   -8.8448   -0.5496  -11.1181 O   0  0  0  0  0  0  0  0  0  0  0  0
   -6.9828    1.6778  -17.9938 O   0  0  0  0  0  0  0  0  0  0  0  0
   -7.5395   -2.6793  -19.8798 Br  0  0  0  0  0  0  0  0  0  0  0  0
  -10.1078   -3.0751  -15.6164 H   0  0  0  0  0  0  0  0  0  0  0  0
   -9.2589   -3.8892  -17.7720 H   0  0  0  0  0  0  0  0  0  0  0  0
   -7.2240   -0.1776  -18.4093 H   0  0  0  0  0  0  0  0  0  0  0  0
   -7.2286    0.8017  -12.8099 H   0  0  0  0  0  0  0  0  0  0  0  0
   -7.0313   -0.5449  -13.9494 H   0  0  0  0  0  0  0  0  0  0  0  0
  -11.0318    0.9311  -13.1934 H   0  0  0  0  0  0  0  0  0  0  0  0
   -9.6737    1.7026  -12.3608 H   0  0  0  0  0  0  0  0  0  0  0  0
   -9.8542    1.8031  -15.2275 H   0  0  0  0  0  0  0  0  0  0  0  0
   -8.3447    2.2962  -14.4522 H   0  0  0  0  0  0  0  0  0  0  0  0
   -8.3282   -2.0436  -12.4527 H   0  0  0  0  0  0  0  0  0  0  0  0
   -6.9950   -1.2912  -11.5737 H   0  0  0  0  0  0  0  0  0  0  0  0
  -10.7656    0.1040  -10.8731 H   0  0  0  0  0  0  0  0  0  0  0  0
  -10.5781   -1.2150  -12.0319 H   0  0  0  0  0  0  0  0  0  0  0  0
   -4.6926    2.6964  -17.0195 H   0  0  0  0  0  0  0  0  0  0  0  0
   -4.3328    1.3438  -18.1162 H   0  0  0  0  0  0  0  0  0  0  0  0
   -3.9531    3.0171  -18.5784 H   0  0  0  0  0  0  0  0  0  0  0  0
   -7.0458    2.1982  -20.6068 H   0  0  0  0  0  0  0  0  0  0  0  0
   -5.7902    1.0292  -20.2379 H   0  0  0  0  0  0  0  0  0  0  0  0
   -5.3381    2.6719  -20.7448 H   0  0  0  0  0  0  0  0  0  0  0  0
   -7.5597    4.0837  -19.0221 H   0  0  0  0  0  0  0  0  0  0  0  0
   -6.6195    4.2964  -17.5294 H   0  0  0  0  0  0  0  0  0  0  0  0
   -5.9042    4.6588  -19.1167 H   0  0  0  0  0  0  0  0  0  0  0  0
  1  2  1  0  0  0  0
  1  5  2  0  0  0  0
  2  6  2  0  0  0  0
  3  4  2  0  0  0  0
  3  6  1  0  0  0  0
  4  5  1  0  0  0  0
  4 18  1  0  0  0  0
  5 20  1  0  0  0  0
  6 23  1  0  0  0  0
  7 18  1  0  0  0  0
  7 19  2  0  0  0  0
  7 22  1  0  0  0  0
  8 11  1  0  0  0  0
  8 13  1  0  0  0  0
  9 12  1  0  0  0  0
  9 13  1  0  0  0  0
 10 13  1  0  0  0  0
 10 18  1  0  0  0  0
 11 21  1  0  0  0  0
 12 21  1  0  0  0  0
 13 20  1  0  0  0  0
 14 17  1  0  0  0  0
 15 17  1  0  0  0  0
 16 17  1  0  0  0  0
 17 22  1  0  0  0  0
  1 24  1  0  0  0  0
  2 25  1  0  0  0  0
  3 26  1  0  0  0  0
  8 27  1  0  0  0  0
  8 28  1  0  0  0  0
  9 29  1  0  0  0  0
  9 30  1  0  0  0  0
 10 31  1  0  0  0  0
 10 32  1  0  0  0  0
 11 33  1  0  0  0  0
 11 34  1  0  0  0  0
 12 35  1  0  0  0  0
 12 36  1  0  0  0  0
 14 37  1  0  0  0  0
 14 38  1  0  0  0  0
 14 39  1  0  0  0  0
 15 40  1  0  0  0  0
 15 41  1  0  0  0  0
 15 42  1  0  0  0  0
 16 43  1  0  0  0  0
 16 44  1  0  0  0  0
 16 45  1  0  0  0  0
M  END
> <id>
EN300-28302150

> <smiles>
CC(C)(C)OC(=O)N1CC2(CCOCC2)OC=3C=CC(Br)=CC13

> <IUPAC Name>
tert-butyl 6-bromo-3,4-dihydrospiro[1,4-benzoxazine-2,4'-oxane]-4-carboxylate

> <CAS>
2680683-51-4

> <URL>
https://www.enaminestore.com/catalog/EN300-28302150

> <ROCS_ShapeQuery>
amalgated

> <ROCS_TanimotoCombo>
0.839 

> <ROCS_ShapeTanimoto>
0.691 

> <ROCS_ColorTanimoto>
0.148 

> <ROCS_RefTversky>
0.672 

> <ROCS_RefColorTversky>
0.274 

> <ROCS_RefTverskyCombo>
0.946 

> <ROCS_FitTversky>
1.044 

> <ROCS_FitColorTversky>
0.243 

> <ROCS_FitTverskyCombo>
1.287 

> <ROCS_ColorScore>
-1.934

> <ROCS_Overlap>
1112.938

> <ROCS_Rank>
262                 

$$$$
untitled-dbase-15224_155
  -OEChem-10092318153D

 45 47  0     1  0  0  0  0  0999 V2000
   -8.4377   -0.1620  -14.0679 C   0  0  0  0  0  0  0  0  0  0  0  0
  -10.6170   -0.9907  -19.4024 C   0  0  0  0  0  0  0  0  0  0  0  0
  -11.2138   -2.2150  -18.7103 C   0  0  0  0  0  0  0  0  0  0  0  0
   -9.7689   -0.1297  -18.4720 C   0  0  0  0  0  0  0  0  0  0  0  0
  -10.7669   -2.3734  -17.2585 C   0  0  0  0  0  0  0  0  0  0  0  0
   -7.5604   -1.4115  -18.6179 C   0  0  0  0  0  0  0  0  0  0  0  0
   -8.4605   -3.3594  -17.7531 C   0  0  0  0  0  0  0  0  0  0  0  0
   -8.1553   -0.0662  -16.5342 C   0  0  0  0  0  0  0  0  0  0  0  0
   -8.9112   -2.1380  -15.5605 C   0  0  0  0  0  0  0  0  0  0  0  0
   -8.6886   -0.9182  -17.6956 C   0  0  1  0  0  0  0  0  0  0  0  0
   -9.2437   -2.2286  -17.0576 C   0  0  2  0  0  0  0  0  0  0  0  0
  -10.6281    0.4683  -12.3428 C   0  0  0  0  0  0  0  0  0  0  0  0
   -9.8267   -1.4474  -10.9296 C   0  0  0  0  0  0  0  0  0  0  0  0
   -8.3417    0.5451  -11.2936 C   0  0  0  0  0  0  0  0  0  0  0  0
   -9.4137   -0.3521  -11.9104 C   0  0  0  0  0  0  0  0  0  0  0  0
   -7.9750   -2.7615  -18.9964 N   0  0  0  0  0  0  0  0  0  0  0  0
   -8.5475   -0.7524  -15.3186 N   0  0  0  0  0  0  0  0  0  0  0  0
   -8.0071    0.9732  -13.8761 O   0  0  0  0  0  0  0  0  0  0  0  0
   -8.8621   -0.9933  -13.0659 O   0  0  0  0  0  0  0  0  0  0  0  0
  -10.0175   -1.3146  -20.2725 H   0  0  0  0  0  0  0  0  0  0  0  0
  -11.4348   -0.3767  -19.8207 H   0  0  0  0  0  0  0  0  0  0  0  0
  -12.3181   -2.1678  -18.7637 H   0  0  0  0  0  0  0  0  0  0  0  0
  -10.9341   -3.1236  -19.2763 H   0  0  0  0  0  0  0  0  0  0  0  0
   -9.2954    0.6766  -19.0467 H   0  0  0  0  0  0  0  0  0  0  0  0
  -10.4473    0.3633  -17.7617 H   0  0  0  0  0  0  0  0  0  0  0  0
  -11.2921   -1.6403  -16.6345 H   0  0  0  0  0  0  0  0  0  0  0  0
  -11.1070   -3.3582  -16.9144 H   0  0  0  0  0  0  0  0  0  0  0  0
   -7.4683   -0.8025  -19.5094 H   0  0  0  0  0  0  0  0  0  0  0  0
   -6.6028   -1.4309  -18.1112 H   0  0  0  0  0  0  0  0  0  0  0  0
   -7.6046   -3.7043  -17.1592 H   0  0  0  0  0  0  0  0  0  0  0  0
   -9.0848   -4.2389  -17.9513 H   0  0  0  0  0  0  0  0  0  0  0  0
   -7.0554    0.0118  -16.5219 H   0  0  0  0  0  0  0  0  0  0  0  0
   -8.5438    0.9654  -16.5271 H   0  0  0  0  0  0  0  0  0  0  0  0
   -9.7738   -2.3636  -14.9194 H   0  0  0  0  0  0  0  0  0  0  0  0
   -8.0897   -2.8051  -15.2648 H   0  0  0  0  0  0  0  0  0  0  0  0
  -10.3358    1.2556  -13.0469 H   0  0  0  0  0  0  0  0  0  0  0  0
  -11.3896   -0.1584  -12.8184 H   0  0  0  0  0  0  0  0  0  0  0  0
  -11.0836    0.9749  -11.4843 H   0  0  0  0  0  0  0  0  0  0  0  0
   -8.9585   -2.0385  -10.6166 H   0  0  0  0  0  0  0  0  0  0  0  0
  -10.5248   -2.1494  -11.3998 H   0  0  0  0  0  0  0  0  0  0  0  0
  -10.3030   -1.0310  -10.0361 H   0  0  0  0  0  0  0  0  0  0  0  0
   -7.4705   -0.0431  -10.9833 H   0  0  0  0  0  0  0  0  0  0  0  0
   -8.0065    1.3147  -11.9965 H   0  0  0  0  0  0  0  0  0  0  0  0
   -8.7189    1.0388  -10.3907 H   0  0  0  0  0  0  0  0  0  0  0  0
   -8.7386   -2.6977  -19.6513 H   0  0  0  0  0  0  0  0  0  0  0  0
  1 17  1  0  0  0  0
  1 18  2  0  0  0  0
  1 19  1  0  0  0  0
  2  3  1  0  0  0  0
  2  4  1  0  0  0  0
  3  5  1  0  0  0  0
  4 10  1  0  0  0  0
  5 11  1  0  0  0  0
  6 10  1  0  0  0  0
  6 16  1  0  0  0  0
  7 11  1  0  0  0  0
  7 16  1  0  0  0  0
  8 10  1  0  0  0  0
  8 17  1  0  0  0  0
  9 11  1  0  0  0  0
  9 17  1  0  0  0  0
 10 11  1  0  0  0  0
 12 15  1  0  0  0  0
 13 15  1  0  0  0  0
 14 15  1  0  0  0  0
 15 19  1  0  0  0  0
  2 20  1  0  0  0  0
  2 21  1  0  0  0  0
  3 22  1  0  0  0  0
  3 23  1  0  0  0  0
  4 24  1  0  0  0  0
  4 25  1  0  0  0  0
  5 26  1  0  0  0  0
  5 27  1  0  0  0  0
  6 28  1  0  0  0  0
  6 29  1  0  0  0  0
  7 30  1  0  0  0  0
  7 31  1  0  0  0  0
  8 32  1  0  0  0  0
  8 33  1  0  0  0  0
  9 34  1  0  0  0  0
  9 35  1  0  0  0  0
 12 36  1  0  0  0  0
 12 37  1  0  0  0  0
 12 38  1  0  0  0  0
 13 39  1  0  0  0  0
 13 40  1  0  0  0  0
 13 41  1  0  0  0  0
 14 42  1  0  0  0  0
 14 43  1  0  0  0  0
 14 44  1  0  0  0  0
 16 45  1  0  0  0  0
M  END
> <id>
EN300-1266082

> <smiles>
CC(C)(C)OC(=O)N1CC23CNCC3(C1)CCCC2

> <MDLNUMBER>
MFCD31559068

> <IUPAC Name>
tert-butyl 8,11-diazatricyclo[4.3.3.0,1,6]dodecane-8-carboxylate

> <CAS>
2138076-42-1

> <Purity>
95

> <URL>
https://www.enaminestore.com/catalog/EN300-1266082

> <ROCS_ShapeQuery>
amalgated

> <ROCS_TanimotoCombo>
0.839 

> <ROCS_ShapeTanimoto>
0.582 

> <ROCS_ColorTanimoto>
0.257 

> <ROCS_RefTversky>
0.567 

> <ROCS_RefColorTversky>
0.413 

> <ROCS_RefTverskyCombo>
0.980 

> <ROCS_FitTversky>
1.047 

> <ROCS_FitColorTversky>
0.405 

> <ROCS_FitTverskyCombo>
1.452 

> <ROCS_ColorScore>
-2.894

> <ROCS_Overlap>
934.794

> <ROCS_Rank>
263                 

$$$$
untitled-dbase-34170_5
  -OEChem-10092318153D

 38 39  0     1  0  0  0  0  0999 V2000
   -8.7944    0.3032  -13.7006 C   0  0  0  0  0  0  0  0  0  0  0  0
   -7.7073   -0.1747  -17.2133 C   0  0  0  0  0  0  0  0  0  0  0  0
   -8.2208    0.7511  -16.1175 C   0  0  0  0  0  0  0  0  0  0  0  0
   -7.5750   -2.7159  -17.4805 C   0  0  0  0  0  0  0  0  0  0  0  0
   -8.3224   -1.5246  -15.3308 C   0  0  0  0  0  0  0  0  0  0  0  0
   -9.4115   -2.2303  -18.8974 C   0  0  0  0  0  0  0  0  0  0  0  0
   -8.3228   -1.5454  -16.8560 C   0  0  1  0  0  0  0  0  0  0  0  0
   -9.6974   -1.7535  -17.4844 C   0  0  0  0  0  0  0  0  0  0  0  0
  -10.6201    0.3712  -11.5030 C   0  0  0  0  0  0  0  0  0  0  0  0
   -9.4551   -1.7078  -10.7094 C   0  0  0  0  0  0  0  0  0  0  0  0
   -8.1757    0.4444  -10.9077 C   0  0  0  0  0  0  0  0  0  0  0  0
   -9.3039   -0.4049  -11.4915 C   0  0  0  0  0  0  0  0  0  0  0  0
   -8.0127   -2.6849  -18.8815 N   0  0  0  0  0  0  0  0  0  0  0  0
   -8.4682   -0.1208  -14.9778 N   0  0  0  0  0  0  0  0  0  0  0  0
   -8.9153    1.4816  -13.3738 O   0  0  0  0  0  0  0  0  0  0  0  0
   -8.9654   -0.7479  -12.8399 O   0  0  0  0  0  0  0  0  0  0  0  0
  -10.3685   -2.7374  -16.8308 F   0  0  0  0  0  0  0  0  0  0  0  0
  -10.4703   -0.6550  -17.4563 F   0  0  0  0  0  0  0  0  0  0  0  0
   -7.9851    0.1759  -18.2101 H   0  0  0  0  0  0  0  0  0  0  0  0
   -6.6140   -0.2333  -17.1658 H   0  0  0  0  0  0  0  0  0  0  0  0
   -7.5097    1.5400  -15.8537 H   0  0  0  0  0  0  0  0  0  0  0  0
   -9.1733    1.2163  -16.3948 H   0  0  0  0  0  0  0  0  0  0  0  0
   -6.4888   -2.5713  -17.4219 H   0  0  0  0  0  0  0  0  0  0  0  0
   -7.8195   -3.6766  -17.0168 H   0  0  0  0  0  0  0  0  0  0  0  0
   -9.1249   -2.1136  -14.8647 H   0  0  0  0  0  0  0  0  0  0  0  0
   -7.3641   -1.8618  -14.9086 H   0  0  0  0  0  0  0  0  0  0  0  0
  -10.0616   -3.0629  -19.1826 H   0  0  0  0  0  0  0  0  0  0  0  0
   -9.5421   -1.4174  -19.6190 H   0  0  0  0  0  0  0  0  0  0  0  0
  -10.5158    1.3071  -12.0634 H   0  0  0  0  0  0  0  0  0  0  0  0
  -11.4296   -0.2141  -11.9512 H   0  0  0  0  0  0  0  0  0  0  0  0
  -10.9177    0.6514  -10.4860 H   0  0  0  0  0  0  0  0  0  0  0  0
   -8.5130   -2.2679  -10.6985 H   0  0  0  0  0  0  0  0  0  0  0  0
  -10.1976   -2.3619  -11.1805 H   0  0  0  0  0  0  0  0  0  0  0  0
   -9.7614   -1.5246   -9.6744 H   0  0  0  0  0  0  0  0  0  0  0  0
   -7.2315   -0.1120  -10.8994 H   0  0  0  0  0  0  0  0  0  0  0  0
   -8.0283    1.3668  -11.4789 H   0  0  0  0  0  0  0  0  0  0  0  0
   -8.3873    0.7102   -9.8657 H   0  0  0  0  0  0  0  0  0  0  0  0
   -7.4209   -2.0643  -19.4310 H   0  0  0  0  0  0  0  0  0  0  0  0
  1 14  1  0  0  0  0
  1 15  2  0  0  0  0
  1 16  1  0  0  0  0
  2  3  1  0  0  0  0
  2  7  1  0  0  0  0
  3 14  1  0  0  0  0
  4  7  1  0  0  0  0
  4 13  1  0  0  0  0
  5  7  1  0  0  0  0
  5 14  1  0  0  0  0
  6  8  1  0  0  0  0
  6 13  1  0  0  0  0
  7  8  1  0  0  0  0
  8 17  1  0  0  0  0
  8 18  1  0  0  0  0
  9 12  1  0  0  0  0
 10 12  1  0  0  0  0
 11 12  1  0  0  0  0
 12 16  1  0  0  0  0
  2 19  1  0  0  0  0
  2 20  1  0  0  0  0
  3 21  1  0  0  0  0
  3 22  1  0  0  0  0
  4 23  1  0  0  0  0
  4 24  1  0  0  0  0
  5 25  1  0  0  0  0
  5 26  1  0  0  0  0
  6 27  1  0  0  0  0
  6 28  1  0  0  0  0
  9 29  1  0  0  0  0
  9 30  1  0  0  0  0
  9 31  1  0  0  0  0
 10 32  1  0  0  0  0
 10 33  1  0  0  0  0
 10 34  1  0  0  0  0
 11 35  1  0  0  0  0
 11 36  1  0  0  0  0
 11 37  1  0  0  0  0
 13 38  1  0  0  0  0
M  END
> <id>
EN300-1105268

> <smiles>
CC(C)(C)OC(=O)N1CCC2(CNCC2(F)F)C1

> <MDLNUMBER>
MFCD30803746

> <IUPAC Name>
tert-butyl 9,9-difluoro-2,7-diazaspiro[4.4]nonane-2-carboxylate

> <CAS>
1784245-04-0

> <URL>
https://www.enaminestore.com/catalog/EN300-1105268

> <ROCS_ShapeQuery>
amalgated

> <ROCS_TanimotoCombo>
0.839 

> <ROCS_ShapeTanimoto>
0.606 

> <ROCS_ColorTanimoto>
0.233 

> <ROCS_RefTversky>
0.573 

> <ROCS_RefColorTversky>
0.354 

> <ROCS_RefTverskyCombo>
0.927 

> <ROCS_FitTversky>
1.103 

> <ROCS_FitColorTversky>
0.406 

> <ROCS_FitTverskyCombo>
1.509 

> <ROCS_ColorScore>
-2.459

> <ROCS_Overlap>
943.664

> <ROCS_Rank>
264                 

$$$$
untitled-dbase-21980_49
  -OEChem-10092318153D

 40 40  0     1  0  0  0  0  0999 V2000
   -8.4865   -0.7208  -14.1148 C   0  0  0  0  0  0  0  0  0  0  0  0
   -9.5282   -2.5439  -17.2897 C   0  0  0  0  0  0  0  0  0  0  0  0
   -7.9456   -0.7400  -17.8681 C   0  0  0  0  0  0  0  0  0  0  0  0
   -8.1213   -2.2541  -17.8087 C   0  0  0  0  0  0  0  0  0  0  0  0
   -9.8031   -1.8902  -15.9226 C   0  0  2  0  0  0  0  0  0  0  0  0
   -8.0534   -0.1049  -16.4738 C   0  0  1  0  0  0  0  0  0  0  0  0
  -11.1944   -1.2528  -15.8870 C   0  0  0  0  0  0  0  0  0  0  0  0
   -8.6444    1.3045  -16.5635 C   0  0  0  0  0  0  0  0  0  0  0  0
   -9.6185    1.3483  -12.4929 C   0  0  0  0  0  0  0  0  0  0  0  0
  -10.9153   -0.4907  -11.3769 C   0  0  0  0  0  0  0  0  0  0  0  0
   -8.4066   -0.4793  -11.2576 C   0  0  0  0  0  0  0  0  0  0  0  0
   -9.6253   -0.1312  -12.1110 C   0  0  0  0  0  0  0  0  0  0  0  0
   -8.7672   -0.9306  -15.4803 N   0  0  0  0  0  0  0  0  0  0  0  0
   -7.9530   -2.8333  -19.1396 N   0  0  0  0  0  0  0  0  0  0  0  0
   -7.3833   -0.3971  -13.6773 O   0  0  0  0  0  0  0  0  0  0  0  0
   -9.5798   -0.9118  -13.3108 O   0  0  0  0  0  0  0  0  0  0  0  0
  -10.2773   -2.2389  -18.0135 H   0  0  0  0  0  0  0  0  0  0  0  0
   -9.6232   -3.6214  -17.1667 H   0  0  0  0  0  0  0  0  0  0  0  0
   -6.9526   -0.5323  -18.2528 H   0  0  0  0  0  0  0  0  0  0  0  0
   -8.6592   -0.2936  -18.5469 H   0  0  0  0  0  0  0  0  0  0  0  0
   -7.3975   -2.6813  -17.1553 H   0  0  0  0  0  0  0  0  0  0  0  0
   -9.8402   -2.7060  -15.2038 H   0  0  0  0  0  0  0  0  0  0  0  0
   -7.0335    0.0347  -16.1221 H   0  0  0  0  0  0  0  0  0  0  0  0
  -11.2333   -0.4216  -16.5872 H   0  0  0  0  0  0  0  0  0  0  0  0
  -11.4035   -0.8883  -14.8841 H   0  0  0  0  0  0  0  0  0  0  0  0
  -11.9420   -1.9922  -16.1644 H   0  0  0  0  0  0  0  0  0  0  0  0
   -9.6729    1.2474  -16.9118 H   0  0  0  0  0  0  0  0  0  0  0  0
   -8.0609    1.9011  -17.2606 H   0  0  0  0  0  0  0  0  0  0  0  0
   -8.6220    1.7727  -15.5823 H   0  0  0  0  0  0  0  0  0  0  0  0
   -8.6941    1.6104  -13.0200 H   0  0  0  0  0  0  0  0  0  0  0  0
  -10.4686    1.6034  -13.1339 H   0  0  0  0  0  0  0  0  0  0  0  0
   -9.6556    1.9828  -11.6000 H   0  0  0  0  0  0  0  0  0  0  0  0
  -10.9246   -1.5514  -11.1010 H   0  0  0  0  0  0  0  0  0  0  0  0
  -11.7880   -0.3317  -12.0206 H   0  0  0  0  0  0  0  0  0  0  0  0
  -11.0422    0.1052  -10.4674 H   0  0  0  0  0  0  0  0  0  0  0  0
   -8.4113   -1.5405  -10.9835 H   0  0  0  0  0  0  0  0  0  0  0  0
   -7.4710   -0.2622  -11.7831 H   0  0  0  0  0  0  0  0  0  0  0  0
   -8.4162    0.0830  -10.3169 H   0  0  0  0  0  0  0  0  0  0  0  0
   -7.0351   -2.6259  -19.4563 H   0  0  0  0  0  0  0  0  0  0  0  0
   -8.0859   -3.8149  -19.0710 H   0  0  0  0  0  0  0  0  0  0  0  0
  1 13  1  0  0  0  0
  1 15  2  0  0  0  0
  1 16  1  0  0  0  0
  2  4  1  0  0  0  0
  2  5  1  0  0  0  0
  3  4  1  0  0  0  0
  3  6  1  0  0  0  0
  4 14  1  1  0  0  0
  5  7  1  1  0  0  0
  5 13  1  0  0  0  0
  6  8  1  1  0  0  0
  6 13  1  0  0  0  0
  9 12  1  0  0  0  0
 10 12  1  0  0  0  0
 11 12  1  0  0  0  0
 12 16  1  0  0  0  0
  2 17  1  0  0  0  0
  2 18  1  0  0  0  0
  3 19  1  0  0  0  0
  3 20  1  0  0  0  0
  4 21  1  0  0  0  0
  5 22  1  0  0  0  0
  6 23  1  0  0  0  0
  7 24  1  0  0  0  0
  7 25  1  0  0  0  0
  7 26  1  0  0  0  0
  8 27  1  0  0  0  0
  8 28  1  0  0  0  0
  8 29  1  0  0  0  0
  9 30  1  0  0  0  0
  9 31  1  0  0  0  0
  9 32  1  0  0  0  0
 10 33  1  0  0  0  0
 10 34  1  0  0  0  0
 10 35  1  0  0  0  0
 11 36  1  0  0  0  0
 11 37  1  0  0  0  0
 11 38  1  0  0  0  0
 14 39  1  0  0  0  0
 14 40  1  0  0  0  0
M  END
> <id>
EN300-28247560

> <smiles>
Cl.C[C@H]1C[C@@H](N)C[C@@H](C)N1C(=O)OC(C)(C)C

> <MDLNUMBER>
MFCD34167756

> <IUPAC Name>
tert-butyl (2R,4r,6S)-4-amino-2,6-dimethylpiperidine-1-carboxylate hydrochloride

> <Purity>
95

> <URL>
https://www.enaminestore.com/catalog/EN300-28247560

> <ROCS_ShapeQuery>
amalgated

> <ROCS_TanimotoCombo>
0.839 

> <ROCS_ShapeTanimoto>
0.538 

> <ROCS_ColorTanimoto>
0.301 

> <ROCS_RefTversky>
0.505 

> <ROCS_RefColorTversky>
0.402 

> <ROCS_RefTverskyCombo>
0.907 

> <ROCS_FitTversky>
1.137 

> <ROCS_FitColorTversky>
0.544 

> <ROCS_FitTverskyCombo>
1.682 

> <ROCS_ColorScore>
-2.775

> <ROCS_Overlap>
827.895

> <ROCS_Rank>
265                 

$$$$
untitled-dbase-43512_49
  -OEChem-10092318153D

 40 40  0     1  0  0  0  0  0999 V2000
   -8.4865   -0.7208  -14.1148 C   0  0  0  0  0  0  0  0  0  0  0  0
   -9.5282   -2.5439  -17.2897 C   0  0  0  0  0  0  0  0  0  0  0  0
   -7.9456   -0.7400  -17.8681 C   0  0  0  0  0  0  0  0  0  0  0  0
   -8.1213   -2.2541  -17.8087 C   0  0  0  0  0  0  0  0  0  0  0  0
   -9.8031   -1.8902  -15.9226 C   0  0  2  0  0  0  0  0  0  0  0  0
   -8.0534   -0.1049  -16.4738 C   0  0  1  0  0  0  0  0  0  0  0  0
  -11.1944   -1.2528  -15.8870 C   0  0  0  0  0  0  0  0  0  0  0  0
   -8.6444    1.3045  -16.5635 C   0  0  0  0  0  0  0  0  0  0  0  0
   -9.6185    1.3483  -12.4929 C   0  0  0  0  0  0  0  0  0  0  0  0
  -10.9153   -0.4907  -11.3769 C   0  0  0  0  0  0  0  0  0  0  0  0
   -8.4066   -0.4793  -11.2576 C   0  0  0  0  0  0  0  0  0  0  0  0
   -9.6253   -0.1312  -12.1110 C   0  0  0  0  0  0  0  0  0  0  0  0
   -8.7672   -0.9306  -15.4803 N   0  0  0  0  0  0  0  0  0  0  0  0
   -7.9530   -2.8333  -19.1396 N   0  0  0  0  0  0  0  0  0  0  0  0
   -7.3833   -0.3971  -13.6773 O   0  0  0  0  0  0  0  0  0  0  0  0
   -9.5798   -0.9118  -13.3108 O   0  0  0  0  0  0  0  0  0  0  0  0
  -10.2773   -2.2389  -18.0135 H   0  0  0  0  0  0  0  0  0  0  0  0
   -9.6232   -3.6214  -17.1667 H   0  0  0  0  0  0  0  0  0  0  0  0
   -6.9526   -0.5323  -18.2528 H   0  0  0  0  0  0  0  0  0  0  0  0
   -8.6592   -0.2936  -18.5469 H   0  0  0  0  0  0  0  0  0  0  0  0
   -7.3975   -2.6813  -17.1553 H   0  0  0  0  0  0  0  0  0  0  0  0
   -9.8402   -2.7060  -15.2038 H   0  0  0  0  0  0  0  0  0  0  0  0
   -7.0335    0.0347  -16.1221 H   0  0  0  0  0  0  0  0  0  0  0  0
  -11.2333   -0.4216  -16.5872 H   0  0  0  0  0  0  0  0  0  0  0  0
  -11.4035   -0.8883  -14.8841 H   0  0  0  0  0  0  0  0  0  0  0  0
  -11.9420   -1.9922  -16.1644 H   0  0  0  0  0  0  0  0  0  0  0  0
   -9.6729    1.2474  -16.9118 H   0  0  0  0  0  0  0  0  0  0  0  0
   -8.0609    1.9011  -17.2606 H   0  0  0  0  0  0  0  0  0  0  0  0
   -8.6220    1.7727  -15.5823 H   0  0  0  0  0  0  0  0  0  0  0  0
   -8.6941    1.6104  -13.0200 H   0  0  0  0  0  0  0  0  0  0  0  0
  -10.4686    1.6034  -13.1339 H   0  0  0  0  0  0  0  0  0  0  0  0
   -9.6556    1.9828  -11.6000 H   0  0  0  0  0  0  0  0  0  0  0  0
  -10.9246   -1.5514  -11.1010 H   0  0  0  0  0  0  0  0  0  0  0  0
  -11.7880   -0.3317  -12.0206 H   0  0  0  0  0  0  0  0  0  0  0  0
  -11.0422    0.1052  -10.4674 H   0  0  0  0  0  0  0  0  0  0  0  0
   -8.4113   -1.5405  -10.9835 H   0  0  0  0  0  0  0  0  0  0  0  0
   -7.4710   -0.2622  -11.7831 H   0  0  0  0  0  0  0  0  0  0  0  0
   -8.4162    0.0830  -10.3169 H   0  0  0  0  0  0  0  0  0  0  0  0
   -7.0351   -2.6259  -19.4563 H   0  0  0  0  0  0  0  0  0  0  0  0
   -8.0859   -3.8149  -19.0710 H   0  0  0  0  0  0  0  0  0  0  0  0
  1 13  1  0  0  0  0
  1 15  2  0  0  0  0
  1 16  1  0  0  0  0
  2  4  1  0  0  0  0
  2  5  1  0  0  0  0
  3  4  1  0  0  0  0
  3  6  1  0  0  0  0
  4 14  1  1  0  0  0
  5  7  1  1  0  0  0
  5 13  1  0  0  0  0
  6  8  1  1  0  0  0
  6 13  1  0  0  0  0
  9 12  1  0  0  0  0
 10 12  1  0  0  0  0
 11 12  1  0  0  0  0
 12 16  1  0  0  0  0
  2 17  1  0  0  0  0
  2 18  1  0  0  0  0
  3 19  1  0  0  0  0
  3 20  1  0  0  0  0
  4 21  1  0  0  0  0
  5 22  1  0  0  0  0
  6 23  1  0  0  0  0
  7 24  1  0  0  0  0
  7 25  1  0  0  0  0
  7 26  1  0  0  0  0
  8 27  1  0  0  0  0
  8 28  1  0  0  0  0
  8 29  1  0  0  0  0
  9 30  1  0  0  0  0
  9 31  1  0  0  0  0
  9 32  1  0  0  0  0
 10 33  1  0  0  0  0
 10 34  1  0  0  0  0
 10 35  1  0  0  0  0
 11 36  1  0  0  0  0
 11 37  1  0  0  0  0
 11 38  1  0  0  0  0
 14 39  1  0  0  0  0
 14 40  1  0  0  0  0
M  END
> <id>
EN300-27108810

> <smiles>
C[C@H]1C[C@@H](N)C[C@@H](C)N1C(=O)OC(C)(C)C

> <MDLNUMBER>
MFCD34168232

> <IUPAC Name>
tert-butyl (2R,4r,6S)-4-amino-2,6-dimethylpiperidine-1-carboxylate

> <URL>
https://www.enaminestore.com/catalog/EN300-27108810

> <ROCS_ShapeQuery>
amalgated

> <ROCS_TanimotoCombo>
0.839 

> <ROCS_ShapeTanimoto>
0.538 

> <ROCS_ColorTanimoto>
0.301 

> <ROCS_RefTversky>
0.505 

> <ROCS_RefColorTversky>
0.402 

> <ROCS_RefTverskyCombo>
0.907 

> <ROCS_FitTversky>
1.137 

> <ROCS_FitColorTversky>
0.544 

> <ROCS_FitTverskyCombo>
1.682 

> <ROCS_ColorScore>
-2.775

> <ROCS_Overlap>
827.895

> <ROCS_Rank>
266                 

$$$$
untitled-dbase-17000_2
  -OEChem-10092318153D

 34 36  0     1  0  0  0  0  0999 V2000
   -9.4339   -1.6763  -16.5370 C   0  0  0  0  0  0  0  0  0  0  0  0
   -9.3968   -1.2470  -15.2156 C   0  0  0  0  0  0  0  0  0  0  0  0
   -7.8760    0.5085  -15.8596 C   0  0  0  0  0  0  0  0  0  0  0  0
   -8.6883   -1.0149  -17.5338 C   0  0  0  0  0  0  0  0  0  0  0  0
   -7.8866    0.1139  -17.2168 C   0  0  0  0  0  0  0  0  0  0  0  0
   -8.6130   -0.1554  -14.8754 C   0  0  0  0  0  0  0  0  0  0  0  0
   -6.4812    2.9612  -17.8523 C   0  0  0  0  0  0  0  0  0  0  0  0
   -8.2220   -0.5668  -19.9960 C   0  0  0  0  0  0  0  0  0  0  0  0
   -5.7280    1.6249  -17.9558 C   0  0  0  0  0  0  0  0  0  0  0  0
   -7.6107    2.3547  -18.6982 C   0  0  0  0  0  0  0  0  0  0  0  0
   -6.8812    0.0459  -19.5998 C   0  0  0  0  0  0  0  0  0  0  0  0
   -8.7335   -1.5683  -18.9494 C   0  0  1  0  0  0  0  0  0  0  0  0
   -7.0681    0.9257  -18.3519 C   0  0  0  0  0  0  0  0  0  0  0  0
   -8.5608    0.3148  -13.4608 C   0  0  0  0  0  0  0  0  0  0  0  0
   -7.9770   -2.8224  -19.0572 N   0  0  0  0  0  0  0  0  0  0  0  0
   -9.3338   -0.4229  -12.6098 F   0  0  0  0  0  0  0  0  0  0  0  0
   -7.3068    0.2836  -12.9200 F   0  0  0  0  0  0  0  0  0  0  0  0
   -8.9884    1.6033  -13.3195 F   0  0  0  0  0  0  0  0  0  0  0  0
  -10.0495   -2.5352  -16.7952 H   0  0  0  0  0  0  0  0  0  0  0  0
   -9.9828   -1.7675  -14.4637 H   0  0  0  0  0  0  0  0  0  0  0  0
   -7.2817    1.3713  -15.5642 H   0  0  0  0  0  0  0  0  0  0  0  0
   -6.7618    3.2676  -16.8383 H   0  0  0  0  0  0  0  0  0  0  0  0
   -5.9642    3.8007  -18.3356 H   0  0  0  0  0  0  0  0  0  0  0  0
   -8.9664    0.2316  -20.1312 H   0  0  0  0  0  0  0  0  0  0  0  0
   -8.1247   -1.0629  -20.9720 H   0  0  0  0  0  0  0  0  0  0  0  0
   -4.9261    1.6035  -18.7048 H   0  0  0  0  0  0  0  0  0  0  0  0
   -5.2896    1.3095  -16.9998 H   0  0  0  0  0  0  0  0  0  0  0  0
   -8.6110    2.5723  -18.2995 H   0  0  0  0  0  0  0  0  0  0  0  0
   -7.6027    2.6368  -19.7575 H   0  0  0  0  0  0  0  0  0  0  0  0
   -6.1402   -0.7363  -19.4078 H   0  0  0  0  0  0  0  0  0  0  0  0
   -6.4993    0.6324  -20.4420 H   0  0  0  0  0  0  0  0  0  0  0  0
   -9.7722   -1.7923  -19.2043 H   0  0  0  0  0  0  0  0  0  0  0  0
   -7.2688   -2.6929  -19.7376 H   0  0  0  0  0  0  0  0  0  0  0  0
   -7.5849   -3.0178  -18.1688 H   0  0  0  0  0  0  0  0  0  0  0  0
  1  2  1  0  0  0  0
  1  4  2  0  0  0  0
  2  6  2  0  0  0  0
  3  5  2  0  0  0  0
  3  6  1  0  0  0  0
  4  5  1  0  0  0  0
  4 12  1  0  0  0  0
  5 13  1  0  0  0  0
  6 14  1  0  0  0  0
  7  9  1  0  0  0  0
  7 10  1  0  0  0  0
  8 11  1  0  0  0  0
  8 12  1  0  0  0  0
  9 13  1  0  0  0  0
 10 13  1  0  0  0  0
 11 13  1  0  0  0  0
 12 15  1  0  0  0  0
 14 16  1  0  0  0  0
 14 17  1  0  0  0  0
 14 18  1  0  0  0  0
  1 19  1  0  0  0  0
  2 20  1  0  0  0  0
  3 21  1  0  0  0  0
  7 22  1  0  0  0  0
  7 23  1  0  0  0  0
  8 24  1  0  0  0  0
  8 25  1  0  0  0  0
  9 26  1  0  0  0  0
  9 27  1  0  0  0  0
 10 28  1  0  0  0  0
 10 29  1  0  0  0  0
 11 30  1  0  0  0  0
 11 31  1  0  0  0  0
 12 32  1  0  0  0  0
 15 33  1  0  0  0  0
 15 34  1  0  0  0  0
M  END
> <id>
EN300-1458090

> <smiles>
NC1CCC2(CCC2)C=3C=C(C=CC13)C(F)(F)F

> <IUPAC Name>
7'-(trifluoromethyl)-3',4'-dihydro-2'H-spiro[cyclobutane-1,1'-naphthalene]-4'-amine

> <CAS>
2172505-96-1

> <URL>
https://www.enaminestore.com/catalog/EN300-1458090

> <ROCS_ShapeQuery>
amalgated

> <ROCS_TanimotoCombo>
0.839 

> <ROCS_ShapeTanimoto>
0.487 

> <ROCS_ColorTanimoto>
0.351 

> <ROCS_RefTversky>
0.497 

> <ROCS_RefColorTversky>
0.452 

> <ROCS_RefTverskyCombo>
0.949 

> <ROCS_FitTversky>
0.961 

> <ROCS_FitColorTversky>
0.612 

> <ROCS_FitTverskyCombo>
1.573 

> <ROCS_ColorScore>
-3.122

> <ROCS_Overlap>
817.820

> <ROCS_Rank>
267                 

$$$$
untitled-dbase-17452_2
  -OEChem-10092318153D

 31 33  0     0  0  0  0  0  0999 V2000
   -8.4969   -1.5593  -18.0769 C   0  0  0  0  0  0  0  0  0  0  0  0
   -8.1653   -0.3606  -17.4402 C   0  0  0  0  0  0  0  0  0  0  0  0
   -9.1971   -2.5452  -15.9727 C   0  0  0  0  0  0  0  0  0  0  0  0
   -8.8708   -1.3454  -15.3056 C   0  0  0  0  0  0  0  0  0  0  0  0
   -8.9369   -0.9104  -13.9437 C   0  0  0  0  0  0  0  0  0  0  0  0
   -9.0050   -2.6370  -17.3559 C   0  0  0  0  0  0  0  0  0  0  0  0
   -8.3623   -0.2841  -16.0566 C   0  0  0  0  0  0  0  0  0  0  0  0
   -8.4570    0.3878  -13.9077 C   0  0  0  0  0  0  0  0  0  0  0  0
   -9.4183   -1.6945  -12.7627 C   0  0  0  0  0  0  0  0  0  0  0  0
   -8.2923    1.3169  -12.7511 C   0  0  0  0  0  0  0  0  0  0  0  0
  -10.0731   -0.8199  -11.6861 C   0  0  0  0  0  0  0  0  0  0  0  0
   -8.0060    0.5610  -11.4493 C   0  0  0  0  0  0  0  0  0  0  0  0
   -9.3495   -3.9050  -18.0638 C   0  0  0  0  0  0  0  0  0  0  0  0
   -8.1256    0.7531  -15.1859 N   0  0  0  0  0  0  0  0  0  0  0  0
   -9.1586   -0.0790  -10.8145 N   0  0  0  0  0  0  0  0  0  0  0  0
   -8.3531   -1.6409  -19.1520 H   0  0  0  0  0  0  0  0  0  0  0  0
   -7.7691    0.4787  -18.0019 H   0  0  0  0  0  0  0  0  0  0  0  0
   -9.5950   -3.3907  -15.4183 H   0  0  0  0  0  0  0  0  0  0  0  0
  -10.1538   -2.4347  -13.0927 H   0  0  0  0  0  0  0  0  0  0  0  0
   -8.5802   -2.2556  -12.3364 H   0  0  0  0  0  0  0  0  0  0  0  0
   -7.4859    2.0245  -12.9653 H   0  0  0  0  0  0  0  0  0  0  0  0
   -9.2051    1.9058  -12.6171 H   0  0  0  0  0  0  0  0  0  0  0  0
  -10.8247   -0.1398  -12.1321 H   0  0  0  0  0  0  0  0  0  0  0  0
  -10.6531   -1.4972  -11.0330 H   0  0  0  0  0  0  0  0  0  0  0  0
   -7.2913   -0.2446  -11.6972 H   0  0  0  0  0  0  0  0  0  0  0  0
   -7.4704    1.2062  -10.7263 H   0  0  0  0  0  0  0  0  0  0  0  0
   -8.4818   -4.5749  -18.0888 H   0  0  0  0  0  0  0  0  0  0  0  0
  -10.1778   -4.4253  -17.5665 H   0  0  0  0  0  0  0  0  0  0  0  0
   -9.6695   -3.7098  -19.0952 H   0  0  0  0  0  0  0  0  0  0  0  0
   -7.7594    1.6566  -15.4539 H   0  0  0  0  0  0  0  0  0  0  0  0
   -9.7093    0.6653  -10.3507 H   0  0  0  0  0  0  0  0  0  0  0  0
  1  2  1  0  0  0  0
  1  6  2  0  0  0  0
  2  7  2  0  0  0  0
  3  4  2  0  0  0  0
  3  6  1  0  0  0  0
  4  5  1  0  0  0  0
  4  7  1  0  0  0  0
  5  8  2  0  0  0  0
  5  9  1  0  0  0  0
  6 13  1  0  0  0  0
  7 14  1  0  0  0  0
  8 10  1  0  0  0  0
  8 14  1  0  0  0  0
  9 11  1  0  0  0  0
 10 12  1  0  0  0  0
 11 15  1  0  0  0  0
 12 15  1  0  0  0  0
  1 16  1  0  0  0  0
  2 17  1  0  0  0  0
  3 18  1  0  0  0  0
  9 19  1  0  0  0  0
  9 20  1  0  0  0  0
 10 21  1  0  0  0  0
 10 22  1  0  0  0  0
 11 23  1  0  0  0  0
 11 24  1  0  0  0  0
 12 25  1  0  0  0  0
 12 26  1  0  0  0  0
 13 27  1  0  0  0  0
 13 28  1  0  0  0  0
 13 29  1  0  0  0  0
 14 30  1  0  0  0  0
 15 31  1  0  0  0  0
M  END
> <id>
EN300-749080

> <smiles>
Cl.CC=1C=CC=2NC=3CCNCCC3C2C1

> <MDLNUMBER>
MFCD27986491

> <IUPAC Name>
9-methyl-1H,2H,3H,4H,5H,6H-azepino[4,5-b]indole hydrochloride

> <CAS>
15918-67-9

> <Purity>
95

> <URL>
https://www.enaminestore.com/catalog/EN300-749080

> <Saltdate>
Cl

> <ROCS_ShapeQuery>
amalgated

> <ROCS_TanimotoCombo>
0.839 

> <ROCS_ShapeTanimoto>
0.534 

> <ROCS_ColorTanimoto>
0.305 

> <ROCS_RefTversky>
0.503 

> <ROCS_RefColorTversky>
0.437 

> <ROCS_RefTverskyCombo>
0.941 

> <ROCS_FitTversky>
1.128 

> <ROCS_FitColorTversky>
0.501 

> <ROCS_FitTverskyCombo>
1.629 

> <ROCS_ColorScore>
-3.041

> <ROCS_Overlap>
825.562

> <ROCS_Rank>
268                 

$$$$
untitled-dbase-34914_79
  -OEChem-10092318153D

 38 38  0     1  0  0  0  0  0999 V2000
  -10.0995   -1.7717  -19.0489 C   0  0  0  0  0  0  0  0  0  0  0  0
   -8.7316   -0.2231  -14.2835 C   0  0  0  0  0  0  0  0  0  0  0  0
   -9.2242   -2.7532  -16.9719 C   0  0  0  0  0  0  0  0  0  0  0  0
   -8.4563   -2.2584  -15.7497 C   0  0  0  0  0  0  0  0  0  0  0  0
   -8.7223    0.0295  -16.7409 C   0  0  0  0  0  0  0  0  0  0  0  0
   -8.1217   -0.6588  -17.9736 C   0  0  1  0  0  0  0  0  0  0  0  0
   -8.8559   -2.0012  -18.2795 C   0  0  2  0  0  0  0  0  0  0  0  0
   -8.0524    0.3144  -19.1581 C   0  0  0  0  0  0  0  0  0  0  0  0
  -10.2830    0.6976  -12.0633 C   0  0  0  0  0  0  0  0  0  0  0  0
   -9.9905   -1.6183  -11.1357 C   0  0  0  0  0  0  0  0  0  0  0  0
   -7.9809   -0.1608  -11.5173 C   0  0  0  0  0  0  0  0  0  0  0  0
   -9.3768   -0.5317  -12.0161 C   0  0  0  0  0  0  0  0  0  0  0  0
  -11.0741   -1.5919  -19.6521 N   0  0  0  0  0  0  0  0  0  0  0  0
   -8.6444   -0.8167  -15.5473 N   0  0  0  0  0  0  0  0  0  0  0  0
   -7.9608   -2.8308  -19.0988 N   0  0  0  0  0  0  0  0  0  0  0  0
   -8.3685    0.9254  -14.0351 O   0  0  0  0  0  0  0  0  0  0  0  0
   -9.2612   -1.0638  -13.3407 O   0  0  0  0  0  0  0  0  0  0  0  0
   -9.0180   -3.8282  -17.0951 H   0  0  0  0  0  0  0  0  0  0  0  0
  -10.3036   -2.6701  -16.7718 H   0  0  0  0  0  0  0  0  0  0  0  0
   -8.8043   -2.7585  -14.8368 H   0  0  0  0  0  0  0  0  0  0  0  0
   -7.3962   -2.5079  -15.8620 H   0  0  0  0  0  0  0  0  0  0  0  0
   -8.2092    0.9832  -16.5568 H   0  0  0  0  0  0  0  0  0  0  0  0
   -9.7842    0.2711  -16.8946 H   0  0  0  0  0  0  0  0  0  0  0  0
   -7.0743   -0.9080  -17.7132 H   0  0  0  0  0  0  0  0  0  0  0  0
   -9.0590    0.5931  -19.4560 H   0  0  0  0  0  0  0  0  0  0  0  0
   -7.5475   -0.1660  -19.9912 H   0  0  0  0  0  0  0  0  0  0  0  0
   -7.5019    1.2032  -18.8638 H   0  0  0  0  0  0  0  0  0  0  0  0
   -9.8460    1.4799  -12.6942 H   0  0  0  0  0  0  0  0  0  0  0  0
  -11.2765    0.4517  -12.4523 H   0  0  0  0  0  0  0  0  0  0  0  0
  -10.4007    1.1352  -11.0653 H   0  0  0  0  0  0  0  0  0  0  0  0
   -9.3436   -2.5022  -11.0990 H   0  0  0  0  0  0  0  0  0  0  0  0
  -10.9505   -1.9550  -11.5435 H   0  0  0  0  0  0  0  0  0  0  0  0
  -10.1533   -1.2650  -10.1124 H   0  0  0  0  0  0  0  0  0  0  0  0
   -7.3307   -1.0425  -11.4833 H   0  0  0  0  0  0  0  0  0  0  0  0
   -7.5101    0.5913  -12.1586 H   0  0  0  0  0  0  0  0  0  0  0  0
   -8.0240    0.2312  -10.4947 H   0  0  0  0  0  0  0  0  0  0  0  0
   -8.4259   -3.6847  -19.2850 H   0  0  0  0  0  0  0  0  0  0  0  0
   -7.7735   -2.3368  -19.9360 H   0  0  0  0  0  0  0  0  0  0  0  0
  1  7  1  0  0  0  0
  1 13  3  0  0  0  0
  2 14  1  0  0  0  0
  2 16  2  0  0  0  0
  2 17  1  0  0  0  0
  3  4  1  0  0  0  0
  3  7  1  0  0  0  0
  4 14  1  0  0  0  0
  5  6  1  0  0  0  0
  5 14  1  0  0  0  0
  6  7  1  0  0  0  0
  6  8  1  0  0  0  0
  7 15  1  0  0  0  0
  9 12  1  0  0  0  0
 10 12  1  0  0  0  0
 11 12  1  0  0  0  0
 12 17  1  0  0  0  0
  3 18  1  0  0  0  0
  3 19  1  0  0  0  0
  4 20  1  0  0  0  0
  4 21  1  0  0  0  0
  5 22  1  0  0  0  0
  5 23  1  0  0  0  0
  6 24  1  0  0  0  0
  8 25  1  0  0  0  0
  8 26  1  0  0  0  0
  8 27  1  0  0  0  0
  9 28  1  0  0  0  0
  9 29  1  0  0  0  0
  9 30  1  0  0  0  0
 10 31  1  0  0  0  0
 10 32  1  0  0  0  0
 10 33  1  0  0  0  0
 11 34  1  0  0  0  0
 11 35  1  0  0  0  0
 11 36  1  0  0  0  0
 15 37  1  0  0  0  0
 15 38  1  0  0  0  0
M  END
> <id>
EN300-3056916

> <smiles>
CC1CN(CCC1(N)C#N)C(=O)OC(C)(C)C

> <MDLNUMBER>
MFCD30277151

> <IUPAC Name>
tert-butyl 4-amino-4-cyano-3-methylpiperidine-1-carboxylate

> <CAS>
1876721-45-7

> <Purity>
95

> <URL>
https://www.enaminestore.com/catalog/EN300-3056916

> <ROCS_ShapeQuery>
amalgated

> <ROCS_TanimotoCombo>
0.838 

> <ROCS_ShapeTanimoto>
0.559 

> <ROCS_ColorTanimoto>
0.280 

> <ROCS_RefTversky>
0.528 

> <ROCS_RefColorTversky>
0.409 

> <ROCS_RefTverskyCombo>
0.936 

> <ROCS_FitTversky>
1.118 

> <ROCS_FitColorTversky>
0.470 

> <ROCS_FitTverskyCombo>
1.588 

> <ROCS_ColorScore>
-2.841

> <ROCS_Overlap>
866.396

> <ROCS_Rank>
269                 

$$$$
untitled-dbase-15534_347
  -OEChem-10092318153D

 41 42  0     0  0  0  0  0  0999 V2000
   -8.4262    0.0031  -14.4572 C   0  0  0  0  0  0  0  0  0  0  0  0
  -10.0139   -3.8003  -19.6689 C   0  0  0  0  0  0  0  0  0  0  0  0
  -10.2194   -2.4304  -19.0356 C   0  0  0  0  0  0  0  0  0  0  0  0
   -8.6710   -0.6652  -18.0939 C   0  0  0  0  0  0  0  0  0  0  0  0
   -8.9840   -2.8694  -16.8348 C   0  0  0  0  0  0  0  0  0  0  0  0
   -8.5169   -4.0559  -19.5865 C   0  0  0  0  0  0  0  0  0  0  0  0
   -7.8624   -0.3272  -16.8473 C   0  0  0  0  0  0  0  0  0  0  0  0
   -9.4331   -1.9234  -15.7248 C   0  0  0  0  0  0  0  0  0  0  0  0
   -8.9458   -2.1763  -18.2213 C   0  0  0  0  0  0  0  0  0  0  0  0
  -10.4882    0.4175  -12.5178 C   0  0  0  0  0  0  0  0  0  0  0  0
   -9.1679   -1.1380  -11.0528 C   0  0  0  0  0  0  0  0  0  0  0  0
   -8.1580    1.0379  -11.7969 C   0  0  0  0  0  0  0  0  0  0  0  0
   -9.0943   -0.1080  -12.1779 C   0  0  0  0  0  0  0  0  0  0  0  0
   -7.9359   -2.8121  -19.0858 N   0  0  0  0  0  0  0  0  0  0  0  0
   -8.5700   -0.7393  -15.6334 N   0  0  0  0  0  0  0  0  0  0  0  0
   -8.2093    1.2129  -14.4241 O   0  0  0  0  0  0  0  0  0  0  0  0
   -8.5618   -0.7673  -13.3323 O   0  0  0  0  0  0  0  0  0  0  0  0
  -10.5693   -4.5702  -19.1005 H   0  0  0  0  0  0  0  0  0  0  0  0
  -10.3862   -3.8347  -20.7080 H   0  0  0  0  0  0  0  0  0  0  0  0
  -10.3322   -1.6880  -19.8396 H   0  0  0  0  0  0  0  0  0  0  0  0
  -11.1398   -2.4077  -18.4378 H   0  0  0  0  0  0  0  0  0  0  0  0
   -9.6237   -0.1270  -18.0522 H   0  0  0  0  0  0  0  0  0  0  0  0
   -8.1395   -0.2999  -18.9774 H   0  0  0  0  0  0  0  0  0  0  0  0
   -8.0054   -3.2924  -16.5827 H   0  0  0  0  0  0  0  0  0  0  0  0
   -9.6817   -3.7144  -16.8747 H   0  0  0  0  0  0  0  0  0  0  0  0
   -8.2807   -4.9087  -18.9330 H   0  0  0  0  0  0  0  0  0  0  0  0
   -8.1054   -4.2820  -20.5830 H   0  0  0  0  0  0  0  0  0  0  0  0
   -6.9026   -0.8560  -16.8533 H   0  0  0  0  0  0  0  0  0  0  0  0
   -7.6402    0.7429  -16.8360 H   0  0  0  0  0  0  0  0  0  0  0  0
  -10.4743   -1.6224  -15.8971 H   0  0  0  0  0  0  0  0  0  0  0  0
   -9.4065   -2.4179  -14.7443 H   0  0  0  0  0  0  0  0  0  0  0  0
  -10.4397    1.1572  -13.3250 H   0  0  0  0  0  0  0  0  0  0  0  0
  -11.1597   -0.3903  -12.8264 H   0  0  0  0  0  0  0  0  0  0  0  0
  -10.9342    0.9284  -11.6568 H   0  0  0  0  0  0  0  0  0  0  0  0
   -8.1699   -1.5178  -10.8056 H   0  0  0  0  0  0  0  0  0  0  0  0
   -9.7621   -2.0071  -11.3575 H   0  0  0  0  0  0  0  0  0  0  0  0
   -9.6122   -0.7149  -10.1461 H   0  0  0  0  0  0  0  0  0  0  0  0
   -7.1580    0.6612  -11.5530 H   0  0  0  0  0  0  0  0  0  0  0  0
   -8.0640    1.7683  -12.6070 H   0  0  0  0  0  0  0  0  0  0  0  0
   -8.5202    1.5558  -10.9014 H   0  0  0  0  0  0  0  0  0  0  0  0
   -7.1093   -3.0470  -18.5422 H   0  0  0  0  0  0  0  0  0  0  0  0
  1 15  1  0  0  0  0
  1 16  2  0  0  0  0
  1 17  1  0  0  0  0
  2  3  1  0  0  0  0
  2  6  1  0  0  0  0
  3  9  1  0  0  0  0
  4  7  1  0  0  0  0
  4  9  1  0  0  0  0
  5  8  1  0  0  0  0
  5  9  1  0  0  0  0
  6 14  1  0  0  0  0
  7 15  1  0  0  0  0
  8 15  1  0  0  0  0
  9 14  1  0  0  0  0
 10 13  1  0  0  0  0
 11 13  1  0  0  0  0
 12 13  1  0  0  0  0
 13 17  1  0  0  0  0
  2 18  1  0  0  0  0
  2 19  1  0  0  0  0
  3 20  1  0  0  0  0
  3 21  1  0  0  0  0
  4 22  1  0  0  0  0
  4 23  1  0  0  0  0
  5 24  1  0  0  0  0
  5 25  1  0  0  0  0
  6 26  1  0  0  0  0
  6 27  1  0  0  0  0
  7 28  1  0  0  0  0
  7 29  1  0  0  0  0
  8 30  1  0  0  0  0
  8 31  1  0  0  0  0
 10 32  1  0  0  0  0
 10 33  1  0  0  0  0
 10 34  1  0  0  0  0
 11 35  1  0  0  0  0
 11 36  1  0  0  0  0
 11 37  1  0  0  0  0
 12 38  1  0  0  0  0
 12 39  1  0  0  0  0
 12 40  1  0  0  0  0
 14 41  1  0  0  0  0
M  END
> <id>
EN300-268883

> <smiles>
CC(C)(C)OC(=O)N1CCC2(CCCN2)CC1

> <MDLNUMBER>
MFCD11501187

> <IUPAC Name>
tert-butyl 1,8-diazaspiro[4.5]decane-8-carboxylate

> <CAS>
937729-06-1

> <Purity>
95

> <URL>
https://www.enaminestore.com/catalog/EN300-268883

> <ROCS_ShapeQuery>
amalgated

> <ROCS_TanimotoCombo>
0.838 

> <ROCS_ShapeTanimoto>
0.556 

> <ROCS_ColorTanimoto>
0.282 

> <ROCS_RefTversky>
0.529 

> <ROCS_RefColorTversky>
0.411 

> <ROCS_RefTverskyCombo>
0.940 

> <ROCS_FitTversky>
1.102 

> <ROCS_FitColorTversky>
0.472 

> <ROCS_FitTverskyCombo>
1.575 

> <ROCS_ColorScore>
-2.859

> <ROCS_Overlap>
869.161

> <ROCS_Rank>
270                 

$$$$
untitled-dbase-53562_347
  -OEChem-10092318153D

 41 42  0     0  0  0  0  0  0999 V2000
   -8.4262    0.0031  -14.4572 C   0  0  0  0  0  0  0  0  0  0  0  0
  -10.0139   -3.8003  -19.6689 C   0  0  0  0  0  0  0  0  0  0  0  0
  -10.2194   -2.4304  -19.0356 C   0  0  0  0  0  0  0  0  0  0  0  0
   -8.6710   -0.6652  -18.0939 C   0  0  0  0  0  0  0  0  0  0  0  0
   -8.9840   -2.8694  -16.8348 C   0  0  0  0  0  0  0  0  0  0  0  0
   -8.5169   -4.0559  -19.5865 C   0  0  0  0  0  0  0  0  0  0  0  0
   -7.8624   -0.3272  -16.8473 C   0  0  0  0  0  0  0  0  0  0  0  0
   -9.4331   -1.9234  -15.7248 C   0  0  0  0  0  0  0  0  0  0  0  0
   -8.9458   -2.1763  -18.2213 C   0  0  0  0  0  0  0  0  0  0  0  0
  -10.4882    0.4175  -12.5178 C   0  0  0  0  0  0  0  0  0  0  0  0
   -9.1679   -1.1380  -11.0528 C   0  0  0  0  0  0  0  0  0  0  0  0
   -8.1580    1.0379  -11.7969 C   0  0  0  0  0  0  0  0  0  0  0  0
   -9.0943   -0.1080  -12.1779 C   0  0  0  0  0  0  0  0  0  0  0  0
   -7.9359   -2.8121  -19.0858 N   0  0  0  0  0  0  0  0  0  0  0  0
   -8.5700   -0.7393  -15.6334 N   0  0  0  0  0  0  0  0  0  0  0  0
   -8.2093    1.2129  -14.4241 O   0  0  0  0  0  0  0  0  0  0  0  0
   -8.5618   -0.7673  -13.3323 O   0  0  0  0  0  0  0  0  0  0  0  0
  -10.5693   -4.5702  -19.1005 H   0  0  0  0  0  0  0  0  0  0  0  0
  -10.3862   -3.8347  -20.7080 H   0  0  0  0  0  0  0  0  0  0  0  0
  -10.3322   -1.6880  -19.8396 H   0  0  0  0  0  0  0  0  0  0  0  0
  -11.1398   -2.4077  -18.4378 H   0  0  0  0  0  0  0  0  0  0  0  0
   -9.6237   -0.1270  -18.0522 H   0  0  0  0  0  0  0  0  0  0  0  0
   -8.1395   -0.2999  -18.9774 H   0  0  0  0  0  0  0  0  0  0  0  0
   -8.0054   -3.2924  -16.5827 H   0  0  0  0  0  0  0  0  0  0  0  0
   -9.6817   -3.7144  -16.8747 H   0  0  0  0  0  0  0  0  0  0  0  0
   -8.2807   -4.9087  -18.9330 H   0  0  0  0  0  0  0  0  0  0  0  0
   -8.1054   -4.2820  -20.5830 H   0  0  0  0  0  0  0  0  0  0  0  0
   -6.9026   -0.8560  -16.8533 H   0  0  0  0  0  0  0  0  0  0  0  0
   -7.6402    0.7429  -16.8360 H   0  0  0  0  0  0  0  0  0  0  0  0
  -10.4743   -1.6224  -15.8971 H   0  0  0  0  0  0  0  0  0  0  0  0
   -9.4065   -2.4179  -14.7443 H   0  0  0  0  0  0  0  0  0  0  0  0
  -10.4397    1.1572  -13.3250 H   0  0  0  0  0  0  0  0  0  0  0  0
  -11.1597   -0.3903  -12.8264 H   0  0  0  0  0  0  0  0  0  0  0  0
  -10.9342    0.9284  -11.6568 H   0  0  0  0  0  0  0  0  0  0  0  0
   -8.1699   -1.5178  -10.8056 H   0  0  0  0  0  0  0  0  0  0  0  0
   -9.7621   -2.0071  -11.3575 H   0  0  0  0  0  0  0  0  0  0  0  0
   -9.6122   -0.7149  -10.1461 H   0  0  0  0  0  0  0  0  0  0  0  0
   -7.1580    0.6612  -11.5530 H   0  0  0  0  0  0  0  0  0  0  0  0
   -8.0640    1.7683  -12.6070 H   0  0  0  0  0  0  0  0  0  0  0  0
   -8.5202    1.5558  -10.9014 H   0  0  0  0  0  0  0  0  0  0  0  0
   -7.1093   -3.0470  -18.5422 H   0  0  0  0  0  0  0  0  0  0  0  0
  1 15  1  0  0  0  0
  1 16  2  0  0  0  0
  1 17  1  0  0  0  0
  2  3  1  0  0  0  0
  2  6  1  0  0  0  0
  3  9  1  0  0  0  0
  4  7  1  0  0  0  0
  4  9  1  0  0  0  0
  5  8  1  0  0  0  0
  5  9  1  0  0  0  0
  6 14  1  0  0  0  0
  7 15  1  0  0  0  0
  8 15  1  0  0  0  0
  9 14  1  0  0  0  0
 10 13  1  0  0  0  0
 11 13  1  0  0  0  0
 12 13  1  0  0  0  0
 13 17  1  0  0  0  0
  2 18  1  0  0  0  0
  2 19  1  0  0  0  0
  3 20  1  0  0  0  0
  3 21  1  0  0  0  0
  4 22  1  0  0  0  0
  4 23  1  0  0  0  0
  5 24  1  0  0  0  0
  5 25  1  0  0  0  0
  6 26  1  0  0  0  0
  6 27  1  0  0  0  0
  7 28  1  0  0  0  0
  7 29  1  0  0  0  0
  8 30  1  0  0  0  0
  8 31  1  0  0  0  0
 10 32  1  0  0  0  0
 10 33  1  0  0  0  0
 10 34  1  0  0  0  0
 11 35  1  0  0  0  0
 11 36  1  0  0  0  0
 11 37  1  0  0  0  0
 12 38  1  0  0  0  0
 12 39  1  0  0  0  0
 12 40  1  0  0  0  0
 14 41  1  0  0  0  0
M  END
> <id>
EN300-24751807

> <smiles>
Cl.CC(C)(C)OC(=O)N1CCC2(CCCN2)CC1

> <MDLNUMBER>
MFCD28892523

> <IUPAC Name>
tert-butyl 1,8-diazaspiro[4.5]decane-8-carboxylate hydrochloride

> <Purity>
95

> <URL>
https://www.enaminestore.com/catalog/EN300-24751807

> <ROCS_ShapeQuery>
amalgated

> <ROCS_TanimotoCombo>
0.838 

> <ROCS_ShapeTanimoto>
0.556 

> <ROCS_ColorTanimoto>
0.282 

> <ROCS_RefTversky>
0.529 

> <ROCS_RefColorTversky>
0.411 

> <ROCS_RefTverskyCombo>
0.940 

> <ROCS_FitTversky>
1.102 

> <ROCS_FitColorTversky>
0.472 

> <ROCS_FitTverskyCombo>
1.575 

> <ROCS_ColorScore>
-2.859

> <ROCS_Overlap>
869.161

> <ROCS_Rank>
271                 

$$$$
untitled-dbase-35708_3
  -OEChem-10092318153D

 31 33  0     0  0  0  0  0  0999 V2000
   -9.3173   -0.2572  -12.1558 C   0  0  0  0  0  0  0  0  0  0  0  0
   -8.7443    0.7228  -13.2122 C   0  0  0  0  0  0  0  0  0  0  0  0
   -8.6926   -1.4200  -12.9690 C   0  0  0  0  0  0  0  0  0  0  0  0
   -7.5315   -0.5665  -15.1436 C   0  0  0  0  0  0  0  0  0  0  0  0
   -9.7151   -0.6276  -15.2239 C   0  0  0  0  0  0  0  0  0  0  0  0
   -8.5292   -2.5749  -16.4773 C   0  0  0  0  0  0  0  0  0  0  0  0
   -8.5411   -0.6840  -17.5568 C   0  0  0  0  0  0  0  0  0  0  0  0
   -8.6606   -0.4621  -14.1410 C   0  0  0  0  0  0  0  0  0  0  0  0
   -8.5713   -1.1053  -16.1070 C   0  0  0  0  0  0  0  0  0  0  0  0
   -8.9642   -2.1418  -17.9095 C   0  0  0  0  0  0  0  0  0  0  0  0
  -10.3987   -2.3858  -18.3226 C   0  0  0  0  0  0  0  0  0  0  0  0
   -7.9937   -2.6798  -18.8632 N   0  0  0  0  0  0  0  0  0  0  0  0
  -11.2473   -1.7312  -17.5061 F   0  0  0  0  0  0  0  0  0  0  0  0
  -10.6110   -1.9572  -19.5822 F   0  0  0  0  0  0  0  0  0  0  0  0
  -10.6925   -3.6997  -18.2695 F   0  0  0  0  0  0  0  0  0  0  0  0
   -8.9371   -0.1324  -11.1388 H   0  0  0  0  0  0  0  0  0  0  0  0
  -10.4128   -0.2805  -12.1282 H   0  0  0  0  0  0  0  0  0  0  0  0
   -9.4117    1.5374  -13.5050 H   0  0  0  0  0  0  0  0  0  0  0  0
   -7.7723    1.1439  -12.9305 H   0  0  0  0  0  0  0  0  0  0  0  0
   -7.7043   -1.7210  -12.6026 H   0  0  0  0  0  0  0  0  0  0  0  0
   -9.3185   -2.3106  -13.0691 H   0  0  0  0  0  0  0  0  0  0  0  0
   -7.1031    0.4017  -15.4331 H   0  0  0  0  0  0  0  0  0  0  0  0
   -6.7100   -1.2394  -14.8749 H   0  0  0  0  0  0  0  0  0  0  0  0
  -10.5094   -1.3508  -15.0263 H   0  0  0  0  0  0  0  0  0  0  0  0
  -10.1700    0.3111  -15.5566 H   0  0  0  0  0  0  0  0  0  0  0  0
   -7.5652   -3.0798  -16.3846 H   0  0  0  0  0  0  0  0  0  0  0  0
   -9.2801   -3.1808  -15.9605 H   0  0  0  0  0  0  0  0  0  0  0  0
   -9.3001    0.0630  -17.8102 H   0  0  0  0  0  0  0  0  0  0  0  0
   -7.5815   -0.3397  -17.9483 H   0  0  0  0  0  0  0  0  0  0  0  0
   -7.1060   -2.3060  -18.6347 H   0  0  0  0  0  0  0  0  0  0  0  0
   -7.9990   -3.6659  -18.7754 H   0  0  0  0  0  0  0  0  0  0  0  0
  1  2  1  0  0  0  0
  1  3  1  0  0  0  0
  2  8  1  0  0  0  0
  3  8  1  0  0  0  0
  4  8  1  0  0  0  0
  4  9  1  0  0  0  0
  5  8  1  0  0  0  0
  5  9  1  0  0  0  0
  6  9  1  0  0  0  0
  6 10  1  0  0  0  0
  7  9  1  0  0  0  0
  7 10  1  0  0  0  0
 10 11  1  0  0  0  0
 10 12  1  0  0  0  0
 11 13  1  0  0  0  0
 11 14  1  0  0  0  0
 11 15  1  0  0  0  0
  1 16  1  0  0  0  0
  1 17  1  0  0  0  0
  2 18  1  0  0  0  0
  2 19  1  0  0  0  0
  3 20  1  0  0  0  0
  3 21  1  0  0  0  0
  4 22  1  0  0  0  0
  4 23  1  0  0  0  0
  5 24  1  0  0  0  0
  5 25  1  0  0  0  0
  6 26  1  0  0  0  0
  6 27  1  0  0  0  0
  7 28  1  0  0  0  0
  7 29  1  0  0  0  0
 12 30  1  0  0  0  0
 12 31  1  0  0  0  0
M  END
> <id>
EN300-1695839

> <smiles>
NC1(CC2(C1)CC3(CCC3)C2)C(F)(F)F

> <IUPAC Name>
2-(trifluoromethyl)dispiro[3.1.3^{6}.1^{4}]decan-2-amine

> <CAS>
2172214-07-0

> <URL>
https://www.enaminestore.com/catalog/EN300-1695839

> <ROCS_ShapeQuery>
amalgated

> <ROCS_TanimotoCombo>
0.838 

> <ROCS_ShapeTanimoto>
0.444 

> <ROCS_ColorTanimoto>
0.394 

> <ROCS_RefTversky>
0.445 

> <ROCS_RefColorTversky>
0.493 

> <ROCS_RefTverskyCombo>
0.938 

> <ROCS_FitTversky>
1.000 

> <ROCS_FitColorTversky>
0.661 

> <ROCS_FitTverskyCombo>
1.661 

> <ROCS_ColorScore>
-3.405

> <ROCS_Overlap>
729.417

> <ROCS_Rank>
272                 

$$$$
untitled-dbase-37677_17
  -OEChem-10092318153D

 37 39  0     0  0  0  0  0  0999 V2000
   -9.2586   -2.9123  -17.9358 C   0  0  0  0  0  0  0  0  0  0  0  0
   -9.6096   -0.6447  -11.2437 C   0  0  0  0  0  0  0  0  0  0  0  0
   -8.1634   -0.1548  -11.2140 C   0  0  0  0  0  0  0  0  0  0  0  0
  -10.1844   -0.1426  -12.5634 C   0  0  0  0  0  0  0  0  0  0  0  0
   -7.8938    0.4662  -12.5853 C   0  0  0  0  0  0  0  0  0  0  0  0
   -8.6198   -1.5334  -14.0030 C   0  0  0  0  0  0  0  0  0  0  0  0
   -9.2186    0.8495  -14.7137 C   0  0  0  0  0  0  0  0  0  0  0  0
   -7.9201   -1.5184  -15.3628 C   0  0  0  0  0  0  0  0  0  0  0  0
   -9.8144    0.1088  -15.9061 C   0  0  0  0  0  0  0  0  0  0  0  0
   -8.0300   -0.3688  -17.6376 C   0  0  0  0  0  0  0  0  0  0  0  0
   -7.2444   -1.4676  -18.3215 C   0  0  0  0  0  0  0  0  0  0  0  0
   -8.9783   -0.1008  -13.5214 C   0  0  0  0  0  0  0  0  0  0  0  0
   -8.8390   -0.9496  -16.4714 C   0  0  0  0  0  0  0  0  0  0  0  0
   -8.0810   -2.6141  -18.5947 N   0  0  0  0  0  0  0  0  0  0  0  0
   -9.9294   -3.9075  -18.2062 O   0  0  0  0  0  0  0  0  0  0  0  0
   -9.6767   -2.0323  -16.9732 O   0  0  0  0  0  0  0  0  0  0  0  0
   -9.6720   -1.7334  -11.1706 H   0  0  0  0  0  0  0  0  0  0  0  0
  -10.1631   -0.2254  -10.3979 H   0  0  0  0  0  0  0  0  0  0  0  0
   -8.0361    0.5922  -10.4221 H   0  0  0  0  0  0  0  0  0  0  0  0
   -7.4633   -0.9707  -11.0062 H   0  0  0  0  0  0  0  0  0  0  0  0
  -10.9333   -0.8570  -12.9224 H   0  0  0  0  0  0  0  0  0  0  0  0
  -10.6769    0.8263  -12.4516 H   0  0  0  0  0  0  0  0  0  0  0  0
   -7.8801    1.5605  -12.5318 H   0  0  0  0  0  0  0  0  0  0  0  0
   -6.8956    0.1526  -12.9235 H   0  0  0  0  0  0  0  0  0  0  0  0
   -9.5339   -2.1289  -14.0677 H   0  0  0  0  0  0  0  0  0  0  0  0
   -7.9745   -2.0256  -13.2723 H   0  0  0  0  0  0  0  0  0  0  0  0
   -8.2954    1.3357  -15.0261 H   0  0  0  0  0  0  0  0  0  0  0  0
   -9.9060    1.6409  -14.4097 H   0  0  0  0  0  0  0  0  0  0  0  0
   -7.0041   -0.9283  -15.2985 H   0  0  0  0  0  0  0  0  0  0  0  0
   -7.6401   -2.5449  -15.6096 H   0  0  0  0  0  0  0  0  0  0  0  0
  -10.7376   -0.3663  -15.5673 H   0  0  0  0  0  0  0  0  0  0  0  0
  -10.0828    0.8195  -16.6906 H   0  0  0  0  0  0  0  0  0  0  0  0
   -7.3180    0.3733  -17.2574 H   0  0  0  0  0  0  0  0  0  0  0  0
   -8.6790    0.1389  -18.3575 H   0  0  0  0  0  0  0  0  0  0  0  0
   -6.8269   -1.1318  -19.2748 H   0  0  0  0  0  0  0  0  0  0  0  0
   -6.4131   -1.8006  -17.6936 H   0  0  0  0  0  0  0  0  0  0  0  0
   -7.7806   -3.2487  -19.3265 H   0  0  0  0  0  0  0  0  0  0  0  0
  1 14  1  0  0  0  0
  1 15  2  0  0  0  0
  1 16  1  0  0  0  0
  2  3  1  0  0  0  0
  2  4  1  0  0  0  0
  3  5  1  0  0  0  0
  4 12  1  0  0  0  0
  5 12  1  0  0  0  0
  6  8  1  0  0  0  0
  6 12  1  0  0  0  0
  7  9  1  0  0  0  0
  7 12  1  0  0  0  0
  8 13  1  0  0  0  0
  9 13  1  0  0  0  0
 10 11  1  0  0  0  0
 10 13  1  0  0  0  0
 11 14  1  0  0  0  0
 13 16  1  0  0  0  0
  2 17  1  0  0  0  0
  2 18  1  0  0  0  0
  3 19  1  0  0  0  0
  3 20  1  0  0  0  0
  4 21  1  0  0  0  0
  4 22  1  0  0  0  0
  5 23  1  0  0  0  0
  5 24  1  0  0  0  0
  6 25  1  0  0  0  0
  6 26  1  0  0  0  0
  7 27  1  0  0  0  0
  7 28  1  0  0  0  0
  8 29  1  0  0  0  0
  8 30  1  0  0  0  0
  9 31  1  0  0  0  0
  9 32  1  0  0  0  0
 10 33  1  0  0  0  0
 10 34  1  0  0  0  0
 11 35  1  0  0  0  0
 11 36  1  0  0  0  0
 14 37  1  0  0  0  0
M  END
> <id>
EN300-802975

> <smiles>
O=C1NCCC2(CCC3(CCCC3)CC2)O1

> <IUPAC Name>
9-oxa-11-azadispiro[4.2.5^{8}.2^{5}]pentadecan-10-one

> <CAS>
2137553-92-3

> <URL>
https://www.enaminestore.com/catalog/EN300-802975

> <ROCS_ShapeQuery>
amalgated

> <ROCS_TanimotoCombo>
0.838 

> <ROCS_ShapeTanimoto>
0.561 

> <ROCS_ColorTanimoto>
0.277 

> <ROCS_RefTversky>
0.525 

> <ROCS_RefColorTversky>
0.378 

> <ROCS_RefTverskyCombo>
0.903 

> <ROCS_FitTversky>
1.137 

> <ROCS_FitColorTversky>
0.511 

> <ROCS_FitTverskyCombo>
1.648 

> <ROCS_ColorScore>
-2.606

> <ROCS_Overlap>
861.614

> <ROCS_Rank>
273                 

$$$$
untitled-dbase-12096_85
  -OEChem-10092318153D

 51 53  0     1  0  0  0  0  0999 V2000
   -8.6190    0.1745  -14.1302 C   0  0  0  0  0  0  0  0  0  0  0  0
   -6.2418    0.6679  -16.9969 C   0  0  0  0  0  0  0  0  0  0  0  0
   -7.0588    1.3284  -18.0925 C   0  0  0  0  0  0  0  0  0  0  0  0
  -10.6154   -3.2464  -14.9635 C   0  0  0  0  0  0  0  0  0  0  0  0
   -9.4968   -3.2565  -13.9104 C   0  0  0  0  0  0  0  0  0  0  0  0
  -10.1987   -3.4820  -16.4218 C   0  0  0  0  0  0  0  0  0  0  0  0
   -6.6047   -0.8029  -17.1504 C   0  0  0  0  0  0  0  0  0  0  0  0
   -8.4047    0.6057  -18.0627 C   0  0  0  0  0  0  0  0  0  0  0  0
   -8.3147   -2.2820  -14.0787 C   0  0  0  0  0  0  0  0  0  0  0  0
   -9.0011   -2.6293  -16.7984 C   0  0  2  0  0  0  0  0  0  0  0  0
   -9.0712   -1.1695  -16.2399 C   0  0  2  0  0  0  0  0  0  0  0  0
   -8.8553   -1.9629  -18.1879 C   0  0  1  0  0  0  0  0  0  0  0  0
   -8.1157   -0.7746  -17.4379 C   0  0  0  0  0  0  0  0  0  0  0  0
  -10.6782    0.2936  -12.5067 C   0  0  0  0  0  0  0  0  0  0  0  0
   -9.1742   -0.4171  -10.6247 C   0  0  0  0  0  0  0  0  0  0  0  0
   -9.0299    1.9229  -11.5255 C   0  0  0  0  0  0  0  0  0  0  0  0
   -9.2993    0.4587  -11.8695 C   0  0  0  0  0  0  0  0  0  0  0  0
   -8.6194   -1.0483  -14.8169 N   0  0  0  0  0  0  0  0  0  0  0  0
   -7.9334   -2.7323  -19.0136 N   0  0  0  0  0  0  0  0  0  0  0  0
   -8.8585    1.2657  -14.6427 O   0  0  0  0  0  0  0  0  0  0  0  0
   -8.3090    0.0208  -12.8064 O   0  0  0  0  0  0  0  0  0  0  0  0
   -5.1710    0.8221  -17.1748 H   0  0  0  0  0  0  0  0  0  0  0  0
   -6.4855    1.0538  -16.0028 H   0  0  0  0  0  0  0  0  0  0  0  0
   -7.1955    2.3954  -17.8667 H   0  0  0  0  0  0  0  0  0  0  0  0
   -6.5767    1.2599  -19.0762 H   0  0  0  0  0  0  0  0  0  0  0  0
  -11.3735   -3.9971  -14.6798 H   0  0  0  0  0  0  0  0  0  0  0  0
  -11.1319   -2.2731  -14.9113 H   0  0  0  0  0  0  0  0  0  0  0  0
   -9.9349   -3.1505  -12.8898 H   0  0  0  0  0  0  0  0  0  0  0  0
   -9.0711   -4.2858  -13.9079 H   0  0  0  0  0  0  0  0  0  0  0  0
   -9.9469   -4.5466  -16.5434 H   0  0  0  0  0  0  0  0  0  0  0  0
  -11.0513   -3.2894  -17.0912 H   0  0  0  0  0  0  0  0  0  0  0  0
   -6.0028   -1.2999  -17.9143 H   0  0  0  0  0  0  0  0  0  0  0  0
   -6.3999   -1.3089  -16.2005 H   0  0  0  0  0  0  0  0  0  0  0  0
   -9.1548    1.1782  -17.5069 H   0  0  0  0  0  0  0  0  0  0  0  0
   -8.7725    0.4983  -19.0917 H   0  0  0  0  0  0  0  0  0  0  0  0
   -7.9601   -2.0136  -13.0687 H   0  0  0  0  0  0  0  0  0  0  0  0
   -7.4522   -2.7708  -14.5647 H   0  0  0  0  0  0  0  0  0  0  0  0
   -8.0601   -3.1591  -16.5041 H   0  0  0  0  0  0  0  0  0  0  0  0
  -10.0753   -0.7271  -16.3321 H   0  0  0  0  0  0  0  0  0  0  0  0
   -9.7946   -1.7025  -18.6759 H   0  0  0  0  0  0  0  0  0  0  0  0
  -10.7721    0.9206  -13.4005 H   0  0  0  0  0  0  0  0  0  0  0  0
  -10.8698   -0.7466  -12.7899 H   0  0  0  0  0  0  0  0  0  0  0  0
  -11.4681    0.6159  -11.8186 H   0  0  0  0  0  0  0  0  0  0  0  0
   -8.1863   -0.3018  -10.1642 H   0  0  0  0  0  0  0  0  0  0  0  0
   -9.2727   -1.4779  -10.8823 H   0  0  0  0  0  0  0  0  0  0  0  0
   -9.9357   -0.1694   -9.8782 H   0  0  0  0  0  0  0  0  0  0  0  0
   -8.0408    2.0417  -11.0684 H   0  0  0  0  0  0  0  0  0  0  0  0
   -9.0791    2.5614  -12.4135 H   0  0  0  0  0  0  0  0  0  0  0  0
   -9.7559    2.2908  -10.7915 H   0  0  0  0  0  0  0  0  0  0  0  0
   -8.3788   -3.5815  -19.2740 H   0  0  0  0  0  0  0  0  0  0  0  0
   -7.7106   -2.1948  -19.8190 H   0  0  0  0  0  0  0  0  0  0  0  0
  1 18  1  0  0  0  0
  1 20  2  0  0  0  0
  1 21  1  0  0  0  0
  2  3  1  0  0  0  0
  2  7  1  0  0  0  0
  3  8  1  0  0  0  0
  4  5  1  0  0  0  0
  4  6  1  0  0  0  0
  5  9  1  0  0  0  0
  6 10  1  0  0  0  0
  7 13  1  0  0  0  0
  8 13  1  0  0  0  0
  9 18  1  0  0  0  0
 10 11  1  0  0  0  0
 10 12  1  0  0  0  0
 11 13  1  0  0  0  0
 11 18  1  0  0  0  0
 12 13  1  0  0  0  0
 12 19  1  0  0  0  0
 14 17  1  0  0  0  0
 15 17  1  0  0  0  0
 16 17  1  0  0  0  0
 17 21  1  0  0  0  0
  2 22  1  0  0  0  0
  2 23  1  0  0  0  0
  3 24  1  0  0  0  0
  3 25  1  0  0  0  0
  4 26  1  0  0  0  0
  4 27  1  0  0  0  0
  5 28  1  0  0  0  0
  5 29  1  0  0  0  0
  6 30  1  0  0  0  0
  6 31  1  0  0  0  0
  7 32  1  0  0  0  0
  7 33  1  0  0  0  0
  8 34  1  0  0  0  0
  8 35  1  0  0  0  0
  9 36  1  0  0  0  0
  9 37  1  0  0  0  0
 10 38  1  0  0  0  0
 11 39  1  0  0  0  0
 12 40  1  0  0  0  0
 14 41  1  0  0  0  0
 14 42  1  0  0  0  0
 14 43  1  0  0  0  0
 15 44  1  0  0  0  0
 15 45  1  0  0  0  0
 15 46  1  0  0  0  0
 16 47  1  0  0  0  0
 16 48  1  0  0  0  0
 16 49  1  0  0  0  0
 19 50  1  0  0  0  0
 19 51  1  0  0  0  0
M  END
> <id>
EN300-701141

> <smiles>
CC(C)(C)OC(=O)N1CCCCC2C(N)C3(CCCC3)C21

> <IUPAC Name>
tert-butyl 9-amino-6-azaspiro[bicyclo[5.2.0]nonane-8,1'-cyclopentane]-6-carboxylate

> <CAS>
2137735-28-3

> <URL>
https://www.enaminestore.com/catalog/EN300-701141

> <ROCS_ShapeQuery>
amalgated

> <ROCS_TanimotoCombo>
0.837 

> <ROCS_ShapeTanimoto>
0.565 

> <ROCS_ColorTanimoto>
0.272 

> <ROCS_RefTversky>
0.570 

> <ROCS_RefColorTversky>
0.429 

> <ROCS_RefTverskyCombo>
0.998 

> <ROCS_FitTversky>
0.984 

> <ROCS_FitColorTversky>
0.427 

> <ROCS_FitTverskyCombo>
1.412 

> <ROCS_ColorScore>
-3.001

> <ROCS_Overlap>
940.962

> <ROCS_Rank>
274                 

$$$$
untitled-dbase-51952_61
  -OEChem-10092318153D

 38 39  0     0  0  0  0  0  0999 V2000
   -8.6652    0.0734  -14.4379 C   0  0  0  0  0  0  0  0  0  0  0  0
  -10.0232   -2.5172  -19.1391 C   0  0  0  0  0  0  0  0  0  0  0  0
   -8.9122   -2.8710  -16.7905 C   0  0  0  0  0  0  0  0  0  0  0  0
   -8.6047   -0.6488  -18.0590 C   0  0  0  0  0  0  0  0  0  0  0  0
   -9.0666   -3.5917  -19.6725 C   0  0  0  0  0  0  0  0  0  0  0  0
   -9.4624   -1.9423  -15.7139 C   0  0  0  0  0  0  0  0  0  0  0  0
   -7.8829   -0.3035  -16.7618 C   0  0  0  0  0  0  0  0  0  0  0  0
   -8.8795   -2.1550  -18.1501 C   0  0  0  0  0  0  0  0  0  0  0  0
   -9.0595    1.3574  -11.9120 C   0  0  0  0  0  0  0  0  0  0  0  0
  -10.1231   -0.8002  -11.1890 C   0  0  0  0  0  0  0  0  0  0  0  0
   -7.7056   -0.7639  -11.8693 C   0  0  0  0  0  0  0  0  0  0  0  0
   -9.0875   -0.1576  -12.1092 C   0  0  0  0  0  0  0  0  0  0  0  0
   -7.9450   -2.8219  -19.1030 N   0  0  0  0  0  0  0  0  0  0  0  0
   -8.6696   -0.7117  -15.5949 N   0  0  0  0  0  0  0  0  0  0  0  0
   -8.0143    1.1078  -14.3044 O   0  0  0  0  0  0  0  0  0  0  0  0
   -9.4788   -0.4343  -13.4589 O   0  0  0  0  0  0  0  0  0  0  0  0
  -10.3186   -1.7486  -19.8582 H   0  0  0  0  0  0  0  0  0  0  0  0
  -10.9253   -2.9275  -18.6694 H   0  0  0  0  0  0  0  0  0  0  0  0
   -7.8983   -3.1954  -16.5091 H   0  0  0  0  0  0  0  0  0  0  0  0
   -9.5291   -3.7809  -16.8368 H   0  0  0  0  0  0  0  0  0  0  0  0
   -9.5384   -0.0656  -18.1192 H   0  0  0  0  0  0  0  0  0  0  0  0
   -7.9871   -0.3254  -18.9147 H   0  0  0  0  0  0  0  0  0  0  0  0
   -9.1992   -4.5917  -19.2524 H   0  0  0  0  0  0  0  0  0  0  0  0
   -9.0338   -3.6698  -20.7641 H   0  0  0  0  0  0  0  0  0  0  0  0
  -10.4905   -1.6347  -15.9545 H   0  0  0  0  0  0  0  0  0  0  0  0
   -9.5020   -2.4692  -14.7511 H   0  0  0  0  0  0  0  0  0  0  0  0
   -6.8914   -0.7669  -16.7596 H   0  0  0  0  0  0  0  0  0  0  0  0
   -7.7337    0.7805  -16.6790 H   0  0  0  0  0  0  0  0  0  0  0  0
   -8.3174    1.8225  -12.5708 H   0  0  0  0  0  0  0  0  0  0  0  0
  -10.0361    1.8087  -12.1151 H   0  0  0  0  0  0  0  0  0  0  0  0
   -8.7665    1.6130  -10.8873 H   0  0  0  0  0  0  0  0  0  0  0  0
  -10.1466   -1.8873  -11.3272 H   0  0  0  0  0  0  0  0  0  0  0  0
  -11.1308   -0.4376  -11.4221 H   0  0  0  0  0  0  0  0  0  0  0  0
   -9.9136   -0.5891  -10.1354 H   0  0  0  0  0  0  0  0  0  0  0  0
   -7.7254   -1.8505  -12.0107 H   0  0  0  0  0  0  0  0  0  0  0  0
   -6.9565   -0.3409  -12.5464 H   0  0  0  0  0  0  0  0  0  0  0  0
   -7.3786   -0.5923  -10.8373 H   0  0  0  0  0  0  0  0  0  0  0  0
   -7.2497   -3.4138  -18.6495 H   0  0  0  0  0  0  0  0  0  0  0  0
  1 14  1  0  0  0  0
  1 15  2  0  0  0  0
  1 16  1  0  0  0  0
  2  5  1  0  0  0  0
  2  8  1  0  0  0  0
  3  6  1  0  0  0  0
  3  8  1  0  0  0  0
  4  7  1  0  0  0  0
  4  8  1  0  0  0  0
  5 13  1  0  0  0  0
  6 14  1  0  0  0  0
  7 14  1  0  0  0  0
  8 13  1  0  0  0  0
  9 12  1  0  0  0  0
 10 12  1  0  0  0  0
 11 12  1  0  0  0  0
 12 16  1  0  0  0  0
  2 17  1  0  0  0  0
  2 18  1  0  0  0  0
  3 19  1  0  0  0  0
  3 20  1  0  0  0  0
  4 21  1  0  0  0  0
  4 22  1  0  0  0  0
  5 23  1  0  0  0  0
  5 24  1  0  0  0  0
  6 25  1  0  0  0  0
  6 26  1  0  0  0  0
  7 27  1  0  0  0  0
  7 28  1  0  0  0  0
  9 29  1  0  0  0  0
  9 30  1  0  0  0  0
  9 31  1  0  0  0  0
 10 32  1  0  0  0  0
 10 33  1  0  0  0  0
 10 34  1  0  0  0  0
 11 35  1  0  0  0  0
 11 36  1  0  0  0  0
 11 37  1  0  0  0  0
 13 38  1  0  0  0  0
M  END
> <id>
EN300-182120

> <smiles>
Cl.CC(C)(C)OC(=O)N1CCC2(CCN2)CC1

> <MDLNUMBER>
MFCD26954753

> <IUPAC Name>
tert-butyl 1,7-diazaspiro[3.5]nonane-7-carboxylate hydrochloride

> <CAS>
1955492-91-7

> <Purity>
95

> <URL>
https://www.enaminestore.com/catalog/EN300-182120

> <Saltdate>
Cl

> <ROCS_ShapeQuery>
amalgated

> <ROCS_TanimotoCombo>
0.837 

> <ROCS_ShapeTanimoto>
0.559 

> <ROCS_ColorTanimoto>
0.278 

> <ROCS_RefTversky>
0.522 

> <ROCS_RefColorTversky>
0.407 

> <ROCS_RefTverskyCombo>
0.929 

> <ROCS_FitTversky>
1.145 

> <ROCS_FitColorTversky>
0.467 

> <ROCS_FitTverskyCombo>
1.613 

> <ROCS_ColorScore>
-2.830

> <ROCS_Overlap>
855.734

> <ROCS_Rank>
275                 

$$$$
untitled-dbase-34455_61
  -OEChem-10092318153D

 38 39  0     0  0  0  0  0  0999 V2000
   -8.6652    0.0734  -14.4379 C   0  0  0  0  0  0  0  0  0  0  0  0
  -10.0232   -2.5172  -19.1391 C   0  0  0  0  0  0  0  0  0  0  0  0
   -8.9122   -2.8710  -16.7905 C   0  0  0  0  0  0  0  0  0  0  0  0
   -8.6047   -0.6488  -18.0590 C   0  0  0  0  0  0  0  0  0  0  0  0
   -9.0666   -3.5917  -19.6725 C   0  0  0  0  0  0  0  0  0  0  0  0
   -9.4624   -1.9423  -15.7139 C   0  0  0  0  0  0  0  0  0  0  0  0
   -7.8829   -0.3035  -16.7618 C   0  0  0  0  0  0  0  0  0  0  0  0
   -8.8795   -2.1550  -18.1501 C   0  0  0  0  0  0  0  0  0  0  0  0
   -9.0595    1.3574  -11.9120 C   0  0  0  0  0  0  0  0  0  0  0  0
  -10.1231   -0.8002  -11.1890 C   0  0  0  0  0  0  0  0  0  0  0  0
   -7.7056   -0.7639  -11.8693 C   0  0  0  0  0  0  0  0  0  0  0  0
   -9.0875   -0.1576  -12.1092 C   0  0  0  0  0  0  0  0  0  0  0  0
   -7.9450   -2.8219  -19.1030 N   0  0  0  0  0  0  0  0  0  0  0  0
   -8.6696   -0.7117  -15.5949 N   0  0  0  0  0  0  0  0  0  0  0  0
   -8.0143    1.1078  -14.3044 O   0  0  0  0  0  0  0  0  0  0  0  0
   -9.4788   -0.4343  -13.4589 O   0  0  0  0  0  0  0  0  0  0  0  0
  -10.3186   -1.7486  -19.8582 H   0  0  0  0  0  0  0  0  0  0  0  0
  -10.9253   -2.9275  -18.6694 H   0  0  0  0  0  0  0  0  0  0  0  0
   -7.8983   -3.1954  -16.5091 H   0  0  0  0  0  0  0  0  0  0  0  0
   -9.5291   -3.7809  -16.8368 H   0  0  0  0  0  0  0  0  0  0  0  0
   -9.5384   -0.0656  -18.1192 H   0  0  0  0  0  0  0  0  0  0  0  0
   -7.9871   -0.3254  -18.9147 H   0  0  0  0  0  0  0  0  0  0  0  0
   -9.1992   -4.5917  -19.2524 H   0  0  0  0  0  0  0  0  0  0  0  0
   -9.0338   -3.6698  -20.7641 H   0  0  0  0  0  0  0  0  0  0  0  0
  -10.4905   -1.6347  -15.9545 H   0  0  0  0  0  0  0  0  0  0  0  0
   -9.5020   -2.4692  -14.7511 H   0  0  0  0  0  0  0  0  0  0  0  0
   -6.8914   -0.7669  -16.7596 H   0  0  0  0  0  0  0  0  0  0  0  0
   -7.7337    0.7805  -16.6790 H   0  0  0  0  0  0  0  0  0  0  0  0
   -8.3174    1.8225  -12.5708 H   0  0  0  0  0  0  0  0  0  0  0  0
  -10.0361    1.8087  -12.1151 H   0  0  0  0  0  0  0  0  0  0  0  0
   -8.7665    1.6130  -10.8873 H   0  0  0  0  0  0  0  0  0  0  0  0
  -10.1466   -1.8873  -11.3272 H   0  0  0  0  0  0  0  0  0  0  0  0
  -11.1308   -0.4376  -11.4221 H   0  0  0  0  0  0  0  0  0  0  0  0
   -9.9136   -0.5891  -10.1354 H   0  0  0  0  0  0  0  0  0  0  0  0
   -7.7254   -1.8505  -12.0107 H   0  0  0  0  0  0  0  0  0  0  0  0
   -6.9565   -0.3409  -12.5464 H   0  0  0  0  0  0  0  0  0  0  0  0
   -7.3786   -0.5923  -10.8373 H   0  0  0  0  0  0  0  0  0  0  0  0
   -7.2497   -3.4138  -18.6495 H   0  0  0  0  0  0  0  0  0  0  0  0
  1 14  1  0  0  0  0
  1 15  2  0  0  0  0
  1 16  1  0  0  0  0
  2  5  1  0  0  0  0
  2  8  1  0  0  0  0
  3  6  1  0  0  0  0
  3  8  1  0  0  0  0
  4  7  1  0  0  0  0
  4  8  1  0  0  0  0
  5 13  1  0  0  0  0
  6 14  1  0  0  0  0
  7 14  1  0  0  0  0
  8 13  1  0  0  0  0
  9 12  1  0  0  0  0
 10 12  1  0  0  0  0
 11 12  1  0  0  0  0
 12 16  1  0  0  0  0
  2 17  1  0  0  0  0
  2 18  1  0  0  0  0
  3 19  1  0  0  0  0
  3 20  1  0  0  0  0
  4 21  1  0  0  0  0
  4 22  1  0  0  0  0
  5 23  1  0  0  0  0
  5 24  1  0  0  0  0
  6 25  1  0  0  0  0
  6 26  1  0  0  0  0
  7 27  1  0  0  0  0
  7 28  1  0  0  0  0
  9 29  1  0  0  0  0
  9 30  1  0  0  0  0
  9 31  1  0  0  0  0
 10 32  1  0  0  0  0
 10 33  1  0  0  0  0
 10 34  1  0  0  0  0
 11 35  1  0  0  0  0
 11 36  1  0  0  0  0
 11 37  1  0  0  0  0
 13 38  1  0  0  0  0
M  END
> <id>
EN300-64081

> <smiles>
CC(C)(C)OC(=O)N1CCC2(CCN2)CC1

> <MDLNUMBER>
MFCD14581195

> <IUPAC Name>
tert-butyl 1,7-diazaspiro[3.5]nonane-7-carboxylate

> <CAS>
1180112-41-7

> <Purity>
80

> <URL>
https://www.enaminestore.com/catalog/EN300-64081

> <ROCS_ShapeQuery>
amalgated

> <ROCS_TanimotoCombo>
0.837 

> <ROCS_ShapeTanimoto>
0.559 

> <ROCS_ColorTanimoto>
0.278 

> <ROCS_RefTversky>
0.522 

> <ROCS_RefColorTversky>
0.407 

> <ROCS_RefTverskyCombo>
0.929 

> <ROCS_FitTversky>
1.145 

> <ROCS_FitColorTversky>
0.467 

> <ROCS_FitTverskyCombo>
1.613 

> <ROCS_ColorScore>
-2.830

> <ROCS_Overlap>
855.734

> <ROCS_Rank>
276                 

$$$$
untitled-dbase-37929_0
  -OEChem-10092318153D

 34 36  0     1  0  0  0  0  0999 V2000
   -7.7906    0.3518  -19.1070 C   0  0  0  0  0  0  0  0  0  0  0  0
   -6.8913    1.8671  -17.4750 C   0  0  0  0  0  0  0  0  0  0  0  0
   -8.2089   -0.5321  -18.0916 C   0  0  0  0  0  0  0  0  0  0  0  0
   -7.9469   -0.2183  -16.7377 C   0  0  0  0  0  0  0  0  0  0  0  0
   -7.1342    1.5400  -18.8011 C   0  0  0  0  0  0  0  0  0  0  0  0
   -7.2990    1.0027  -16.4576 C   0  0  0  0  0  0  0  0  0  0  0  0
   -8.0758   -1.0672  -13.1582 C   0  0  0  0  0  0  0  0  0  0  0  0
   -9.0869    0.0062  -13.5075 C   0  0  0  0  0  0  0  0  0  0  0  0
   -9.7165   -2.4149  -17.3573 C   0  0  0  0  0  0  0  0  0  0  0  0
   -7.3556   -1.3300  -14.4753 C   0  0  0  0  0  0  0  0  0  0  0  0
   -9.6224   -0.4429  -14.8613 C   0  0  0  0  0  0  0  0  0  0  0  0
   -8.8498   -2.5210  -16.1091 C   0  0  0  0  0  0  0  0  0  0  0  0
   -8.9174   -1.8050  -18.5125 C   0  0  2  0  0  0  0  0  0  0  0  0
   -8.4242   -1.1233  -15.5922 C   0  0  0  0  0  0  0  0  0  0  0  0
   -7.9556   -2.7852  -19.0315 N   0  0  0  0  0  0  0  0  0  0  0  0
   -6.7472    2.3667  -19.7809 F   0  0  0  0  0  0  0  0  0  0  0  0
   -7.0632    1.3948  -15.1986 F   0  0  0  0  0  0  0  0  0  0  0  0
   -7.9819    0.1139  -20.1511 H   0  0  0  0  0  0  0  0  0  0  0  0
   -6.3914    2.7986  -17.2270 H   0  0  0  0  0  0  0  0  0  0  0  0
   -7.3895   -0.7509  -12.3675 H   0  0  0  0  0  0  0  0  0  0  0  0
   -8.5877   -1.9764  -12.8212 H   0  0  0  0  0  0  0  0  0  0  0  0
   -9.8826    0.0764  -12.7594 H   0  0  0  0  0  0  0  0  0  0  0  0
   -8.6112    0.9888  -13.5746 H   0  0  0  0  0  0  0  0  0  0  0  0
  -10.0969   -3.4062  -17.6334 H   0  0  0  0  0  0  0  0  0  0  0  0
  -10.5983   -1.7958  -17.1488 H   0  0  0  0  0  0  0  0  0  0  0  0
   -6.4958   -0.6601  -14.5662 H   0  0  0  0  0  0  0  0  0  0  0  0
   -6.9343   -2.3423  -14.4754 H   0  0  0  0  0  0  0  0  0  0  0  0
  -10.4361   -1.1587  -14.6888 H   0  0  0  0  0  0  0  0  0  0  0  0
  -10.0560    0.3990  -15.4126 H   0  0  0  0  0  0  0  0  0  0  0  0
   -9.3926   -3.0705  -15.3296 H   0  0  0  0  0  0  0  0  0  0  0  0
   -7.9623   -3.1255  -16.3393 H   0  0  0  0  0  0  0  0  0  0  0  0
   -9.6297   -1.5674  -19.3131 H   0  0  0  0  0  0  0  0  0  0  0  0
   -8.4618   -3.5909  -19.3053 H   0  0  0  0  0  0  0  0  0  0  0  0
   -7.4933   -2.3750  -19.8051 H   0  0  0  0  0  0  0  0  0  0  0  0
  1  3  2  0  0  0  0
  1  5  1  0  0  0  0
  2  5  2  0  0  0  0
  2  6  1  0  0  0  0
  3  4  1  0  0  0  0
  3 13  1  0  0  0  0
  4  6  2  0  0  0  0
  4 14  1  0  0  0  0
  5 16  1  0  0  0  0
  6 17  1  0  0  0  0
  7  8  1  0  0  0  0
  7 10  1  0  0  0  0
  8 11  1  0  0  0  0
  9 12  1  0  0  0  0
  9 13  1  0  0  0  0
 10 14  1  0  0  0  0
 11 14  1  0  0  0  0
 12 14  1  0  0  0  0
 13 15  1  0  0  0  0
  1 18  1  0  0  0  0
  2 19  1  0  0  0  0
  7 20  1  0  0  0  0
  7 21  1  0  0  0  0
  8 22  1  0  0  0  0
  8 23  1  0  0  0  0
  9 24  1  0  0  0  0
  9 25  1  0  0  0  0
 10 26  1  0  0  0  0
 10 27  1  0  0  0  0
 11 28  1  0  0  0  0
 11 29  1  0  0  0  0
 12 30  1  0  0  0  0
 12 31  1  0  0  0  0
 13 32  1  0  0  0  0
 15 33  1  0  0  0  0
 15 34  1  0  0  0  0
M  END
> <id>
EN300-1458078

> <smiles>
NC1CCC2(CCCC2)C=3C(F)=CC(F)=CC13

> <IUPAC Name>
6',8'-difluoro-3',4'-dihydro-2'H-spiro[cyclopentane-1,1'-naphthalene]-4'-amine

> <CAS>
2171988-75-1

> <URL>
https://www.enaminestore.com/catalog/EN300-1458078

> <ROCS_ShapeQuery>
amalgated

> <ROCS_TanimotoCombo>
0.836 

> <ROCS_ShapeTanimoto>
0.501 

> <ROCS_ColorTanimoto>
0.336 

> <ROCS_RefTversky>
0.498 

> <ROCS_RefColorTversky>
0.437 

> <ROCS_RefTverskyCombo>
0.935 

> <ROCS_FitTversky>
1.010 

> <ROCS_FitColorTversky>
0.591 

> <ROCS_FitTverskyCombo>
1.601 

> <ROCS_ColorScore>
-3.017

> <ROCS_Overlap>
818.768

> <ROCS_Rank>
277                 

$$$$
untitled-dbase-28125_124
  -OEChem-10092318153D

 39 40  0     1  0  0  0  0  0999 V2000
   -8.9159    0.1950  -13.2328 C   0  0  0  0  0  0  0  0  0  0  0  0
   -7.3072   -1.6501  -16.7465 C   0  0  0  0  0  0  0  0  0  0  0  0
   -7.2195   -1.5948  -18.2646 C   0  0  0  0  0  0  0  0  0  0  0  0
   -9.0875   -1.7653  -14.8741 C   0  0  0  0  0  0  0  0  0  0  0  0
   -8.9027    0.1559  -15.8115 C   0  0  0  0  0  0  0  0  0  0  0  0
   -9.3860   -2.7206  -18.2432 C   0  0  2  0  0  0  0  0  0  0  0  0
   -8.7367   -1.3055  -16.3115 C   0  0  0  0  0  0  0  0  0  0  0  0
   -9.5881   -4.0763  -17.5743 C   0  0  0  0  0  0  0  0  0  0  0  0
  -11.0694    0.1699  -11.3582 C   0  0  0  0  0  0  0  0  0  0  0  0
   -9.6854   -1.4842  -10.0708 C   0  0  0  0  0  0  0  0  0  0  0  0
   -8.8219    0.8440  -10.4476 C   0  0  0  0  0  0  0  0  0  0  0  0
   -9.6518   -0.2981  -11.0321 C   0  0  0  0  0  0  0  0  0  0  0  0
   -8.0525   -2.6436  -18.8490 N   0  0  0  0  0  0  0  0  0  0  0  0
   -8.9533   -0.3834  -14.4709 N   0  0  0  0  0  0  0  0  0  0  0  0
   -8.7960    1.4013  -13.0376 O   0  0  0  0  0  0  0  0  0  0  0  0
   -9.7087   -1.6705  -17.3257 O   0  0  0  0  0  0  0  0  0  0  0  0
   -9.0286   -0.7414  -12.2426 O   0  0  0  0  0  0  0  0  0  0  0  0
   -7.0487   -2.6558  -16.3975 H   0  0  0  0  0  0  0  0  0  0  0  0
   -6.5841   -0.9572  -16.3058 H   0  0  0  0  0  0  0  0  0  0  0  0
   -7.5346   -0.6153  -18.6379 H   0  0  0  0  0  0  0  0  0  0  0  0
   -6.1827   -1.7475  -18.5765 H   0  0  0  0  0  0  0  0  0  0  0  0
  -10.1027   -2.1487  -14.7377 H   0  0  0  0  0  0  0  0  0  0  0  0
   -8.3689   -2.4338  -14.3928 H   0  0  0  0  0  0  0  0  0  0  0  0
   -8.0545    0.8220  -15.9854 H   0  0  0  0  0  0  0  0  0  0  0  0
   -9.8334    0.6498  -16.1031 H   0  0  0  0  0  0  0  0  0  0  0  0
  -10.1540   -2.6615  -19.0824 H   0  0  0  0  0  0  0  0  0  0  0  0
   -8.8786   -4.1984  -16.7553 H   0  0  0  0  0  0  0  0  0  0  0  0
   -9.4329   -4.8770  -18.2979 H   0  0  0  0  0  0  0  0  0  0  0  0
  -10.6011   -4.1501  -17.1777 H   0  0  0  0  0  0  0  0  0  0  0  0
  -11.0496    1.0213  -12.0480 H   0  0  0  0  0  0  0  0  0  0  0  0
  -11.6644   -0.6302  -11.8104 H   0  0  0  0  0  0  0  0  0  0  0  0
  -11.5844    0.5160  -10.4548 H   0  0  0  0  0  0  0  0  0  0  0  0
   -8.6704   -1.8234   -9.8341 H   0  0  0  0  0  0  0  0  0  0  0  0
  -10.1987   -2.3398  -10.5243 H   0  0  0  0  0  0  0  0  0  0  0  0
  -10.1936   -1.2313   -9.1347 H   0  0  0  0  0  0  0  0  0  0  0  0
   -7.8051    0.5085  -10.2136 H   0  0  0  0  0  0  0  0  0  0  0  0
   -8.7561    1.6899  -11.1396 H   0  0  0  0  0  0  0  0  0  0  0  0
   -9.2553    1.1979   -9.5052 H   0  0  0  0  0  0  0  0  0  0  0  0
   -8.1448   -2.4830  -19.8625 H   0  0  0  0  0  0  0  0  0  0  0  0
  1 14  1  0  0  0  0
  1 15  2  0  0  0  0
  1 17  1  0  0  0  0
  2  3  1  0  0  0  0
  2  7  1  0  0  0  0
  3 13  1  0  0  0  0
  4  7  1  0  0  0  0
  4 14  1  0  0  0  0
  5  7  1  0  0  0  0
  5 14  1  0  0  0  0
  6  8  1  0  0  0  0
  6 13  1  0  0  0  0
  6 16  1  0  0  0  0
  7 16  1  0  0  0  0
  9 12  1  0  0  0  0
 10 12  1  0  0  0  0
 11 12  1  0  0  0  0
 12 17  1  0  0  0  0
  2 18  1  0  0  0  0
  2 19  1  0  0  0  0
  3 20  1  0  0  0  0
  3 21  1  0  0  0  0
  4 22  1  0  0  0  0
  4 23  1  0  0  0  0
  5 24  1  0  0  0  0
  5 25  1  0  0  0  0
  6 26  1  0  0  0  0
  8 27  1  0  0  0  0
  8 28  1  0  0  0  0
  8 29  1  0  0  0  0
  9 30  1  0  0  0  0
  9 31  1  0  0  0  0
  9 32  1  0  0  0  0
 10 33  1  0  0  0  0
 10 34  1  0  0  0  0
 10 35  1  0  0  0  0
 11 36  1  0  0  0  0
 11 37  1  0  0  0  0
 11 38  1  0  0  0  0
 13 39  1  0  0  0  0
M  END
> <id>
EN300-1279975

> <smiles>
CC1NCCC2(CN(C2)C(=O)OC(C)(C)C)O1

> <IUPAC Name>
tert-butyl 6-methyl-5-oxa-2,7-diazaspiro[3.5]nonane-2-carboxylate

> <CAS>
2167264-53-9

> <URL>
https://www.enaminestore.com/catalog/EN300-1279975

> <ROCS_ShapeQuery>
amalgated

> <ROCS_TanimotoCombo>
0.836 

> <ROCS_ShapeTanimoto>
0.603 

> <ROCS_ColorTanimoto>
0.233 

> <ROCS_RefTversky>
0.558 

> <ROCS_RefColorTversky>
0.379 

> <ROCS_RefTverskyCombo>
0.936 

> <ROCS_FitTversky>
1.154 

> <ROCS_FitColorTversky>
0.378 

> <ROCS_FitTverskyCombo>
1.532 

> <ROCS_ColorScore>
-2.651

> <ROCS_Overlap>
916.499

> <ROCS_Rank>
278                 

$$$$
untitled-dbase-25020_40
  -OEChem-10092318153D

 40 42  0     1  0  0  0  0  0999 V2000
   -7.5728   -0.7154  -17.4063 C   0  0  0  0  0  0  0  0  0  0  0  0
   -9.7675   -1.8872  -17.2240 C   0  0  0  0  0  0  0  0  0  0  0  0
   -7.0190   -1.9511  -18.1172 C   0  0  0  0  0  0  0  0  0  0  0  0
   -9.1531   -3.0799  -17.9579 C   0  0  0  0  0  0  0  0  0  0  0  0
  -10.2056   -0.4364  -11.5941 C   0  0  0  0  0  0  0  0  0  0  0  0
   -9.0138   -1.5347  -14.0975 C   0  0  0  0  0  0  0  0  0  0  0  0
   -8.9471   -0.1264  -10.7938 C   0  0  0  0  0  0  0  0  0  0  0  0
   -7.7306    0.2450  -12.7725 C   0  0  0  0  0  0  0  0  0  0  0  0
   -8.8006    0.8296  -14.9623 C   0  0  0  0  0  0  0  0  0  0  0  0
   -8.9645   -0.0303  -13.6732 C   0  0  1  0  0  0  0  0  0  0  0  0
   -8.7334   -1.0450  -16.4428 C   0  0  0  0  0  0  0  0  0  0  0  0
  -10.5802    1.6450  -12.7530 C   0  0  0  0  0  0  0  0  0  0  0  0
   -8.0702   -2.6596  -18.8454 N   0  0  0  0  0  0  0  0  0  0  0  0
   -8.1918   -1.7800  -15.2812 N   0  0  0  0  0  0  0  0  0  0  0  0
  -10.2218    0.2344  -12.9083 N   0  0  2  0  0  0  0  0  0  0  0  0
   -7.7908   -0.4828  -11.5454 O   0  0  0  0  0  0  0  0  0  0  0  0
   -9.4008    0.1850  -16.0840 O   0  0  0  0  0  0  0  0  0  0  0  0
   -6.7513   -0.2210  -16.8596 H   0  0  0  0  0  0  0  0  0  0  0  0
   -7.9109   -0.0037  -18.1780 H   0  0  0  0  0  0  0  0  0  0  0  0
  -10.3064   -1.2744  -17.9673 H   0  0  0  0  0  0  0  0  0  0  0  0
  -10.5458   -2.2571  -16.5290 H   0  0  0  0  0  0  0  0  0  0  0  0
   -6.2071   -1.6748  -18.7998 H   0  0  0  0  0  0  0  0  0  0  0  0
   -6.5900   -2.6291  -17.3717 H   0  0  0  0  0  0  0  0  0  0  0  0
   -8.7483   -3.7821  -17.2200 H   0  0  0  0  0  0  0  0  0  0  0  0
   -9.9198   -3.6227  -18.5247 H   0  0  0  0  0  0  0  0  0  0  0  0
  -10.2620   -1.5296  -11.7293 H   0  0  0  0  0  0  0  0  0  0  0  0
  -11.0949   -0.1483  -11.0080 H   0  0  0  0  0  0  0  0  0  0  0  0
   -8.6560   -2.1685  -13.2805 H   0  0  0  0  0  0  0  0  0  0  0  0
  -10.0324   -1.8593  -14.3154 H   0  0  0  0  0  0  0  0  0  0  0  0
   -8.8932    0.9460  -10.5844 H   0  0  0  0  0  0  0  0  0  0  0  0
   -8.9397   -0.6529   -9.8326 H   0  0  0  0  0  0  0  0  0  0  0  0
   -6.7899   -0.0043  -13.2882 H   0  0  0  0  0  0  0  0  0  0  0  0
   -7.6553    1.3022  -12.4882 H   0  0  0  0  0  0  0  0  0  0  0  0
   -9.2395    1.8239  -14.8527 H   0  0  0  0  0  0  0  0  0  0  0  0
   -7.7458    0.9765  -15.2095 H   0  0  0  0  0  0  0  0  0  0  0  0
  -10.5886    2.1324  -13.7391 H   0  0  0  0  0  0  0  0  0  0  0  0
  -11.5788    1.7214  -12.2979 H   0  0  0  0  0  0  0  0  0  0  0  0
   -9.8429    2.1414  -12.1050 H   0  0  0  0  0  0  0  0  0  0  0  0
   -8.4460   -2.0512  -19.5725 H   0  0  0  0  0  0  0  0  0  0  0  0
   -7.2423   -1.4848  -15.1048 H   0  0  0  0  0  0  0  0  0  0  0  0
  1  3  1  0  0  0  0
  1 11  1  0  0  0  0
  2  4  1  0  0  0  0
  2 11  1  0  0  0  0
  3 13  1  0  0  0  0
  4 13  1  0  0  0  0
  5  7  1  0  0  0  0
  5 15  1  0  0  0  0
  6 10  1  0  0  0  0
  6 14  1  0  0  0  0
  7 16  1  0  0  0  0
  8 10  1  0  0  0  0
  8 16  1  0  0  0  0
  9 10  1  0  0  0  0
  9 17  1  0  0  0  0
 10 15  1  0  0  0  0
 11 14  1  0  0  0  0
 11 17  1  0  0  0  0
 12 15  1  0  0  0  0
  1 18  1  0  0  0  0
  1 19  1  0  0  0  0
  2 20  1  0  0  0  0
  2 21  1  0  0  0  0
  3 22  1  0  0  0  0
  3 23  1  0  0  0  0
  4 24  1  0  0  0  0
  4 25  1  0  0  0  0
  5 26  1  0  0  0  0
  5 27  1  0  0  0  0
  6 28  1  0  0  0  0
  6 29  1  0  0  0  0
  7 30  1  0  0  0  0
  7 31  1  0  0  0  0
  8 32  1  0  0  0  0
  8 33  1  0  0  0  0
  9 34  1  0  0  0  0
  9 35  1  0  0  0  0
 12 36  1  0  0  0  0
 12 37  1  0  0  0  0
 12 38  1  0  0  0  0
 13 39  1  0  0  0  0
 14 40  1  0  0  0  0
M  END
> <id>
EN300-1280627

> <smiles>
CN1CCOCC21CNC3(CCNCC3)OC2

> <IUPAC Name>
1-methyl-4,8-dioxa-1,12,15-triazadispiro[5.2.5^{9}.2^{6}]hexadecane

> <CAS>
2172202-68-3

> <URL>
https://www.enaminestore.com/catalog/EN300-1280627

> <ROCS_ShapeQuery>
amalgated

> <ROCS_TanimotoCombo>
0.836 

> <ROCS_ShapeTanimoto>
0.566 

> <ROCS_ColorTanimoto>
0.270 

> <ROCS_RefTversky>
0.538 

> <ROCS_RefColorTversky>
0.506 

> <ROCS_RefTverskyCombo>
1.043 

> <ROCS_FitTversky>
1.102 

> <ROCS_FitColorTversky>
0.367 

> <ROCS_FitTverskyCombo>
1.469 

> <ROCS_ColorScore>
-3.616

> <ROCS_Overlap>
883.634

> <ROCS_Rank>
279                 

$$$$
untitled-dbase-45804_35
  -OEChem-10092318153D

 35 36  0     1  0  0  0  0  0999 V2000
   -8.5970   -0.0567  -14.5517 C   0  0  0  0  0  0  0  0  0  0  0  0
   -9.3390   -2.9084  -16.9449 C   0  0  0  0  0  0  0  0  0  0  0  0
   -9.6239   -1.8962  -15.8374 C   0  0  0  0  0  0  0  0  0  0  0  0
   -7.3917   -1.4258  -19.2519 C   0  0  0  0  0  0  0  0  0  0  0  0
   -7.5063   -0.8179  -16.6999 C   0  0  0  0  0  0  0  0  0  0  0  0
   -8.2007   -0.8958  -18.0528 C   0  0  2  0  0  0  0  0  0  0  0  0
   -9.0742   -2.1557  -18.2404 C   0  0  1  0  0  0  0  0  0  0  0  0
  -10.0780    1.3854  -12.5740 C   0  0  0  0  0  0  0  0  0  0  0  0
   -9.9326   -0.7133  -11.2016 C   0  0  0  0  0  0  0  0  0  0  0  0
   -7.8344    0.5074  -11.8462 C   0  0  0  0  0  0  0  0  0  0  0  0
   -9.2530    0.1346  -12.2746 C   0  0  0  0  0  0  0  0  0  0  0  0
   -7.9825   -2.7582  -19.0325 N   0  0  0  0  0  0  0  0  0  0  0  0
   -8.5630   -0.8887  -15.6776 N   0  0  0  0  0  0  0  0  0  0  0  0
   -8.1595    1.0928  -14.5336 O   0  0  0  0  0  0  0  0  0  0  0  0
   -9.1765   -0.6568  -13.4657 O   0  0  0  0  0  0  0  0  0  0  0  0
   -8.4855   -3.5292  -16.6440 H   0  0  0  0  0  0  0  0  0  0  0  0
  -10.1940   -3.5827  -17.0649 H   0  0  0  0  0  0  0  0  0  0  0  0
  -10.5700   -1.3469  -16.0432 H   0  0  0  0  0  0  0  0  0  0  0  0
   -9.8030   -2.4347  -14.8818 H   0  0  0  0  0  0  0  0  0  0  0  0
   -7.6331   -0.9695  -20.2236 H   0  0  0  0  0  0  0  0  0  0  0  0
   -6.2959   -1.4031  -19.1368 H   0  0  0  0  0  0  0  0  0  0  0  0
   -6.7845   -1.6187  -16.5829 H   0  0  0  0  0  0  0  0  0  0  0  0
   -7.0045    0.1389  -16.5786 H   0  0  0  0  0  0  0  0  0  0  0  0
   -8.7076    0.0218  -18.2599 H   0  0  0  0  0  0  0  0  0  0  0  0
   -9.9973   -1.9690  -18.7862 H   0  0  0  0  0  0  0  0  0  0  0  0
   -9.5935    1.9968  -13.3437 H   0  0  0  0  0  0  0  0  0  0  0  0
  -11.0866    1.1310  -12.9158 H   0  0  0  0  0  0  0  0  0  0  0  0
  -10.1638    2.0195  -11.6842 H   0  0  0  0  0  0  0  0  0  0  0  0
   -9.3441   -1.6118  -10.9836 H   0  0  0  0  0  0  0  0  0  0  0  0
  -10.9137   -1.0624  -11.5435 H   0  0  0  0  0  0  0  0  0  0  0  0
  -10.0688   -0.1537  -10.2706 H   0  0  0  0  0  0  0  0  0  0  0  0
   -7.2424   -0.3896  -11.6314 H   0  0  0  0  0  0  0  0  0  0  0  0
   -7.3181    1.0850  -12.6198 H   0  0  0  0  0  0  0  0  0  0  0  0
   -7.8486    1.0971  -10.9225 H   0  0  0  0  0  0  0  0  0  0  0  0
   -8.3117   -3.1959  -19.8997 H   0  0  0  0  0  0  0  0  0  0  0  0
  1 13  1  0  0  0  0
  1 14  2  0  0  0  0
  1 15  1  0  0  0  0
  2  3  1  0  0  0  0
  2  7  1  6  0  0  0
  3 13  1  0  0  0  0
  4  6  1  6  0  0  0
  4 12  1  0  0  0  0
  5  6  1  0  0  0  0
  5 13  1  0  0  0  0
  6  7  1  0  0  0  0
  7 12  1  0  0  0  0
  8 11  1  0  0  0  0
  9 11  1  0  0  0  0
 10 11  1  0  0  0  0
 11 15  1  0  0  0  0
  2 16  1  0  0  0  0
  2 17  1  0  0  0  0
  3 18  1  0  0  0  0
  3 19  1  0  0  0  0
  4 20  1  0  0  0  0
  4 21  1  0  0  0  0
  5 22  1  0  0  0  0
  5 23  1  0  0  0  0
  6 24  1  0  0  0  0
  7 25  1  0  0  0  0
  8 26  1  0  0  0  0
  8 27  1  0  0  0  0
  8 28  1  0  0  0  0
  9 29  1  0  0  0  0
  9 30  1  0  0  0  0
  9 31  1  0  0  0  0
 10 32  1  0  0  0  0
 10 33  1  0  0  0  0
 10 34  1  0  0  0  0
 12 35  1  0  0  0  0
M  END
> <id>
EN300-6478270

> <smiles>
CC(C)(C)OC(=O)N1CC[C@@H]2NC[C@@H]2C1 |&1:10,13,r|

> <MDLNUMBER>
MFCD17016496

> <IUPAC Name>
rac-tert-butyl (1R,6S)-3,7-diazabicyclo[4.2.0]octane-3-carboxylate

> <CAS>
1250993-51-1

> <Purity>
95

> <URL>
https://www.enaminestore.com/catalog/EN300-6478270

> <ROCS_ShapeQuery>
amalgated

> <ROCS_TanimotoCombo>
0.836 

> <ROCS_ShapeTanimoto>
0.537 

> <ROCS_ColorTanimoto>
0.298 

> <ROCS_RefTversky>
0.501 

> <ROCS_RefColorTversky>
0.433 

> <ROCS_RefTverskyCombo>
0.933 

> <ROCS_FitTversky>
1.158 

> <ROCS_FitColorTversky>
0.490 

> <ROCS_FitTverskyCombo>
1.648 

> <ROCS_ColorScore>
-3.009

> <ROCS_Overlap>
820.316

> <ROCS_Rank>
280                 

$$$$
untitled-dbase-20055_125
  -OEChem-10092318153D

 42 44  0     1  0  0  0  0  0999 V2000
   -8.2709   -0.2871  -13.9678 C   0  0  0  0  0  0  0  0  0  0  0  0
  -10.8908   -0.6536  -17.5436 C   0  0  0  0  0  0  0  0  0  0  0  0
   -9.6578   -0.1930  -18.3026 C   0  0  0  0  0  0  0  0  0  0  0  0
  -10.6182   -2.1358  -17.3492 C   0  0  0  0  0  0  0  0  0  0  0  0
   -7.4498   -1.4537  -18.6240 C   0  0  0  0  0  0  0  0  0  0  0  0
   -8.4033   -3.3718  -17.7251 C   0  0  0  0  0  0  0  0  0  0  0  0
   -7.8900   -0.1473  -16.4570 C   0  0  0  0  0  0  0  0  0  0  0  0
   -8.8409   -2.1513  -15.5100 C   0  0  0  0  0  0  0  0  0  0  0  0
   -8.4861   -0.9334  -17.6273 C   0  0  1  0  0  0  0  0  0  0  0  0
   -9.1156   -2.2194  -17.0134 C   0  0  2  0  0  0  0  0  0  0  0  0
   -9.8919    0.8789  -12.2712 C   0  0  0  0  0  0  0  0  0  0  0  0
  -10.5115   -1.3849  -11.3765 C   0  0  0  0  0  0  0  0  0  0  0  0
   -8.2795   -0.3834  -10.8078 C   0  0  0  0  0  0  0  0  0  0  0  0
   -9.3695   -0.5005  -11.8723 C   0  0  0  0  0  0  0  0  0  0  0  0
   -7.9665   -2.7764  -18.9931 N   0  0  0  0  0  0  0  0  0  0  0  0
   -8.3675   -0.8048  -15.2510 N   0  0  0  0  0  0  0  0  0  0  0  0
   -7.7647    0.8000  -13.6982 O   0  0  0  0  0  0  0  0  0  0  0  0
   -8.8096   -1.1283  -13.0311 O   0  0  0  0  0  0  0  0  0  0  0  0
  -10.9648   -0.1433  -16.5778 H   0  0  0  0  0  0  0  0  0  0  0  0
  -11.8124   -0.4720  -18.1018 H   0  0  0  0  0  0  0  0  0  0  0  0
   -9.7521   -0.4811  -19.3574 H   0  0  0  0  0  0  0  0  0  0  0  0
   -9.5417    0.8959  -18.2753 H   0  0  0  0  0  0  0  0  0  0  0  0
  -11.2510   -2.5705  -16.5671 H   0  0  0  0  0  0  0  0  0  0  0  0
  -10.8453   -2.6717  -18.2806 H   0  0  0  0  0  0  0  0  0  0  0  0
   -7.3409   -0.8093  -19.5009 H   0  0  0  0  0  0  0  0  0  0  0  0
   -6.4592   -1.5699  -18.1697 H   0  0  0  0  0  0  0  0  0  0  0  0
   -7.5237   -3.7202  -17.1715 H   0  0  0  0  0  0  0  0  0  0  0  0
   -9.0536   -4.2354  -17.8931 H   0  0  0  0  0  0  0  0  0  0  0  0
   -6.7947   -0.1075  -16.4620 H   0  0  0  0  0  0  0  0  0  0  0  0
   -8.2565    0.8861  -16.4187 H   0  0  0  0  0  0  0  0  0  0  0  0
   -9.7524   -2.2886  -14.9123 H   0  0  0  0  0  0  0  0  0  0  0  0
   -8.1091   -2.8938  -15.1668 H   0  0  0  0  0  0  0  0  0  0  0  0
   -9.0752    1.5168  -12.6277 H   0  0  0  0  0  0  0  0  0  0  0  0
  -10.6493    0.8111  -13.0589 H   0  0  0  0  0  0  0  0  0  0  0  0
  -10.3331    1.3940  -11.4102 H   0  0  0  0  0  0  0  0  0  0  0  0
  -10.1413   -2.3756  -11.0891 H   0  0  0  0  0  0  0  0  0  0  0  0
  -11.2502   -1.5494  -12.1692 H   0  0  0  0  0  0  0  0  0  0  0  0
  -11.0208   -0.9417  -10.5146 H   0  0  0  0  0  0  0  0  0  0  0  0
   -7.9047   -1.3727  -10.5215 H   0  0  0  0  0  0  0  0  0  0  0  0
   -7.4349    0.2176  -11.1599 H   0  0  0  0  0  0  0  0  0  0  0  0
   -8.6751    0.0738   -9.8937 H   0  0  0  0  0  0  0  0  0  0  0  0
   -8.7794   -2.6563  -19.5988 H   0  0  0  0  0  0  0  0  0  0  0  0
  1 16  1  0  0  0  0
  1 17  2  0  0  0  0
  1 18  1  0  0  0  0
  2  3  1  0  0  0  0
  2  4  1  0  0  0  0
  3  9  1  0  0  0  0
  4 10  1  0  0  0  0
  5  9  1  0  0  0  0
  5 15  1  0  0  0  0
  6 10  1  0  0  0  0
  6 15  1  0  0  0  0
  7  9  1  0  0  0  0
  7 16  1  0  0  0  0
  8 10  1  0  0  0  0
  8 16  1  0  0  0  0
  9 10  1  0  0  0  0
 11 14  1  0  0  0  0
 12 14  1  0  0  0  0
 13 14  1  0  0  0  0
 14 18  1  0  0  0  0
  2 19  1  0  0  0  0
  2 20  1  0  0  0  0
  3 21  1  0  0  0  0
  3 22  1  0  0  0  0
  4 23  1  0  0  0  0
  4 24  1  0  0  0  0
  5 25  1  0  0  0  0
  5 26  1  0  0  0  0
  6 27  1  0  0  0  0
  6 28  1  0  0  0  0
  7 29  1  0  0  0  0
  7 30  1  0  0  0  0
  8 31  1  0  0  0  0
  8 32  1  0  0  0  0
 11 33  1  0  0  0  0
 11 34  1  0  0  0  0
 11 35  1  0  0  0  0
 12 36  1  0  0  0  0
 12 37  1  0  0  0  0
 12 38  1  0  0  0  0
 13 39  1  0  0  0  0
 13 40  1  0  0  0  0
 13 41  1  0  0  0  0
 15 42  1  0  0  0  0
M  END
> <id>
EN300-1716627

> <smiles>
CC(C)(C)OC(=O)N1CC23CCCC3(CNC2)C1

> <MDLNUMBER>
MFCD31665971

> <IUPAC Name>
tert-butyl 3,7-diazatricyclo[3.3.3.0,1,5]undecane-3-carboxylate

> <CAS>
2225144-72-7

> <Purity>
95

> <URL>
https://www.enaminestore.com/catalog/EN300-1716627

> <ROCS_ShapeQuery>
amalgated

> <ROCS_TanimotoCombo>
0.835 

> <ROCS_ShapeTanimoto>
0.569 

> <ROCS_ColorTanimoto>
0.267 

> <ROCS_RefTversky>
0.551 

> <ROCS_RefColorTversky>
0.428 

> <ROCS_RefTverskyCombo>
0.979 

> <ROCS_FitTversky>
1.059 

> <ROCS_FitColorTversky>
0.415 

> <ROCS_FitTverskyCombo>
1.474 

> <ROCS_ColorScore>
-3.001

> <ROCS_Overlap>
907.354

> <ROCS_Rank>
281                 

$$$$
untitled-dbase-37487_10
  -OEChem-10092318153D

 37 39  0     1  0  0  0  0  0999 V2000
   -8.9749   -1.7179  -18.3867 C   0  0  0  0  0  0  0  0  0  0  0  0
   -8.6000   -2.8257  -17.6337 C   0  0  0  0  0  0  0  0  0  0  0  0
   -9.0241   -0.4548  -17.7940 C   0  0  0  0  0  0  0  0  0  0  0  0
   -8.2900   -2.6722  -16.2850 C   0  0  0  0  0  0  0  0  0  0  0  0
   -8.6876   -0.2770  -16.4411 C   0  0  0  0  0  0  0  0  0  0  0  0
   -8.3522   -1.4090  -15.6858 C   0  0  0  0  0  0  0  0  0  0  0  0
   -9.9351   -0.3091  -13.2526 C   0  0  0  0  0  0  0  0  0  0  0  0
   -7.5746   -0.2057  -12.3259 C   0  0  0  0  0  0  0  0  0  0  0  0
   -8.0685    1.0617  -14.4257 C   0  0  0  0  0  0  0  0  0  0  0  0
  -10.2399    0.2952  -11.8823 C   0  0  0  0  0  0  0  0  0  0  0  0
   -8.2578   -0.9954  -11.2081 C   0  0  0  0  0  0  0  0  0  0  0  0
   -8.7440    1.0899  -15.8015 C   0  0  1  0  0  0  0  0  0  0  0  0
   -8.4332   -0.1967  -13.6178 C   0  0  0  0  0  0  0  0  0  0  0  0
  -10.3494   -1.2975  -10.0494 C   0  0  0  0  0  0  0  0  0  0  0  0
   -9.5108   -0.3545  -10.7850 N   0  0  0  0  0  0  0  0  0  0  0  0
   -8.0932    2.1352  -16.6000 N   0  0  0  0  0  0  0  0  0  0  0  0
   -8.0533   -1.3811  -14.3495 O   0  0  0  0  0  0  0  0  0  0  0  0
   -9.2308   -1.8349  -19.4356 H   0  0  0  0  0  0  0  0  0  0  0  0
   -8.5593   -3.8085  -18.0933 H   0  0  0  0  0  0  0  0  0  0  0  0
   -9.3270    0.3938  -18.4031 H   0  0  0  0  0  0  0  0  0  0  0  0
   -8.0123   -3.5447  -15.6986 H   0  0  0  0  0  0  0  0  0  0  0  0
  -10.2550   -1.3565  -13.2317 H   0  0  0  0  0  0  0  0  0  0  0  0
  -10.5372    0.1978  -14.0172 H   0  0  0  0  0  0  0  0  0  0  0  0
   -7.3971    0.8190  -11.9898 H   0  0  0  0  0  0  0  0  0  0  0  0
   -6.6050   -0.6664  -12.5288 H   0  0  0  0  0  0  0  0  0  0  0  0
   -6.9733    1.0791  -14.5616 H   0  0  0  0  0  0  0  0  0  0  0  0
   -8.3261    1.9725  -13.8627 H   0  0  0  0  0  0  0  0  0  0  0  0
   -9.9689    1.3672  -11.9166 H   0  0  0  0  0  0  0  0  0  0  0  0
  -11.3314    0.2671  -11.6954 H   0  0  0  0  0  0  0  0  0  0  0  0
   -8.4373   -2.0306  -11.5336 H   0  0  0  0  0  0  0  0  0  0  0  0
   -7.5656   -1.0463  -10.3562 H   0  0  0  0  0  0  0  0  0  0  0  0
   -9.7951    1.3650  -15.6851 H   0  0  0  0  0  0  0  0  0  0  0  0
   -9.7624   -1.7574   -9.2407 H   0  0  0  0  0  0  0  0  0  0  0  0
  -11.2105   -0.7646   -9.6199 H   0  0  0  0  0  0  0  0  0  0  0  0
  -10.7072   -2.0809  -10.7337 H   0  0  0  0  0  0  0  0  0  0  0  0
   -8.5500    2.1767  -17.4781 H   0  0  0  0  0  0  0  0  0  0  0  0
   -8.1845    2.9923  -16.1114 H   0  0  0  0  0  0  0  0  0  0  0  0
  1  2  2  0  0  0  0
  1  3  1  0  0  0  0
  2  4  1  0  0  0  0
  3  5  2  0  0  0  0
  4  6  2  0  0  0  0
  5  6  1  0  0  0  0
  5 12  1  0  0  0  0
  6 17  1  0  0  0  0
  7 10  1  0  0  0  0
  7 13  1  0  0  0  0
  8 11  1  0  0  0  0
  8 13  1  0  0  0  0
  9 12  1  0  0  0  0
  9 13  1  0  0  0  0
 10 15  1  0  0  0  0
 11 15  1  0  0  0  0
 12 16  1  0  0  0  0
 13 17  1  0  0  0  0
 14 15  1  0  0  0  0
  1 18  1  0  0  0  0
  2 19  1  0  0  0  0
  3 20  1  0  0  0  0
  4 21  1  0  0  0  0
  7 22  1  0  0  0  0
  7 23  1  0  0  0  0
  8 24  1  0  0  0  0
  8 25  1  0  0  0  0
  9 26  1  0  0  0  0
  9 27  1  0  0  0  0
 10 28  1  0  0  0  0
 10 29  1  0  0  0  0
 11 30  1  0  0  0  0
 11 31  1  0  0  0  0
 12 32  1  0  0  0  0
 14 33  1  0  0  0  0
 14 34  1  0  0  0  0
 14 35  1  0  0  0  0
 16 36  1  0  0  0  0
 16 37  1  0  0  0  0
M  END
> <id>
EN300-30594

> <smiles>
CN1CCC2(CC1)CC(N)C=3C=CC=CC3O2

> <MDLNUMBER>
MFCD06362451

> <IUPAC Name>
1'-methyl-3,4-dihydrospiro[1-benzopyran-2,4'-piperidine]-4-amine

> <CAS>
70505-90-7

> <Purity>
95

> <URL>
https://www.enaminestore.com/catalog/EN300-30594

> <MP>
123-124

> <ROCS_ShapeQuery>
amalgated

> <ROCS_TanimotoCombo>
0.835 

> <ROCS_ShapeTanimoto>
0.581 

> <ROCS_ColorTanimoto>
0.254 

> <ROCS_RefTversky>
0.549 

> <ROCS_RefColorTversky>
0.406 

> <ROCS_RefTverskyCombo>
0.954 

> <ROCS_FitTversky>
1.114 

> <ROCS_FitColorTversky>
0.405 

> <ROCS_FitTverskyCombo>
1.519 

> <ROCS_ColorScore>
-2.839

> <ROCS_Overlap>
901.816

> <ROCS_Rank>
282                 

$$$$
untitled-dbase-38002_10
  -OEChem-10092318153D

 37 39  0     1  0  0  0  0  0999 V2000
   -8.9749   -1.7179  -18.3867 C   0  0  0  0  0  0  0  0  0  0  0  0
   -8.6000   -2.8257  -17.6337 C   0  0  0  0  0  0  0  0  0  0  0  0
   -9.0241   -0.4548  -17.7940 C   0  0  0  0  0  0  0  0  0  0  0  0
   -8.2900   -2.6722  -16.2850 C   0  0  0  0  0  0  0  0  0  0  0  0
   -8.6876   -0.2770  -16.4411 C   0  0  0  0  0  0  0  0  0  0  0  0
   -8.3522   -1.4090  -15.6858 C   0  0  0  0  0  0  0  0  0  0  0  0
   -9.9351   -0.3091  -13.2526 C   0  0  0  0  0  0  0  0  0  0  0  0
   -7.5746   -0.2057  -12.3259 C   0  0  0  0  0  0  0  0  0  0  0  0
   -8.0685    1.0617  -14.4257 C   0  0  0  0  0  0  0  0  0  0  0  0
  -10.2399    0.2952  -11.8823 C   0  0  0  0  0  0  0  0  0  0  0  0
   -8.2578   -0.9954  -11.2081 C   0  0  0  0  0  0  0  0  0  0  0  0
   -8.7440    1.0899  -15.8015 C   0  0  1  0  0  0  0  0  0  0  0  0
   -8.4332   -0.1967  -13.6178 C   0  0  0  0  0  0  0  0  0  0  0  0
  -10.3494   -1.2975  -10.0494 C   0  0  0  0  0  0  0  0  0  0  0  0
   -9.5108   -0.3545  -10.7850 N   0  0  0  0  0  0  0  0  0  0  0  0
   -8.0932    2.1352  -16.6000 N   0  0  0  0  0  0  0  0  0  0  0  0
   -8.0533   -1.3811  -14.3495 O   0  0  0  0  0  0  0  0  0  0  0  0
   -9.2308   -1.8349  -19.4356 H   0  0  0  0  0  0  0  0  0  0  0  0
   -8.5593   -3.8085  -18.0933 H   0  0  0  0  0  0  0  0  0  0  0  0
   -9.3270    0.3938  -18.4031 H   0  0  0  0  0  0  0  0  0  0  0  0
   -8.0123   -3.5447  -15.6986 H   0  0  0  0  0  0  0  0  0  0  0  0
  -10.2550   -1.3565  -13.2317 H   0  0  0  0  0  0  0  0  0  0  0  0
  -10.5372    0.1978  -14.0172 H   0  0  0  0  0  0  0  0  0  0  0  0
   -7.3971    0.8190  -11.9898 H   0  0  0  0  0  0  0  0  0  0  0  0
   -6.6050   -0.6664  -12.5288 H   0  0  0  0  0  0  0  0  0  0  0  0
   -6.9733    1.0791  -14.5616 H   0  0  0  0  0  0  0  0  0  0  0  0
   -8.3261    1.9725  -13.8627 H   0  0  0  0  0  0  0  0  0  0  0  0
   -9.9689    1.3672  -11.9166 H   0  0  0  0  0  0  0  0  0  0  0  0
  -11.3314    0.2671  -11.6954 H   0  0  0  0  0  0  0  0  0  0  0  0
   -8.4373   -2.0306  -11.5336 H   0  0  0  0  0  0  0  0  0  0  0  0
   -7.5656   -1.0463  -10.3562 H   0  0  0  0  0  0  0  0  0  0  0  0
   -9.7951    1.3650  -15.6851 H   0  0  0  0  0  0  0  0  0  0  0  0
   -9.7624   -1.7574   -9.2407 H   0  0  0  0  0  0  0  0  0  0  0  0
  -11.2105   -0.7646   -9.6199 H   0  0  0  0  0  0  0  0  0  0  0  0
  -10.7072   -2.0809  -10.7337 H   0  0  0  0  0  0  0  0  0  0  0  0
   -8.5500    2.1767  -17.4781 H   0  0  0  0  0  0  0  0  0  0  0  0
   -8.1845    2.9923  -16.1114 H   0  0  0  0  0  0  0  0  0  0  0  0
  1  2  2  0  0  0  0
  1  3  1  0  0  0  0
  2  4  1  0  0  0  0
  3  5  2  0  0  0  0
  4  6  2  0  0  0  0
  5  6  1  0  0  0  0
  5 12  1  0  0  0  0
  6 17  1  0  0  0  0
  7 10  1  0  0  0  0
  7 13  1  0  0  0  0
  8 11  1  0  0  0  0
  8 13  1  0  0  0  0
  9 12  1  0  0  0  0
  9 13  1  0  0  0  0
 10 15  1  0  0  0  0
 11 15  1  0  0  0  0
 12 16  1  0  0  0  0
 13 17  1  0  0  0  0
 14 15  1  0  0  0  0
  1 18  1  0  0  0  0
  2 19  1  0  0  0  0
  3 20  1  0  0  0  0
  4 21  1  0  0  0  0
  7 22  1  0  0  0  0
  7 23  1  0  0  0  0
  8 24  1  0  0  0  0
  8 25  1  0  0  0  0
  9 26  1  0  0  0  0
  9 27  1  0  0  0  0
 10 28  1  0  0  0  0
 10 29  1  0  0  0  0
 11 30  1  0  0  0  0
 11 31  1  0  0  0  0
 12 32  1  0  0  0  0
 14 33  1  0  0  0  0
 14 34  1  0  0  0  0
 14 35  1  0  0  0  0
 16 36  1  0  0  0  0
 16 37  1  0  0  0  0
M  END
> <id>
EN300-30228

> <smiles>
Cl.Cl.CN1CCC2(CC1)CC(N)C=3C=CC=CC3O2

> <MDLNUMBER>
MFCD07289411

> <IUPAC Name>
1'-methyl-3,4-dihydrospiro[1-benzopyran-2,4'-piperidine]-4-amine dihydrochloride

> <CAS>
1052545-47-7

> <Purity>
95

> <URL>
https://www.enaminestore.com/catalog/EN300-30228

> <Saltdate>
Cl

> <ROCS_ShapeQuery>
amalgated

> <ROCS_TanimotoCombo>
0.835 

> <ROCS_ShapeTanimoto>
0.581 

> <ROCS_ColorTanimoto>
0.254 

> <ROCS_RefTversky>
0.549 

> <ROCS_RefColorTversky>
0.406 

> <ROCS_RefTverskyCombo>
0.954 

> <ROCS_FitTversky>
1.114 

> <ROCS_FitColorTversky>
0.405 

> <ROCS_FitTverskyCombo>
1.519 

> <ROCS_ColorScore>
-2.839

> <ROCS_Overlap>
901.816

> <ROCS_Rank>
283                 

$$$$
untitled-dbase-12_10
  -OEChem-10092318153D

 37 39  0     1  0  0  0  0  0999 V2000
   -8.9749   -1.7179  -18.3867 C   0  0  0  0  0  0  0  0  0  0  0  0
   -8.6000   -2.8257  -17.6337 C   0  0  0  0  0  0  0  0  0  0  0  0
   -9.0241   -0.4548  -17.7940 C   0  0  0  0  0  0  0  0  0  0  0  0
   -8.2900   -2.6722  -16.2850 C   0  0  0  0  0  0  0  0  0  0  0  0
   -8.6876   -0.2770  -16.4411 C   0  0  0  0  0  0  0  0  0  0  0  0
   -8.3522   -1.4090  -15.6858 C   0  0  0  0  0  0  0  0  0  0  0  0
   -9.9351   -0.3091  -13.2526 C   0  0  0  0  0  0  0  0  0  0  0  0
   -7.5746   -0.2057  -12.3259 C   0  0  0  0  0  0  0  0  0  0  0  0
   -8.0685    1.0617  -14.4257 C   0  0  0  0  0  0  0  0  0  0  0  0
  -10.2399    0.2952  -11.8823 C   0  0  0  0  0  0  0  0  0  0  0  0
   -8.2578   -0.9954  -11.2081 C   0  0  0  0  0  0  0  0  0  0  0  0
   -8.7440    1.0899  -15.8015 C   0  0  1  0  0  0  0  0  0  0  0  0
   -8.4332   -0.1967  -13.6178 C   0  0  0  0  0  0  0  0  0  0  0  0
  -10.3494   -1.2975  -10.0494 C   0  0  0  0  0  0  0  0  0  0  0  0
   -9.5108   -0.3545  -10.7850 N   0  0  0  0  0  0  0  0  0  0  0  0
   -8.0932    2.1352  -16.6000 N   0  0  0  0  0  0  0  0  0  0  0  0
   -8.0533   -1.3811  -14.3495 O   0  0  0  0  0  0  0  0  0  0  0  0
   -9.2308   -1.8349  -19.4356 H   0  0  0  0  0  0  0  0  0  0  0  0
   -8.5593   -3.8085  -18.0933 H   0  0  0  0  0  0  0  0  0  0  0  0
   -9.3270    0.3938  -18.4031 H   0  0  0  0  0  0  0  0  0  0  0  0
   -8.0123   -3.5447  -15.6986 H   0  0  0  0  0  0  0  0  0  0  0  0
  -10.2550   -1.3565  -13.2317 H   0  0  0  0  0  0  0  0  0  0  0  0
  -10.5372    0.1978  -14.0172 H   0  0  0  0  0  0  0  0  0  0  0  0
   -7.3971    0.8190  -11.9898 H   0  0  0  0  0  0  0  0  0  0  0  0
   -6.6050   -0.6664  -12.5288 H   0  0  0  0  0  0  0  0  0  0  0  0
   -6.9733    1.0791  -14.5616 H   0  0  0  0  0  0  0  0  0  0  0  0
   -8.3261    1.9725  -13.8627 H   0  0  0  0  0  0  0  0  0  0  0  0
   -9.9689    1.3672  -11.9166 H   0  0  0  0  0  0  0  0  0  0  0  0
  -11.3314    0.2671  -11.6954 H   0  0  0  0  0  0  0  0  0  0  0  0
   -8.4373   -2.0306  -11.5336 H   0  0  0  0  0  0  0  0  0  0  0  0
   -7.5656   -1.0463  -10.3562 H   0  0  0  0  0  0  0  0  0  0  0  0
   -9.7951    1.3650  -15.6851 H   0  0  0  0  0  0  0  0  0  0  0  0
   -9.7624   -1.7574   -9.2407 H   0  0  0  0  0  0  0  0  0  0  0  0
  -11.2105   -0.7646   -9.6199 H   0  0  0  0  0  0  0  0  0  0  0  0
  -10.7072   -2.0809  -10.7337 H   0  0  0  0  0  0  0  0  0  0  0  0
   -8.5500    2.1767  -17.4781 H   0  0  0  0  0  0  0  0  0  0  0  0
   -8.1845    2.9923  -16.1114 H   0  0  0  0  0  0  0  0  0  0  0  0
  1  2  2  0  0  0  0
  1  3  1  0  0  0  0
  2  4  1  0  0  0  0
  3  5  2  0  0  0  0
  4  6  2  0  0  0  0
  5  6  1  0  0  0  0
  5 12  1  0  0  0  0
  6 17  1  0  0  0  0
  7 10  1  0  0  0  0
  7 13  1  0  0  0  0
  8 11  1  0  0  0  0
  8 13  1  0  0  0  0
  9 12  1  0  0  0  0
  9 13  1  0  0  0  0
 10 15  1  0  0  0  0
 11 15  1  0  0  0  0
 12 16  1  0  0  0  0
 13 17  1  0  0  0  0
 14 15  1  0  0  0  0
  1 18  1  0  0  0  0
  2 19  1  0  0  0  0
  3 20  1  0  0  0  0
  4 21  1  0  0  0  0
  7 22  1  0  0  0  0
  7 23  1  0  0  0  0
  8 24  1  0  0  0  0
  8 25  1  0  0  0  0
  9 26  1  0  0  0  0
  9 27  1  0  0  0  0
 10 28  1  0  0  0  0
 10 29  1  0  0  0  0
 11 30  1  0  0  0  0
 11 31  1  0  0  0  0
 12 32  1  0  0  0  0
 14 33  1  0  0  0  0
 14 34  1  0  0  0  0
 14 35  1  0  0  0  0
 16 36  1  0  0  0  0
 16 37  1  0  0  0  0
M  END
> <id>
EN300-11671

> <smiles>
Cl.CN1CCC2(CC1)CC(N)C=3C=CC=CC3O2

> <MDLNUMBER>
MFCD08445275

> <IUPAC Name>
1'-methyl-3,4-dihydrospiro[1-benzopyran-2,4'-piperidine]-4-amine hydrochloride

> <CAS>
1193389-01-3

> <URL>
https://www.enaminestore.com/catalog/EN300-11671

> <Saltdate>
Cl

> <MP>
232-233

> <ROCS_ShapeQuery>
amalgated

> <ROCS_TanimotoCombo>
0.835 

> <ROCS_ShapeTanimoto>
0.581 

> <ROCS_ColorTanimoto>
0.254 

> <ROCS_RefTversky>
0.549 

> <ROCS_RefColorTversky>
0.406 

> <ROCS_RefTverskyCombo>
0.954 

> <ROCS_FitTversky>
1.114 

> <ROCS_FitColorTversky>
0.405 

> <ROCS_FitTverskyCombo>
1.519 

> <ROCS_ColorScore>
-2.839

> <ROCS_Overlap>
901.816

> <ROCS_Rank>
284                 

$$$$
untitled-dbase-34134_46
  -OEChem-10092318153D

 46 48  0     1  0  0  0  0  0999 V2000
   -8.8952    0.2970  -13.3164 C   0  0  0  0  0  0  0  0  0  0  0  0
   -6.9681   -1.2513  -16.2002 C   0  0  0  0  0  0  0  0  0  0  0  0
   -8.5645    0.5699  -16.9101 C   0  0  0  0  0  0  0  0  0  0  0  0
   -7.2988   -1.0372  -14.7220 C   0  0  0  0  0  0  0  0  0  0  0  0
   -8.1818    1.1341  -15.5387 C   0  0  0  0  0  0  0  0  0  0  0  0
   -7.8101   -1.2005  -18.5907 C   0  0  0  0  0  0  0  0  0  0  0  0
  -10.6598   -1.5789  -17.5733 C   0  0  0  0  0  0  0  0  0  0  0  0
  -10.1779   -3.7834  -18.1514 C   0  0  0  0  0  0  0  0  0  0  0  0
   -9.3216   -1.9171  -16.9212 C   0  0  1  0  0  0  0  0  0  0  0  0
   -8.8800   -3.1373  -17.7049 C   0  0  2  0  0  0  0  0  0  0  0  0
   -8.1705   -0.9117  -17.1221 C   0  0  0  0  0  0  0  0  0  0  0  0
  -10.8681   -0.5845  -11.4411 C   0  0  0  0  0  0  0  0  0  0  0  0
   -8.9852   -1.8072  -10.3148 C   0  0  0  0  0  0  0  0  0  0  0  0
   -8.9290    0.6985  -10.4775 C   0  0  0  0  0  0  0  0  0  0  0  0
   -9.3657   -0.5955  -11.1628 C   0  0  0  0  0  0  0  0  0  0  0  0
   -8.0286   -2.6402  -18.7959 N   0  0  0  0  0  0  0  0  0  0  0  0
   -8.1777    0.1122  -14.5014 N   0  0  0  0  0  0  0  0  0  0  0  0
   -9.6417    1.2486  -13.0962 O   0  0  0  0  0  0  0  0  0  0  0  0
  -11.2191   -2.8066  -18.0500 O   0  0  0  0  0  0  0  0  0  0  0  0
   -8.6719   -0.7072  -12.4107 O   0  0  0  0  0  0  0  0  0  0  0  0
   -6.0879   -0.6585  -16.4536 H   0  0  0  0  0  0  0  0  0  0  0  0
   -6.6942   -2.3009  -16.3385 H   0  0  0  0  0  0  0  0  0  0  0  0
   -9.6553    0.6767  -17.0446 H   0  0  0  0  0  0  0  0  0  0  0  0
   -8.1061    1.2108  -17.6806 H   0  0  0  0  0  0  0  0  0  0  0  0
   -7.7428   -1.9588  -14.3183 H   0  0  0  0  0  0  0  0  0  0  0  0
   -6.3829   -0.8597  -14.1371 H   0  0  0  0  0  0  0  0  0  0  0  0
   -7.1738    1.5737  -15.5706 H   0  0  0  0  0  0  0  0  0  0  0  0
   -8.8704    1.9496  -15.2765 H   0  0  0  0  0  0  0  0  0  0  0  0
   -8.4600   -0.6355  -19.2786 H   0  0  0  0  0  0  0  0  0  0  0  0
   -6.7745   -0.9361  -18.8465 H   0  0  0  0  0  0  0  0  0  0  0  0
  -11.3587   -1.1114  -16.8620 H   0  0  0  0  0  0  0  0  0  0  0  0
  -10.5672   -0.9007  -18.4371 H   0  0  0  0  0  0  0  0  0  0  0  0
  -10.1465   -4.1382  -19.1936 H   0  0  0  0  0  0  0  0  0  0  0  0
  -10.4431   -4.6483  -17.5255 H   0  0  0  0  0  0  0  0  0  0  0  0
   -9.4796   -2.1665  -15.8744 H   0  0  0  0  0  0  0  0  0  0  0  0
   -8.2964   -3.8199  -17.0933 H   0  0  0  0  0  0  0  0  0  0  0  0
  -11.1454    0.2838  -12.0496 H   0  0  0  0  0  0  0  0  0  0  0  0
  -11.1882   -1.4918  -11.9637 H   0  0  0  0  0  0  0  0  0  0  0  0
  -11.4380   -0.5030  -10.5085 H   0  0  0  0  0  0  0  0  0  0  0  0
   -7.9080   -1.8192  -10.1127 H   0  0  0  0  0  0  0  0  0  0  0  0
   -9.2102   -2.7402  -10.8440 H   0  0  0  0  0  0  0  0  0  0  0  0
   -9.5175   -1.8141   -9.3582 H   0  0  0  0  0  0  0  0  0  0  0  0
   -7.8514    0.6908  -10.2778 H   0  0  0  0  0  0  0  0  0  0  0  0
   -9.1610    1.5767  -11.0887 H   0  0  0  0  0  0  0  0  0  0  0  0
   -9.4229    0.8105   -9.5055 H   0  0  0  0  0  0  0  0  0  0  0  0
   -8.4364   -2.8174  -19.7129 H   0  0  0  0  0  0  0  0  0  0  0  0
  1 17  1  0  0  0  0
  1 18  2  0  0  0  0
  1 20  1  0  0  0  0
  2  4  1  0  0  0  0
  2 11  1  0  0  0  0
  3  5  1  0  0  0  0
  3 11  1  0  0  0  0
  4 17  1  0  0  0  0
  5 17  1  0  0  0  0
  6 11  1  0  0  0  0
  6 16  1  0  0  0  0
  7  9  1  6  0  0  0
  7 19  1  0  0  0  0
  8 10  1  6  0  0  0
  8 19  1  0  0  0  0
  9 10  1  0  0  0  0
  9 11  1  0  0  0  0
 10 16  1  0  0  0  0
 12 15  1  0  0  0  0
 13 15  1  0  0  0  0
 14 15  1  0  0  0  0
 15 20  1  0  0  0  0
  2 21  1  0  0  0  0
  2 22  1  0  0  0  0
  3 23  1  0  0  0  0
  3 24  1  0  0  0  0
  4 25  1  0  0  0  0
  4 26  1  0  0  0  0
  5 27  1  0  0  0  0
  5 28  1  0  0  0  0
  6 29  1  0  0  0  0
  6 30  1  0  0  0  0
  7 31  1  0  0  0  0
  7 32  1  0  0  0  0
  8 33  1  0  0  0  0
  8 34  1  0  0  0  0
  9 35  1  0  0  0  0
 10 36  1  0  0  0  0
 12 37  1  0  0  0  0
 12 38  1  0  0  0  0
 12 39  1  0  0  0  0
 13 40  1  0  0  0  0
 13 41  1  0  0  0  0
 13 42  1  0  0  0  0
 14 43  1  0  0  0  0
 14 44  1  0  0  0  0
 14 45  1  0  0  0  0
 16 46  1  0  0  0  0
M  END
> <id>
EN300-254413

> <smiles>
CC(C)(C)OC(=O)N1CCC2(CN[C@@H]3COC[C@@H]32)CC1 |&1:13,17,r|

> <MDLNUMBER>
MFCD29764286

> <IUPAC Name>
rac-tert-butyl (3aR,6aS)-hexahydrospiro[furo[3,4-b]pyrrole-3,4'-piperidine]-1'-carboxylate

> <CAS>
2307770-06-3

> <Purity>
95

> <URL>
https://www.enaminestore.com/catalog/EN300-254413

> <ROCS_ShapeQuery>
amalgated

> <ROCS_TanimotoCombo>
0.835 

> <ROCS_ShapeTanimoto>
0.636 

> <ROCS_ColorTanimoto>
0.199 

> <ROCS_RefTversky>
0.608 

> <ROCS_RefColorTversky>
0.355 

> <ROCS_RefTverskyCombo>
0.964 

> <ROCS_FitTversky>
1.077 

> <ROCS_FitColorTversky>
0.312 

> <ROCS_FitTverskyCombo>
1.389 

> <ROCS_ColorScore>
-2.506

> <ROCS_Overlap>
1003.949

> <ROCS_Rank>
285                 

$$$$
untitled-dbase-44228_2
  -OEChem-10092318153D

 37 40  0     0  0  0  0  0  0999 V2000
   -8.8285    1.3920  -12.0196 C   0  0  0  0  0  0  0  0  0  0  0  0
   -8.9331   -1.8731  -18.6865 C   0  0  0  0  0  0  0  0  0  0  0  0
   -8.7817    0.1931  -11.3298 C   0  0  0  0  0  0  0  0  0  0  0  0
   -8.8575   -3.1532  -18.1660 C   0  0  0  0  0  0  0  0  0  0  0  0
   -8.8015    1.3906  -13.4160 C   0  0  0  0  0  0  0  0  0  0  0  0
   -8.8839   -0.7718  -17.8291 C   0  0  0  0  0  0  0  0  0  0  0  0
   -8.7017   -0.9991  -12.0415 C   0  0  0  0  0  0  0  0  0  0  0  0
   -8.7359   -3.3231  -16.7909 C   0  0  0  0  0  0  0  0  0  0  0  0
   -8.7341    0.1930  -14.1664 C   0  0  0  0  0  0  0  0  0  0  0  0
   -8.7556   -0.9141  -16.4270 C   0  0  0  0  0  0  0  0  0  0  0  0
   -8.6741   -1.0097  -13.4507 C   0  0  0  0  0  0  0  0  0  0  0  0
   -8.6872   -2.2173  -15.9183 C   0  0  0  0  0  0  0  0  0  0  0  0
   -8.7586    1.5342  -16.2220 C   0  0  0  0  0  0  0  0  0  0  0  0
   -6.3584    2.8936  -18.6753 C   0  0  0  0  0  0  0  0  0  0  0  0
   -5.4752    1.9130  -17.9140 C   0  0  0  0  0  0  0  0  0  0  0  0
   -7.5314    3.0972  -17.7291 C   0  0  0  0  0  0  0  0  0  0  0  0
   -6.4862    0.9844  -17.2567 C   0  0  0  0  0  0  0  0  0  0  0  0
   -8.7096    0.2680  -15.6044 N   0  0  0  0  0  0  0  0  0  0  0  0
   -7.6551    1.8300  -17.0253 N   0  0  0  0  0  0  0  0  0  0  0  0
   -9.7002    2.3142  -16.0499 O   0  0  0  0  0  0  0  0  0  0  0  0
   -8.5261   -2.6024  -14.2017 S   0  0  0  0  0  0  0  0  0  0  0  0
   -8.8873    2.3315  -11.4783 H   0  0  0  0  0  0  0  0  0  0  0  0
   -9.0294   -1.7238  -19.7579 H   0  0  0  0  0  0  0  0  0  0  0  0
   -8.8144    0.1822  -10.2450 H   0  0  0  0  0  0  0  0  0  0  0  0
   -8.8906   -4.0161  -18.8236 H   0  0  0  0  0  0  0  0  0  0  0  0
   -8.8355    2.3644  -13.8987 H   0  0  0  0  0  0  0  0  0  0  0  0
   -8.9451    0.2073  -18.2985 H   0  0  0  0  0  0  0  0  0  0  0  0
   -8.6664   -1.9301  -11.4775 H   0  0  0  0  0  0  0  0  0  0  0  0
   -8.6793   -4.3394  -16.4043 H   0  0  0  0  0  0  0  0  0  0  0  0
   -5.8270    3.8399  -18.8306 H   0  0  0  0  0  0  0  0  0  0  0  0
   -6.6684    2.5051  -19.6493 H   0  0  0  0  0  0  0  0  0  0  0  0
   -4.8430    1.3518  -18.6124 H   0  0  0  0  0  0  0  0  0  0  0  0
   -4.8308    2.4124  -17.1852 H   0  0  0  0  0  0  0  0  0  0  0  0
   -7.3798    3.9200  -17.0244 H   0  0  0  0  0  0  0  0  0  0  0  0
   -8.4658    3.2677  -18.2753 H   0  0  0  0  0  0  0  0  0  0  0  0
   -6.7361    0.1221  -17.8805 H   0  0  0  0  0  0  0  0  0  0  0  0
   -6.1258    0.6323  -16.2844 H   0  0  0  0  0  0  0  0  0  0  0  0
  1  3  2  0  0  0  0
  1  5  1  0  0  0  0
  2  4  2  0  0  0  0
  2  6  1  0  0  0  0
  3  7  1  0  0  0  0
  4  8  1  0  0  0  0
  5  9  2  0  0  0  0
  6 10  2  0  0  0  0
  7 11  2  0  0  0  0
  8 12  2  0  0  0  0
  9 11  1  0  0  0  0
  9 18  1  0  0  0  0
 10 12  1  0  0  0  0
 10 18  1  0  0  0  0
 11 21  1  0  0  0  0
 12 21  1  0  0  0  0
 13 18  1  0  0  0  0
 13 19  1  0  0  0  0
 13 20  2  0  0  0  0
 14 15  1  0  0  0  0
 14 16  1  0  0  0  0
 15 17  1  0  0  0  0
 16 19  1  0  0  0  0
 17 19  1  0  0  0  0
  1 22  1  0  0  0  0
  2 23  1  0  0  0  0
  3 24  1  0  0  0  0
  4 25  1  0  0  0  0
  5 26  1  0  0  0  0
  6 27  1  0  0  0  0
  7 28  1  0  0  0  0
  8 29  1  0  0  0  0
 14 30  1  0  0  0  0
 14 31  1  0  0  0  0
 15 32  1  0  0  0  0
 15 33  1  0  0  0  0
 16 34  1  0  0  0  0
 16 35  1  0  0  0  0
 17 36  1  0  0  0  0
 17 37  1  0  0  0  0
M  END
> <id>
EN300-27061630

> <smiles>
O=C(N1CCCC1)N2C=3C=CC=CC3SC=4C=CC=CC24

> <MDLNUMBER>
MFCD03144332

> <IUPAC Name>
10-(pyrrolidine-1-carbonyl)-10H-phenothiazine

> <CAS>
176092-22-1

> <Purity>
95

> <URL>
https://www.enaminestore.com/catalog/EN300-27061630

> <ROCS_ShapeQuery>
amalgated

> <ROCS_TanimotoCombo>
0.835 

> <ROCS_ShapeTanimoto>
0.608 

> <ROCS_ColorTanimoto>
0.227 

> <ROCS_RefTversky>
0.605 

> <ROCS_RefColorTversky>
0.322 

> <ROCS_RefTverskyCombo>
0.927 

> <ROCS_FitTversky>
1.000 

> <ROCS_FitColorTversky>
0.435 

> <ROCS_FitTverskyCombo>
1.435 

> <ROCS_ColorScore>
-2.221

> <ROCS_Overlap>
1000.993

> <ROCS_Rank>
286                 

$$$$
untitled-dbase-871_33
  -OEChem-10092318153D

 35 36  0     1  0  0  0  0  0999 V2000
   -8.6098   -0.0487  -14.5562 C   0  0  0  0  0  0  0  0  0  0  0  0
   -9.3333   -2.9133  -16.9416 C   0  0  0  0  0  0  0  0  0  0  0  0
   -9.6200   -1.9042  -15.8317 C   0  0  0  0  0  0  0  0  0  0  0  0
   -7.3912   -1.4261  -19.2481 C   0  0  0  0  0  0  0  0  0  0  0  0
   -7.5084   -0.8172  -16.6966 C   0  0  0  0  0  0  0  0  0  0  0  0
   -8.2017   -0.8969  -18.0498 C   0  0  2  0  0  0  0  0  0  0  0  0
   -9.0734   -2.1580  -18.2366 C   0  0  1  0  0  0  0  0  0  0  0  0
  -10.1062    1.3968  -12.5928 C   0  0  0  0  0  0  0  0  0  0  0  0
   -9.9498   -0.6912  -11.2052 C   0  0  0  0  0  0  0  0  0  0  0  0
   -7.8584    0.5396  -11.8528 C   0  0  0  0  0  0  0  0  0  0  0  0
   -9.2732    0.1540  -12.2823 C   0  0  0  0  0  0  0  0  0  0  0  0
   -7.9832   -2.7582  -19.0321 N   0  0  0  0  0  0  0  0  0  0  0  0
   -8.5667   -0.8883  -15.6761 N   0  0  0  0  0  0  0  0  0  0  0  0
   -8.1804    1.1039  -14.5451 O   0  0  0  0  0  0  0  0  0  0  0  0
   -9.1880   -0.6453  -13.4676 O   0  0  0  0  0  0  0  0  0  0  0  0
   -8.4770   -3.5316  -16.6431 H   0  0  0  0  0  0  0  0  0  0  0  0
  -10.1860   -3.5908  -17.0611 H   0  0  0  0  0  0  0  0  0  0  0  0
  -10.5717   -1.3623  -16.0320 H   0  0  0  0  0  0  0  0  0  0  0  0
   -9.7901   -2.4450  -14.8756 H   0  0  0  0  0  0  0  0  0  0  0  0
   -7.6302   -0.9680  -20.2198 H   0  0  0  0  0  0  0  0  0  0  0  0
   -6.2954   -1.4043  -19.1311 H   0  0  0  0  0  0  0  0  0  0  0  0
   -6.7863   -1.6173  -16.5783 H   0  0  0  0  0  0  0  0  0  0  0  0
   -7.0080    0.1401  -16.5755 H   0  0  0  0  0  0  0  0  0  0  0  0
   -8.7096    0.0200  -18.2575 H   0  0  0  0  0  0  0  0  0  0  0  0
   -9.9984   -1.9726  -18.7795 H   0  0  0  0  0  0  0  0  0  0  0  0
   -9.6239    2.0061  -13.3655 H   0  0  0  0  0  0  0  0  0  0  0  0
  -11.1120    1.1330  -12.9355 H   0  0  0  0  0  0  0  0  0  0  0  0
  -10.1988    2.0365  -11.7077 H   0  0  0  0  0  0  0  0  0  0  0  0
   -9.3556   -1.5840  -10.9793 H   0  0  0  0  0  0  0  0  0  0  0  0
  -10.9275   -1.0495  -11.5472 H   0  0  0  0  0  0  0  0  0  0  0  0
  -10.0925   -0.1260  -10.2785 H   0  0  0  0  0  0  0  0  0  0  0  0
   -7.2608   -0.3517  -11.6301 H   0  0  0  0  0  0  0  0  0  0  0  0
   -7.3442    1.1154  -12.6291 H   0  0  0  0  0  0  0  0  0  0  0  0
   -7.8792    1.1357  -10.9333 H   0  0  0  0  0  0  0  0  0  0  0  0
   -8.3138   -3.1932  -19.9003 H   0  0  0  0  0  0  0  0  0  0  0  0
  1 13  1  0  0  0  0
  1 14  2  0  0  0  0
  1 15  1  0  0  0  0
  2  3  1  0  0  0  0
  2  7  1  0  0  0  0
  3 13  1  0  0  0  0
  4  6  1  0  0  0  0
  4 12  1  0  0  0  0
  5  6  1  0  0  0  0
  5 13  1  0  0  0  0
  6  7  1  0  0  0  0
  7 12  1  0  0  0  0
  8 11  1  0  0  0  0
  9 11  1  0  0  0  0
 10 11  1  0  0  0  0
 11 15  1  0  0  0  0
  2 16  1  0  0  0  0
  2 17  1  0  0  0  0
  3 18  1  0  0  0  0
  3 19  1  0  0  0  0
  4 20  1  0  0  0  0
  4 21  1  0  0  0  0
  5 22  1  0  0  0  0
  5 23  1  0  0  0  0
  6 24  1  0  0  0  0
  7 25  1  0  0  0  0
  8 26  1  0  0  0  0
  8 27  1  0  0  0  0
  8 28  1  0  0  0  0
  9 29  1  0  0  0  0
  9 30  1  0  0  0  0
  9 31  1  0  0  0  0
 10 32  1  0  0  0  0
 10 33  1  0  0  0  0
 10 34  1  0  0  0  0
 12 35  1  0  0  0  0
M  END
> <id>
EN300-56100

> <smiles>
CC(C)(C)OC(=O)N1CCC2NCC2C1

> <MDLNUMBER>
MFCD08234914

> <IUPAC Name>
tert-butyl 3,7-diazabicyclo[4.2.0]octane-3-carboxylate

> <CAS>
885271-67-0

> <URL>
https://www.enaminestore.com/catalog/EN300-56100

> <ROCS_ShapeQuery>
amalgated

> <ROCS_TanimotoCombo>
0.835 

> <ROCS_ShapeTanimoto>
0.537 

> <ROCS_ColorTanimoto>
0.298 

> <ROCS_RefTversky>
0.500 

> <ROCS_RefColorTversky>
0.433 

> <ROCS_RefTverskyCombo>
0.933 

> <ROCS_FitTversky>
1.157 

> <ROCS_FitColorTversky>
0.490 

> <ROCS_FitTverskyCombo>
1.647 

> <ROCS_ColorScore>
-3.008

> <ROCS_Overlap>
819.567

> <ROCS_Rank>
287                 

$$$$
untitled-dbase-29436_31
  -OEChem-10092318153D

 35 36  0     1  0  0  0  0  0999 V2000
   -8.1017   -0.5237  -14.2215 C   0  0  0  0  0  0  0  0  0  0  0  0
   -8.1200   -0.1275  -17.8826 C   0  0  0  0  0  0  0  0  0  0  0  0
   -8.3185   -2.8703  -16.6888 C   0  0  0  0  0  0  0  0  0  0  0  0
   -8.0554    0.5089  -16.4985 C   0  0  0  0  0  0  0  0  0  0  0  0
   -9.1929   -1.2235  -17.7708 C   0  0  2  0  0  0  0  0  0  0  0  0
   -9.1445   -1.6309  -16.2666 C   0  0  2  0  0  0  0  0  0  0  0  0
   -8.9516   -2.7239  -18.0882 C   0  0  1  0  0  0  0  0  0  0  0  0
   -9.7374    0.6949  -12.2206 C   0  0  0  0  0  0  0  0  0  0  0  0
  -10.2899   -1.6491  -11.5069 C   0  0  0  0  0  0  0  0  0  0  0  0
   -7.9193   -0.8292  -11.3803 C   0  0  0  0  0  0  0  0  0  0  0  0
   -9.2376   -0.7472  -12.1484 C   0  0  0  0  0  0  0  0  0  0  0  0
   -8.4000   -0.5641  -15.5729 N   0  0  0  0  0  0  0  0  0  0  0  0
   -7.9254   -2.8691  -19.1088 N   0  0  0  0  0  0  0  0  0  0  0  0
   -7.1347    0.0626  -13.7416 O   0  0  0  0  0  0  0  0  0  0  0  0
   -9.0186   -1.2208  -13.4818 O   0  0  0  0  0  0  0  0  0  0  0  0
   -8.3765    0.6067  -18.6525 H   0  0  0  0  0  0  0  0  0  0  0  0
   -7.1366   -0.5417  -18.1269 H   0  0  0  0  0  0  0  0  0  0  0  0
   -7.2320   -2.7282  -16.6301 H   0  0  0  0  0  0  0  0  0  0  0  0
   -8.5726   -3.7944  -16.1608 H   0  0  0  0  0  0  0  0  0  0  0  0
   -7.0732    0.9306  -16.2662 H   0  0  0  0  0  0  0  0  0  0  0  0
   -8.8126    1.2924  -16.3836 H   0  0  0  0  0  0  0  0  0  0  0  0
  -10.1757   -0.8540  -18.0887 H   0  0  0  0  0  0  0  0  0  0  0  0
  -10.1253   -1.8472  -15.8290 H   0  0  0  0  0  0  0  0  0  0  0  0
   -9.8542   -3.3047  -18.2499 H   0  0  0  0  0  0  0  0  0  0  0  0
   -8.9849    1.3455  -12.6805 H   0  0  0  0  0  0  0  0  0  0  0  0
  -10.6640    0.7723  -12.7987 H   0  0  0  0  0  0  0  0  0  0  0  0
   -9.9210    1.0959  -11.2172 H   0  0  0  0  0  0  0  0  0  0  0  0
   -9.9355   -2.6849  -11.4531 H   0  0  0  0  0  0  0  0  0  0  0  0
  -11.2067   -1.6674  -12.1073 H   0  0  0  0  0  0  0  0  0  0  0  0
  -10.5444   -1.3168  -10.4954 H   0  0  0  0  0  0  0  0  0  0  0  0
   -7.5606   -1.8636  -11.3284 H   0  0  0  0  0  0  0  0  0  0  0  0
   -7.1414   -0.2168  -11.8477 H   0  0  0  0  0  0  0  0  0  0  0  0
   -8.0503   -0.4950  -10.3447 H   0  0  0  0  0  0  0  0  0  0  0  0
   -7.6534   -3.8243  -19.1492 H   0  0  0  0  0  0  0  0  0  0  0  0
   -8.3050   -2.5792  -19.9806 H   0  0  0  0  0  0  0  0  0  0  0  0
  1 12  1  0  0  0  0
  1 14  2  0  0  0  0
  1 15  1  0  0  0  0
  2  4  1  0  0  0  0
  2  5  1  1  0  0  0
  3  6  1  1  0  0  0
  3  7  1  0  0  0  0
  4 12  1  0  0  0  0
  5  6  1  0  0  0  0
  5  7  1  0  0  0  0
  6 12  1  0  0  0  0
  7 13  1  1  0  0  0
  8 11  1  0  0  0  0
  9 11  1  0  0  0  0
 10 11  1  0  0  0  0
 11 15  1  0  0  0  0
  2 16  1  0  0  0  0
  2 17  1  0  0  0  0
  3 18  1  0  0  0  0
  3 19  1  0  0  0  0
  4 20  1  0  0  0  0
  4 21  1  0  0  0  0
  5 22  1  0  0  0  0
  6 23  1  0  0  0  0
  7 24  1  0  0  0  0
  8 25  1  0  0  0  0
  8 26  1  0  0  0  0
  8 27  1  0  0  0  0
  9 28  1  0  0  0  0
  9 29  1  0  0  0  0
  9 30  1  0  0  0  0
 10 31  1  0  0  0  0
 10 32  1  0  0  0  0
 10 33  1  0  0  0  0
 13 34  1  0  0  0  0
 13 35  1  0  0  0  0
M  END
> <id>
EN300-27103730

> <smiles>
CC(C)(C)OC(=O)N1CC[C@H]2[C@@H](N)C[C@H]21

> <IUPAC Name>
tert-butyl (1R,5S,6S)-6-amino-2-azabicyclo[3.2.0]heptane-2-carboxylate

> <CAS>
1932112-28-1

> <URL>
https://www.enaminestore.com/catalog/EN300-27103730

> <ROCS_ShapeQuery>
amalgated

> <ROCS_TanimotoCombo>
0.835 

> <ROCS_ShapeTanimoto>
0.530 

> <ROCS_ColorTanimoto>
0.305 

> <ROCS_RefTversky>
0.496 

> <ROCS_RefColorTversky>
0.535 

> <ROCS_RefTverskyCombo>
1.031 

> <ROCS_FitTversky>
1.146 

> <ROCS_FitColorTversky>
0.416 

> <ROCS_FitTverskyCombo>
1.561 

> <ROCS_ColorScore>
-3.804

> <ROCS_Overlap>
812.885

> <ROCS_Rank>
288                 

$$$$
untitled-dbase-34342_112
  -OEChem-10092318153D

 44 45  0     1  0  0  0  0  0999 V2000
   -8.4115    0.6942  -13.8007 C   0  0  0  0  0  0  0  0  0  0  0  0
   -9.9726   -2.3592  -17.2607 C   0  0  0  0  0  0  0  0  0  0  0  0
   -7.7615    1.6774  -17.2492 C   0  0  0  0  0  0  0  0  0  0  0  0
   -9.4634   -0.9295  -17.1052 C   0  0  0  0  0  0  0  0  0  0  0  0
   -7.3955    0.3338  -17.8816 C   0  0  0  0  0  0  0  0  0  0  0  0
   -9.3925   -3.0147  -18.5183 C   0  0  0  0  0  0  0  0  0  0  0  0
   -7.2931    1.7581  -15.8007 C   0  0  0  0  0  0  0  0  0  0  0  0
   -7.3016   -2.1935  -17.6134 C   0  0  0  0  0  0  0  0  0  0  0  0
   -7.4173   -0.7117  -15.5906 C   0  0  0  0  0  0  0  0  0  0  0  0
   -7.9056   -0.8753  -17.0517 C   0  0  2  0  0  0  0  0  0  0  0  0
  -10.3220   -0.3002  -11.9161 C   0  0  0  0  0  0  0  0  0  0  0  0
   -8.4194   -1.6444  -10.9767 C   0  0  0  0  0  0  0  0  0  0  0  0
   -8.3163    0.8649  -10.9393 C   0  0  0  0  0  0  0  0  0  0  0  0
   -8.8097   -0.3609  -11.7066 C   0  0  0  0  0  0  0  0  0  0  0  0
   -8.0092   -2.6304  -18.8119 N   0  0  0  0  0  0  0  0  0  0  0  0
   -7.7540    0.5996  -15.0319 N   0  0  0  0  0  0  0  0  0  0  0  0
   -9.1280    1.6367  -13.4685 O   0  0  0  0  0  0  0  0  0  0  0  0
   -8.1725   -0.3830  -12.9891 O   0  0  0  0  0  0  0  0  0  0  0  0
   -9.7105   -2.9529  -16.3807 H   0  0  0  0  0  0  0  0  0  0  0  0
  -11.0640   -2.3550  -17.3259 H   0  0  0  0  0  0  0  0  0  0  0  0
   -7.3042    2.4883  -17.8268 H   0  0  0  0  0  0  0  0  0  0  0  0
   -8.8453    1.8312  -17.2958 H   0  0  0  0  0  0  0  0  0  0  0  0
   -9.8116   -0.3429  -17.9611 H   0  0  0  0  0  0  0  0  0  0  0  0
   -9.9090   -0.4834  -16.2142 H   0  0  0  0  0  0  0  0  0  0  0  0
   -7.7925    0.2933  -18.9012 H   0  0  0  0  0  0  0  0  0  0  0  0
   -6.3038    0.2789  -17.9685 H   0  0  0  0  0  0  0  0  0  0  0  0
   -9.4385   -4.1138  -18.4082 H   0  0  0  0  0  0  0  0  0  0  0  0
  -10.0326   -2.7849  -19.3921 H   0  0  0  0  0  0  0  0  0  0  0  0
   -6.1977    1.7614  -15.7533 H   0  0  0  0  0  0  0  0  0  0  0  0
   -7.6431    2.6903  -15.3465 H   0  0  0  0  0  0  0  0  0  0  0  0
   -6.2428   -2.0595  -17.8416 H   0  0  0  0  0  0  0  0  0  0  0  0
   -7.3670   -2.9822  -16.8631 H   0  0  0  0  0  0  0  0  0  0  0  0
   -7.7973   -1.5129  -14.9446 H   0  0  0  0  0  0  0  0  0  0  0  0
   -6.3187   -0.7928  -15.5481 H   0  0  0  0  0  0  0  0  0  0  0  0
  -10.6063    0.6196  -12.4397 H   0  0  0  0  0  0  0  0  0  0  0  0
  -10.6837   -1.1560  -12.4953 H   0  0  0  0  0  0  0  0  0  0  0  0
  -10.8495   -0.2847  -10.9555 H   0  0  0  0  0  0  0  0  0  0  0  0
   -7.3351   -1.6921  -10.8243 H   0  0  0  0  0  0  0  0  0  0  0  0
   -8.6870   -2.5269  -11.5689 H   0  0  0  0  0  0  0  0  0  0  0  0
   -8.9103   -1.7196  -10.0011 H   0  0  0  0  0  0  0  0  0  0  0  0
   -7.2315    0.8215  -10.7889 H   0  0  0  0  0  0  0  0  0  0  0  0
   -8.5552    1.7940  -11.4668 H   0  0  0  0  0  0  0  0  0  0  0  0
   -8.7655    0.9061   -9.9404 H   0  0  0  0  0  0  0  0  0  0  0  0
   -7.5221   -3.4235  -19.2345 H   0  0  0  0  0  0  0  0  0  0  0  0
  1 16  1  0  0  0  0
  1 17  2  0  0  0  0
  1 18  1  0  0  0  0
  2  4  1  0  0  0  0
  2  6  1  0  0  0  0
  3  5  1  0  0  0  0
  3  7  1  0  0  0  0
  4 10  1  0  0  0  0
  5 10  1  0  0  0  0
  6 15  1  0  0  0  0
  7 16  1  0  0  0  0
  8 10  1  0  0  0  0
  8 15  1  0  0  0  0
  9 10  1  0  0  0  0
  9 16  1  0  0  0  0
 11 14  1  0  0  0  0
 12 14  1  0  0  0  0
 13 14  1  0  0  0  0
 14 18  1  0  0  0  0
  2 19  1  0  0  0  0
  2 20  1  0  0  0  0
  3 21  1  0  0  0  0
  3 22  1  0  0  0  0
  4 23  1  0  0  0  0
  4 24  1  0  0  0  0
  5 25  1  0  0  0  0
  5 26  1  0  0  0  0
  6 27  1  0  0  0  0
  6 28  1  0  0  0  0
  7 29  1  0  0  0  0
  7 30  1  0  0  0  0
  8 31  1  0  0  0  0
  8 32  1  0  0  0  0
  9 33  1  0  0  0  0
  9 34  1  0  0  0  0
 11 35  1  0  0  0  0
 11 36  1  0  0  0  0
 11 37  1  0  0  0  0
 12 38  1  0  0  0  0
 12 39  1  0  0  0  0
 12 40  1  0  0  0  0
 13 41  1  0  0  0  0
 13 42  1  0  0  0  0
 13 43  1  0  0  0  0
 15 44  1  0  0  0  0
M  END
> <id>
EN300-172927

> <smiles>
CC(C)(C)OC(=O)N1CCCC2(CCCNC2)C1

> <MDLNUMBER>
MFCD09701315

> <IUPAC Name>
tert-butyl 2,8-diazaspiro[5.5]undecane-2-carboxylate

> <CAS>
954240-14-3

> <URL>
https://www.enaminestore.com/catalog/EN300-172927

> <ROCS_ShapeQuery>
amalgated

> <ROCS_TanimotoCombo>
0.835 

> <ROCS_ShapeTanimoto>
0.592 

> <ROCS_ColorTanimoto>
0.243 

> <ROCS_RefTversky>
0.558 

> <ROCS_RefColorTversky>
0.366 

> <ROCS_RefTverskyCombo>
0.924 

> <ROCS_FitTversky>
1.114 

> <ROCS_FitColorTversky>
0.420 

> <ROCS_FitTverskyCombo>
1.534 

> <ROCS_ColorScore>
-2.542

> <ROCS_Overlap>
917.240

> <ROCS_Rank>
289                 

$$$$
untitled-dbase-43322_126
  -OEChem-10092318153D

 39 40  0     1  0  0  0  0  0999 V2000
   -8.3195    0.0570  -12.6463 C   0  0  0  0  0  0  0  0  0  0  0  0
   -9.1651   -0.7592  -18.2398 C   0  0  0  0  0  0  0  0  0  0  0  0
   -8.0789   -0.2350  -17.3005 C   0  0  0  0  0  0  0  0  0  0  0  0
   -9.3364   -0.3226  -15.0155 C   0  0  0  0  0  0  0  0  0  0  0  0
   -7.1957   -0.3581  -14.9003 C   0  0  0  0  0  0  0  0  0  0  0  0
   -9.2200   -2.8949  -16.9119 C   0  0  0  0  0  0  0  0  0  0  0  0
   -9.1725   -2.2911  -18.3170 C   0  0  2  0  0  0  0  0  0  0  0  0
   -8.2205   -0.8924  -15.9260 C   0  0  0  0  0  0  0  0  0  0  0  0
   -9.3361   -0.5812   -9.9679 C   0  0  0  0  0  0  0  0  0  0  0  0
  -11.4185    0.6115  -10.7098 C   0  0  0  0  0  0  0  0  0  0  0  0
  -10.6984   -1.4919  -11.8782 C   0  0  0  0  0  0  0  0  0  0  0  0
  -10.2255   -0.2292  -11.1595 C   0  0  0  0  0  0  0  0  0  0  0  0
   -8.3152   -0.1027  -14.0120 N   0  0  0  0  0  0  0  0  0  0  0  0
   -7.9792   -2.7713  -19.0180 N   0  0  0  0  0  0  0  0  0  0  0  0
   -7.3796   -0.2878  -11.9301 O   0  0  0  0  0  0  0  0  0  0  0  0
   -8.2054   -2.3364  -16.0762 O   0  0  0  0  0  0  0  0  0  0  0  0
   -9.4610    0.5632  -12.0822 O   0  0  0  0  0  0  0  0  0  0  0  0
  -10.1479   -0.3909  -17.8990 H   0  0  0  0  0  0  0  0  0  0  0  0
   -9.0128   -0.3343  -19.2479 H   0  0  0  0  0  0  0  0  0  0  0  0
   -7.0920   -0.4307  -17.7344 H   0  0  0  0  0  0  0  0  0  0  0  0
   -8.1780    0.8527  -17.2032 H   0  0  0  0  0  0  0  0  0  0  0  0
   -9.8180    0.5975  -15.3573 H   0  0  0  0  0  0  0  0  0  0  0  0
  -10.0955   -1.0413  -14.6928 H   0  0  0  0  0  0  0  0  0  0  0  0
   -6.5005   -1.0984  -14.4916 H   0  0  0  0  0  0  0  0  0  0  0  0
   -6.6508    0.5466  -15.1847 H   0  0  0  0  0  0  0  0  0  0  0  0
  -10.1909   -2.6914  -16.4356 H   0  0  0  0  0  0  0  0  0  0  0  0
   -9.0977   -3.9898  -16.9337 H   0  0  0  0  0  0  0  0  0  0  0  0
  -10.0607   -2.6068  -18.8691 H   0  0  0  0  0  0  0  0  0  0  0  0
   -8.4786   -1.1846  -10.2865 H   0  0  0  0  0  0  0  0  0  0  0  0
   -8.9619    0.3164   -9.4647 H   0  0  0  0  0  0  0  0  0  0  0  0
   -9.8842   -1.1852   -9.2358 H   0  0  0  0  0  0  0  0  0  0  0  0
  -12.0594    0.8664  -11.5616 H   0  0  0  0  0  0  0  0  0  0  0  0
  -11.0855    1.5625  -10.2786 H   0  0  0  0  0  0  0  0  0  0  0  0
  -12.0248    0.0864   -9.9646 H   0  0  0  0  0  0  0  0  0  0  0  0
  -11.3364   -1.2397  -12.7330 H   0  0  0  0  0  0  0  0  0  0  0  0
   -9.8556   -2.0894  -12.2405 H   0  0  0  0  0  0  0  0  0  0  0  0
  -11.3061   -2.1150  -11.2120 H   0  0  0  0  0  0  0  0  0  0  0  0
   -8.0219   -3.7622  -19.0640 H   0  0  0  0  0  0  0  0  0  0  0  0
   -7.9746   -2.3786  -19.9300 H   0  0  0  0  0  0  0  0  0  0  0  0
  1 13  1  0  0  0  0
  1 15  2  0  0  0  0
  1 17  1  0  0  0  0
  2  3  1  0  0  0  0
  2  7  1  0  0  0  0
  3  8  1  0  0  0  0
  4  8  1  0  0  0  0
  4 13  1  0  0  0  0
  5  8  1  0  0  0  0
  5 13  1  0  0  0  0
  6  7  1  0  0  0  0
  6 16  1  0  0  0  0
  7 14  1  0  0  0  0
  8 16  1  0  0  0  0
  9 12  1  0  0  0  0
 10 12  1  0  0  0  0
 11 12  1  0  0  0  0
 12 17  1  0  0  0  0
  2 18  1  0  0  0  0
  2 19  1  0  0  0  0
  3 20  1  0  0  0  0
  3 21  1  0  0  0  0
  4 22  1  0  0  0  0
  4 23  1  0  0  0  0
  5 24  1  0  0  0  0
  5 25  1  0  0  0  0
  6 26  1  0  0  0  0
  6 27  1  0  0  0  0
  7 28  1  0  0  0  0
  9 29  1  0  0  0  0
  9 30  1  0  0  0  0
  9 31  1  0  0  0  0
 10 32  1  0  0  0  0
 10 33  1  0  0  0  0
 10 34  1  0  0  0  0
 11 35  1  0  0  0  0
 11 36  1  0  0  0  0
 11 37  1  0  0  0  0
 14 38  1  0  0  0  0
 14 39  1  0  0  0  0
M  END
> <id>
EN300-22913947

> <smiles>
CC(C)(C)OC(=O)N1CC2(C1)CCC(N)CO2

> <MDLNUMBER>
MFCD31743125

> <IUPAC Name>
tert-butyl 7-amino-5-oxa-2-azaspiro[3.5]nonane-2-carboxylate

> <CAS>
2306262-93-9

> <Purity>
95

> <URL>
https://www.enaminestore.com/catalog/EN300-22913947

> <ROCS_ShapeQuery>
amalgated

> <ROCS_TanimotoCombo>
0.834 

> <ROCS_ShapeTanimoto>
0.563 

> <ROCS_ColorTanimoto>
0.272 

> <ROCS_RefTversky>
0.533 

> <ROCS_RefColorTversky>
0.428 

> <ROCS_RefTverskyCombo>
0.961 

> <ROCS_FitTversky>
1.108 

> <ROCS_FitColorTversky>
0.427 

> <ROCS_FitTverskyCombo>
1.535 

> <ROCS_ColorScore>
-2.993

> <ROCS_Overlap>
876.332

> <ROCS_Rank>
290                 

$$$$
untitled-dbase-19794_24
  -OEChem-10092318153D

 41 42  0     0  0  0  0  0  0999 V2000
   -8.9832   -0.5764  -14.2602 C   0  0  0  0  0  0  0  0  0  0  0  0
   -7.6757    1.6283  -16.8740 C   0  0  0  0  0  0  0  0  0  0  0  0
   -8.2475    0.5296  -17.7594 C   0  0  0  0  0  0  0  0  0  0  0  0
   -7.1954   -1.5715  -16.7692 C   0  0  0  0  0  0  0  0  0  0  0  0
   -9.6869   -1.4828  -17.2552 C   0  0  0  0  0  0  0  0  0  0  0  0
   -8.4360    1.4391  -15.5780 C   0  0  0  0  0  0  0  0  0  0  0  0
   -7.3767   -2.8770  -17.5539 C   0  0  0  0  0  0  0  0  0  0  0  0
   -9.4430   -2.1573  -18.6136 C   0  0  0  0  0  0  0  0  0  0  0  0
   -8.4606   -0.6709  -16.7927 C   0  0  0  0  0  0  0  0  0  0  0  0
   -8.3346   -1.2045  -11.5453 C   0  0  0  0  0  0  0  0  0  0  0  0
   -9.4205    0.9875  -10.9754 C   0  0  0  0  0  0  0  0  0  0  0  0
  -10.7757   -0.8406  -12.0381 C   0  0  0  0  0  0  0  0  0  0  0  0
   -9.3979   -0.1857  -11.9528 C   0  0  0  0  0  0  0  0  0  0  0  0
   -8.0757   -2.6440  -18.8098 N   0  0  0  0  0  0  0  0  0  0  0  0
   -8.6626    0.0040  -15.4842 N   0  0  0  0  0  0  0  0  0  0  0  0
   -9.1877   -1.7794  -14.1056 O   0  0  0  0  0  0  0  0  0  0  0  0
   -9.0597    0.3345  -13.2433 O   0  0  0  0  0  0  0  0  0  0  0  0
   -6.5951    1.5341  -16.7425 H   0  0  0  0  0  0  0  0  0  0  0  0
   -7.8891    2.6130  -17.3028 H   0  0  0  0  0  0  0  0  0  0  0  0
   -9.1579    0.8647  -18.2620 H   0  0  0  0  0  0  0  0  0  0  0  0
   -7.5114    0.2809  -18.5337 H   0  0  0  0  0  0  0  0  0  0  0  0
   -6.9331   -1.8377  -15.7349 H   0  0  0  0  0  0  0  0  0  0  0  0
   -6.3285   -1.0239  -17.1685 H   0  0  0  0  0  0  0  0  0  0  0  0
  -10.5732   -0.8475  -17.3269 H   0  0  0  0  0  0  0  0  0  0  0  0
   -9.9146   -2.2689  -16.5296 H   0  0  0  0  0  0  0  0  0  0  0  0
   -7.8328    1.7363  -14.7128 H   0  0  0  0  0  0  0  0  0  0  0  0
   -9.3778    1.9956  -15.5611 H   0  0  0  0  0  0  0  0  0  0  0  0
   -6.4075   -3.3587  -17.7349 H   0  0  0  0  0  0  0  0  0  0  0  0
   -7.9653   -3.5738  -16.9452 H   0  0  0  0  0  0  0  0  0  0  0  0
  -10.1336   -3.0157  -18.7071 H   0  0  0  0  0  0  0  0  0  0  0  0
   -9.7187   -1.4761  -19.4407 H   0  0  0  0  0  0  0  0  0  0  0  0
   -8.3151   -2.0482  -12.2444 H   0  0  0  0  0  0  0  0  0  0  0  0
   -7.3365   -0.7555  -11.5144 H   0  0  0  0  0  0  0  0  0  0  0  0
   -8.5551   -1.6262  -10.5580 H   0  0  0  0  0  0  0  0  0  0  0  0
  -10.1820    1.7211  -11.2639 H   0  0  0  0  0  0  0  0  0  0  0  0
   -8.4620    1.5190  -10.9814 H   0  0  0  0  0  0  0  0  0  0  0  0
   -9.6274    0.6571   -9.9524 H   0  0  0  0  0  0  0  0  0  0  0  0
  -11.5386   -0.1100  -12.3303 H   0  0  0  0  0  0  0  0  0  0  0  0
  -10.7880   -1.6615  -12.7624 H   0  0  0  0  0  0  0  0  0  0  0  0
  -11.0817   -1.2333  -11.0616 H   0  0  0  0  0  0  0  0  0  0  0  0
   -7.5552   -1.9595  -19.3666 H   0  0  0  0  0  0  0  0  0  0  0  0
  1 15  1  0  0  0  0
  1 16  2  0  0  0  0
  1 17  1  0  0  0  0
  2  3  1  0  0  0  0
  2  6  1  0  0  0  0
  3  9  1  0  0  0  0
  4  7  1  0  0  0  0
  4  9  1  0  0  0  0
  5  8  1  0  0  0  0
  5  9  1  0  0  0  0
  6 15  1  0  0  0  0
  7 14  1  0  0  0  0
  8 14  1  0  0  0  0
  9 15  1  0  0  0  0
 10 13  1  0  0  0  0
 11 13  1  0  0  0  0
 12 13  1  0  0  0  0
 13 17  1  0  0  0  0
  2 18  1  0  0  0  0
  2 19  1  0  0  0  0
  3 20  1  0  0  0  0
  3 21  1  0  0  0  0
  4 22  1  0  0  0  0
  4 23  1  0  0  0  0
  5 24  1  0  0  0  0
  5 25  1  0  0  0  0
  6 26  1  0  0  0  0
  6 27  1  0  0  0  0
  7 28  1  0  0  0  0
  7 29  1  0  0  0  0
  8 30  1  0  0  0  0
  8 31  1  0  0  0  0
 10 32  1  0  0  0  0
 10 33  1  0  0  0  0
 10 34  1  0  0  0  0
 11 35  1  0  0  0  0
 11 36  1  0  0  0  0
 11 37  1  0  0  0  0
 12 38  1  0  0  0  0
 12 39  1  0  0  0  0
 12 40  1  0  0  0  0
 14 41  1  0  0  0  0
M  END
> <id>
EN300-268908

> <smiles>
CC(C)(C)OC(=O)N1CCCC21CCNCC2

> <MDLNUMBER>
MFCD06739037

> <IUPAC Name>
tert-butyl 1,8-diazaspiro[4.5]decane-1-carboxylate

> <CAS>
885279-92-5

> <Purity>
95

> <URL>
https://www.enaminestore.com/catalog/EN300-268908

> <ROCS_ShapeQuery>
amalgated

> <ROCS_TanimotoCombo>
0.834 

> <ROCS_ShapeTanimoto>
0.583 

> <ROCS_ColorTanimoto>
0.251 

> <ROCS_RefTversky>
0.546 

> <ROCS_RefColorTversky>
0.375 

> <ROCS_RefTverskyCombo>
0.920 

> <ROCS_FitTversky>
1.135 

> <ROCS_FitColorTversky>
0.430 

> <ROCS_FitTverskyCombo>
1.565 

> <ROCS_ColorScore>
-2.605

> <ROCS_Overlap>
896.190

> <ROCS_Rank>
291                 

$$$$
untitled-dbase-393_6
  -OEChem-10092318153D

 35 36  0     1  0  0  0  0  0999 V2000
   -8.4132   -0.4831  -14.3313 C   0  0  0  0  0  0  0  0  0  0  0  0
   -9.6269   -0.8161  -17.7161 C   0  0  0  0  0  0  0  0  0  0  0  0
   -7.2996   -1.2280  -17.4498 C   0  0  0  0  0  0  0  0  0  0  0  0
   -9.5296   -2.2194  -15.8097 C   0  0  0  0  0  0  0  0  0  0  0  0
   -9.4667   -2.2991  -17.3473 C   0  0  2  0  0  0  0  0  0  0  0  0
   -8.4415   -0.3862  -16.8507 C   0  0  2  0  0  0  0  0  0  0  0  0
   -7.9989   -2.5765  -17.7670 C   0  0  1  0  0  0  0  0  0  0  0  0
   -8.9615    1.1728  -12.0680 C   0  0  0  0  0  0  0  0  0  0  0  0
  -10.1022   -0.8448  -11.1000 C   0  0  0  0  0  0  0  0  0  0  0  0
   -7.6438   -0.9216  -11.6080 C   0  0  0  0  0  0  0  0  0  0  0  0
   -8.9974   -0.3543  -12.0332 C   0  0  0  0  0  0  0  0  0  0  0  0
   -8.7864   -0.9868  -15.5594 N   0  0  0  0  0  0  0  0  0  0  0  0
   -7.8966   -2.8863  -19.1889 N   0  0  0  0  0  0  0  0  0  0  0  0
   -7.4090    0.1980  -14.1388 O   0  0  0  0  0  0  0  0  0  0  0  0
   -9.2995   -0.8331  -13.3484 O   0  0  0  0  0  0  0  0  0  0  0  0
   -9.4918   -0.6026  -18.7807 H   0  0  0  0  0  0  0  0  0  0  0  0
  -10.5782   -0.3898  -17.3788 H   0  0  0  0  0  0  0  0  0  0  0  0
   -6.9077   -0.7449  -18.3532 H   0  0  0  0  0  0  0  0  0  0  0  0
   -6.4633   -1.3570  -16.7541 H   0  0  0  0  0  0  0  0  0  0  0  0
  -10.5519   -2.0874  -15.4403 H   0  0  0  0  0  0  0  0  0  0  0  0
   -9.0583   -3.0645  -15.2995 H   0  0  0  0  0  0  0  0  0  0  0  0
  -10.2066   -2.9755  -17.7805 H   0  0  0  0  0  0  0  0  0  0  0  0
   -8.2367    0.6839  -16.7864 H   0  0  0  0  0  0  0  0  0  0  0  0
   -7.5651   -3.3916  -17.1963 H   0  0  0  0  0  0  0  0  0  0  0  0
   -8.1697    1.5289  -12.7368 H   0  0  0  0  0  0  0  0  0  0  0  0
   -9.9155    1.5912  -12.4051 H   0  0  0  0  0  0  0  0  0  0  0  0
   -8.7354    1.5814  -11.0765 H   0  0  0  0  0  0  0  0  0  0  0  0
  -10.1316   -1.9400  -11.0719 H   0  0  0  0  0  0  0  0  0  0  0  0
  -11.0865   -0.5186  -11.4551 H   0  0  0  0  0  0  0  0  0  0  0  0
   -9.9622   -0.4754  -10.0789 H   0  0  0  0  0  0  0  0  0  0  0  0
   -7.6692   -2.0170  -11.5830 H   0  0  0  0  0  0  0  0  0  0  0  0
   -6.8443   -0.6100  -12.2881 H   0  0  0  0  0  0  0  0  0  0  0  0
   -7.3855   -0.5950  -10.5942 H   0  0  0  0  0  0  0  0  0  0  0  0
   -6.9362   -2.9936  -19.4162 H   0  0  0  0  0  0  0  0  0  0  0  0
   -8.3931   -3.7289  -19.3602 H   0  0  0  0  0  0  0  0  0  0  0  0
  1 12  1  0  0  0  0
  1 14  2  0  0  0  0
  1 15  1  0  0  0  0
  2  5  1  0  0  0  0
  2  6  1  0  0  0  0
  3  6  1  0  0  0  0
  3  7  1  0  0  0  0
  4  5  1  0  0  0  0
  4 12  1  0  0  0  0
  5  7  1  0  0  0  0
  6 12  1  0  0  0  0
  7 13  1  0  0  0  0
  8 11  1  0  0  0  0
  9 11  1  0  0  0  0
 10 11  1  0  0  0  0
 11 15  1  0  0  0  0
  2 16  1  0  0  0  0
  2 17  1  0  0  0  0
  3 18  1  0  0  0  0
  3 19  1  0  0  0  0
  4 20  1  0  0  0  0
  4 21  1  0  0  0  0
  5 22  1  0  0  0  0
  6 23  1  0  0  0  0
  7 24  1  0  0  0  0
  8 25  1  0  0  0  0
  8 26  1  0  0  0  0
  8 27  1  0  0  0  0
  9 28  1  0  0  0  0
  9 29  1  0  0  0  0
  9 30  1  0  0  0  0
 10 31  1  0  0  0  0
 10 32  1  0  0  0  0
 10 33  1  0  0  0  0
 13 34  1  0  0  0  0
 13 35  1  0  0  0  0
M  END
> <id>
EN300-27794

> <smiles>
CC(C)(C)OC(=O)N1CC2CC1CC2N

> <IUPAC Name>
tert-butyl 5-amino-2-azabicyclo[2.2.1]heptane-2-carboxylate

> <CAS>
207405-62-7

> <Purity>
95

> <URL>
https://www.enaminestore.com/catalog/EN300-27794

> <ROCS_ShapeQuery>
amalgated

> <ROCS_TanimotoCombo>
0.833 

> <ROCS_ShapeTanimoto>
0.516 

> <ROCS_ColorTanimoto>
0.317 

> <ROCS_RefTversky>
0.490 

> <ROCS_RefColorTversky>
0.583 

> <ROCS_RefTverskyCombo>
1.073 

> <ROCS_FitTversky>
1.118 

> <ROCS_FitColorTversky>
0.410 

> <ROCS_FitTverskyCombo>
1.528 

> <ROCS_ColorScore>
-4.181

> <ROCS_Overlap>
802.622

> <ROCS_Rank>
292                 

$$$$
untitled-dbase-34265_54
  -OEChem-10092318153D

 38 39  0     1  0  0  0  0  0999 V2000
   -8.1418   -0.6832  -14.1571 C   0  0  0  0  0  0  0  0  0  0  0  0
   -9.2392   -3.0923  -18.3176 C   0  0  0  0  0  0  0  0  0  0  0  0
   -9.1215   -2.2010  -15.9209 C   0  0  0  0  0  0  0  0  0  0  0  0
   -7.3871   -1.6160  -18.3310 C   0  0  0  0  0  0  0  0  0  0  0  0
   -8.3058   -0.0199  -16.5534 C   0  0  0  0  0  0  0  0  0  0  0  0
   -9.5370   -1.9345  -17.3711 C   0  0  1  0  0  0  0  0  0  0  0  0
   -8.5907   -0.8168  -17.8249 C   0  0  2  0  0  0  0  0  0  0  0  0
   -9.1963    0.0591  -18.9245 C   0  0  0  0  0  0  0  0  0  0  0  0
   -9.7639    0.6913  -12.2473 C   0  0  0  0  0  0  0  0  0  0  0  0
  -10.0375   -1.5479  -11.1426 C   0  0  0  0  0  0  0  0  0  0  0  0
   -7.7561   -0.5133  -11.3242 C   0  0  0  0  0  0  0  0  0  0  0  0
   -9.1208   -0.6713  -11.9931 C   0  0  0  0  0  0  0  0  0  0  0  0
   -7.9599   -2.7987  -18.9882 N   0  0  0  0  0  0  0  0  0  0  0  0
   -8.5100   -0.9606  -15.4632 N   0  0  0  0  0  0  0  0  0  0  0  0
   -7.2100    0.0545  -13.8445 O   0  0  0  0  0  0  0  0  0  0  0  0
   -8.9384   -1.3308  -13.2509 O   0  0  0  0  0  0  0  0  0  0  0  0
   -9.1954   -4.0702  -17.8164 H   0  0  0  0  0  0  0  0  0  0  0  0
  -10.0263   -3.1654  -19.0834 H   0  0  0  0  0  0  0  0  0  0  0  0
   -9.9996   -2.3745  -15.2943 H   0  0  0  0  0  0  0  0  0  0  0  0
   -8.4368   -3.0416  -15.8067 H   0  0  0  0  0  0  0  0  0  0  0  0
   -6.7941   -1.0422  -19.0642 H   0  0  0  0  0  0  0  0  0  0  0  0
   -6.7021   -1.9080  -17.5182 H   0  0  0  0  0  0  0  0  0  0  0  0
   -7.2831    0.3604  -16.4755 H   0  0  0  0  0  0  0  0  0  0  0  0
   -8.9783    0.8326  -16.4156 H   0  0  0  0  0  0  0  0  0  0  0  0
  -10.5825   -1.6614  -17.4285 H   0  0  0  0  0  0  0  0  0  0  0  0
  -10.0476    0.6117  -18.5300 H   0  0  0  0  0  0  0  0  0  0  0  0
   -9.5293   -0.5648  -19.7525 H   0  0  0  0  0  0  0  0  0  0  0  0
   -8.4506    0.7648  -19.2875 H   0  0  0  0  0  0  0  0  0  0  0  0
   -9.1090    1.3235  -12.8575 H   0  0  0  0  0  0  0  0  0  0  0  0
  -10.7274    0.5936  -12.7581 H   0  0  0  0  0  0  0  0  0  0  0  0
   -9.9242    1.2297  -11.3062 H   0  0  0  0  0  0  0  0  0  0  0  0
   -9.5800   -2.5265  -10.9577 H   0  0  0  0  0  0  0  0  0  0  0  0
  -10.9832   -1.7423  -11.6614 H   0  0  0  0  0  0  0  0  0  0  0  0
  -10.2610   -1.0818  -10.1775 H   0  0  0  0  0  0  0  0  0  0  0  0
   -7.2946   -1.4905  -11.1417 H   0  0  0  0  0  0  0  0  0  0  0  0
   -7.0727    0.0825  -11.9379 H   0  0  0  0  0  0  0  0  0  0  0  0
   -7.8555   -0.0307  -10.3452 H   0  0  0  0  0  0  0  0  0  0  0  0
   -7.3325   -3.5943  -18.8553 H   0  0  0  0  0  0  0  0  0  0  0  0
  1 14  1  0  0  0  0
  1 15  2  0  0  0  0
  1 16  1  0  0  0  0
  2  6  1  0  0  0  0
  2 13  1  0  0  0  0
  3  6  1  6  0  0  0
  3 14  1  0  0  0  0
  4  7  1  0  0  0  0
  4 13  1  0  0  0  0
  5  7  1  0  0  0  0
  5 14  1  0  0  0  0
  6  7  1  0  0  0  0
  7  8  1  1  0  0  0
  9 12  1  0  0  0  0
 10 12  1  0  0  0  0
 11 12  1  0  0  0  0
 12 16  1  0  0  0  0
  2 17  1  0  0  0  0
  2 18  1  0  0  0  0
  3 19  1  0  0  0  0
  3 20  1  0  0  0  0
  4 21  1  0  0  0  0
  4 22  1  0  0  0  0
  5 23  1  0  0  0  0
  5 24  1  0  0  0  0
  6 25  1  0  0  0  0
  8 26  1  0  0  0  0
  8 27  1  0  0  0  0
  8 28  1  0  0  0  0
  9 29  1  0  0  0  0
  9 30  1  0  0  0  0
  9 31  1  0  0  0  0
 10 32  1  0  0  0  0
 10 33  1  0  0  0  0
 10 34  1  0  0  0  0
 11 35  1  0  0  0  0
 11 36  1  0  0  0  0
 11 37  1  0  0  0  0
 13 38  1  0  0  0  0
M  END
> <id>
EN300-366826

> <smiles>
CC(C)(C)OC(=O)N1C[C@@H]2CNC[C@]2(C)C1 |&1:9,13,r|

> <MDLNUMBER>
MFCD30737568

> <IUPAC Name>
rac-tert-butyl (3aR,6aS)-3a-methyl-octahydropyrrolo[3,4-c]pyrrole-2-carboxylate

> <CAS>
2307784-14-9

> <Purity>
95

> <URL>
https://www.enaminestore.com/catalog/EN300-366826

> <ROCS_ShapeQuery>
amalgated

> <ROCS_TanimotoCombo>
0.833 

> <ROCS_ShapeTanimoto>
0.549 

> <ROCS_ColorTanimoto>
0.285 

> <ROCS_RefTversky>
0.517 

> <ROCS_RefColorTversky>
0.417 

> <ROCS_RefTverskyCombo>
0.934 

> <ROCS_FitTversky>
1.124 

> <ROCS_FitColorTversky>
0.473 

> <ROCS_FitTverskyCombo>
1.597 

> <ROCS_ColorScore>
-2.897

> <ROCS_Overlap>
849.150

> <ROCS_Rank>
293                 

$$$$
untitled-dbase-38927_7
  -OEChem-10092318153D

 34 36  0     1  0  0  0  0  0999 V2000
   -8.1121   -1.9742  -18.3185 C   0  0  0  0  0  0  0  0  0  0  0  0
   -9.0025   -2.8162  -17.6597 C   0  0  0  0  0  0  0  0  0  0  0  0
   -7.7325   -0.7669  -17.7316 C   0  0  0  0  0  0  0  0  0  0  0  0
   -9.5107   -2.4509  -16.4147 C   0  0  0  0  0  0  0  0  0  0  0  0
   -8.2334   -0.3876  -16.4745 C   0  0  0  0  0  0  0  0  0  0  0  0
   -9.1233   -1.2457  -15.8186 C   0  0  0  0  0  0  0  0  0  0  0  0
   -7.9625   -0.5432  -12.9877 C   0  0  0  0  0  0  0  0  0  0  0  0
  -10.2468    0.5413  -12.8464 C   0  0  0  0  0  0  0  0  0  0  0  0
   -8.7353    1.2794  -14.6929 C   0  0  0  0  0  0  0  0  0  0  0  0
   -7.8301    0.1026  -11.6120 C   0  0  0  0  0  0  0  0  0  0  0  0
  -10.2549   -0.2621  -11.5469 C   0  0  0  0  0  0  0  0  0  0  0  0
   -7.8219    0.9313  -15.8734 C   0  0  1  0  0  0  0  0  0  0  0  0
   -9.1203    0.0733  -13.8099 C   0  0  0  0  0  0  0  0  0  0  0  0
   -9.0205   -0.0810  -10.7806 N   0  0  0  0  0  0  0  0  0  0  0  0
   -6.4128    0.9335  -15.4764 N   0  0  0  0  0  0  0  0  0  0  0  0
   -9.7011   -0.9791  -14.6078 O   0  0  0  0  0  0  0  0  0  0  0  0
   -7.7165   -2.2539  -19.2903 H   0  0  0  0  0  0  0  0  0  0  0  0
   -9.3022   -3.7552  -18.1153 H   0  0  0  0  0  0  0  0  0  0  0  0
   -7.0426   -0.1159  -18.2645 H   0  0  0  0  0  0  0  0  0  0  0  0
  -10.2097   -3.1131  -15.9092 H   0  0  0  0  0  0  0  0  0  0  0  0
   -7.0195   -0.4421  -13.5370 H   0  0  0  0  0  0  0  0  0  0  0  0
   -8.1378   -1.6059  -12.8057 H   0  0  0  0  0  0  0  0  0  0  0  0
  -11.2208    0.4205  -13.3295 H   0  0  0  0  0  0  0  0  0  0  0  0
  -10.1184    1.6030  -12.6142 H   0  0  0  0  0  0  0  0  0  0  0  0
   -8.2919    2.0846  -14.0855 H   0  0  0  0  0  0  0  0  0  0  0  0
   -9.6628    1.7044  -15.1145 H   0  0  0  0  0  0  0  0  0  0  0  0
   -6.9427   -0.2865  -11.0855 H   0  0  0  0  0  0  0  0  0  0  0  0
   -7.6572    1.1827  -11.7391 H   0  0  0  0  0  0  0  0  0  0  0  0
  -11.1017    0.0670  -10.9287 H   0  0  0  0  0  0  0  0  0  0  0  0
  -10.4188   -1.3307  -11.7518 H   0  0  0  0  0  0  0  0  0  0  0  0
   -7.9392    1.7049  -16.6112 H   0  0  0  0  0  0  0  0  0  0  0  0
   -8.8813   -0.8994  -10.1713 H   0  0  0  0  0  0  0  0  0  0  0  0
   -5.8639    0.7509  -16.2824 H   0  0  0  0  0  0  0  0  0  0  0  0
   -6.1993    1.8265  -15.1004 H   0  0  0  0  0  0  0  0  0  0  0  0
  1  2  2  0  0  0  0
  1  3  1  0  0  0  0
  2  4  1  0  0  0  0
  3  5  2  0  0  0  0
  4  6  2  0  0  0  0
  5  6  1  0  0  0  0
  5 12  1  0  0  0  0
  6 16  1  0  0  0  0
  7 10  1  0  0  0  0
  7 13  1  0  0  0  0
  8 11  1  0  0  0  0
  8 13  1  0  0  0  0
  9 12  1  0  0  0  0
  9 13  1  0  0  0  0
 10 14  1  0  0  0  0
 11 14  1  0  0  0  0
 12 15  1  6  0  0  0
 13 16  1  0  0  0  0
  1 17  1  0  0  0  0
  2 18  1  0  0  0  0
  3 19  1  0  0  0  0
  4 20  1  0  0  0  0
  7 21  1  0  0  0  0
  7 22  1  0  0  0  0
  8 23  1  0  0  0  0
  8 24  1  0  0  0  0
  9 25  1  0  0  0  0
  9 26  1  0  0  0  0
 10 27  1  0  0  0  0
 10 28  1  0  0  0  0
 11 29  1  0  0  0  0
 11 30  1  0  0  0  0
 12 31  1  0  0  0  0
 14 32  1  0  0  0  0
 15 33  1  0  0  0  0
 15 34  1  0  0  0  0
M  END
> <id>
EN300-702103

> <smiles>
N[C@@H]1CC2(CCNCC2)OC=3C=CC=CC13

> <IUPAC Name>
(4R)-3,4-dihydrospiro[1-benzopyran-2,4'-piperidine]-4-amine

> <CAS>
1604323-49-0

> <URL>
https://www.enaminestore.com/catalog/EN300-702103

> <ROCS_ShapeQuery>
amalgated

> <ROCS_TanimotoCombo>
0.833 

> <ROCS_ShapeTanimoto>
0.553 

> <ROCS_ColorTanimoto>
0.280 

> <ROCS_RefTversky>
0.523 

> <ROCS_RefColorTversky>
0.465 

> <ROCS_RefTverskyCombo>
0.988 

> <ROCS_FitTversky>
1.118 

> <ROCS_FitColorTversky>
0.412 

> <ROCS_FitTverskyCombo>
1.530 

> <ROCS_ColorScore>
-3.281

> <ROCS_Overlap>
858.508

> <ROCS_Rank>
294                 

$$$$
untitled-dbase-41212_314
  -OEChem-10092318153D

 40 40  0     1  0  0  0  0  0999 V2000
   -9.0301    0.2716  -13.8334 C   0  0  0  0  0  0  0  0  0  0  0  0
   -7.5194    0.7073  -17.3478 C   0  0  0  0  0  0  0  0  0  0  0  0
   -7.3133   -0.6388  -18.0502 C   0  0  0  0  0  0  0  0  0  0  0  0
   -8.1612   -2.4352  -15.6812 C   0  0  0  0  0  0  0  0  0  0  0  0
   -8.4597    0.8346  -16.1536 C   0  0  0  0  0  0  0  0  0  0  0  0
   -7.4414   -1.2301  -15.0660 C   0  0  0  0  0  0  0  0  0  0  0  0
   -8.4843   -1.6246  -18.1665 C   0  0  2  0  0  0  0  0  0  0  0  0
   -9.0888   -2.1794  -16.8663 C   0  0  0  0  0  0  0  0  0  0  0  0
  -11.0256   -0.4800  -11.9250 C   0  0  0  0  0  0  0  0  0  0  0  0
   -9.1228   -1.4216  -10.5826 C   0  0  0  0  0  0  0  0  0  0  0  0
   -9.2077    1.0395  -11.0761 C   0  0  0  0  0  0  0  0  0  0  0  0
   -9.5382   -0.3584  -11.5970 C   0  0  0  0  0  0  0  0  0  0  0  0
   -8.2653   -0.0220  -14.9785 N   0  0  0  0  0  0  0  0  0  0  0  0
   -7.9979   -2.7448  -18.9904 N   0  0  0  0  0  0  0  0  0  0  0  0
   -9.8410    1.1943  -13.7657 O   0  0  0  0  0  0  0  0  0  0  0  0
   -8.7872   -0.5880  -12.7946 O   0  0  0  0  0  0  0  0  0  0  0  0
   -9.7066   -3.3687  -17.1563 F   0  0  0  0  0  0  0  0  0  0  0  0
  -10.1136   -1.3776  -16.4677 F   0  0  0  0  0  0  0  0  0  0  0  0
   -6.5133    1.0563  -17.0098 H   0  0  0  0  0  0  0  0  0  0  0  0
   -7.7981    1.4662  -18.1203 H   0  0  0  0  0  0  0  0  0  0  0  0
   -6.9437   -0.3785  -19.0797 H   0  0  0  0  0  0  0  0  0  0  0  0
   -6.4147   -1.1523  -17.6077 H   0  0  0  0  0  0  0  0  0  0  0  0
   -7.4423   -3.2350  -15.9293 H   0  0  0  0  0  0  0  0  0  0  0  0
   -8.7753   -2.8848  -14.8791 H   0  0  0  0  0  0  0  0  0  0  0  0
   -8.5125    1.9052  -15.8127 H   0  0  0  0  0  0  0  0  0  0  0  0
   -9.5057    0.6516  -16.5207 H   0  0  0  0  0  0  0  0  0  0  0  0
   -7.0664   -1.5000  -14.0814 H   0  0  0  0  0  0  0  0  0  0  0  0
   -6.5835   -0.9744  -15.6867 H   0  0  0  0  0  0  0  0  0  0  0  0
   -9.2937   -1.1660  -18.7884 H   0  0  0  0  0  0  0  0  0  0  0  0
  -11.3277    0.2815  -12.6529 H   0  0  0  0  0  0  0  0  0  0  0  0
  -11.2694   -1.4666  -12.3324 H   0  0  0  0  0  0  0  0  0  0  0  0
  -11.6379   -0.3136  -11.0314 H   0  0  0  0  0  0  0  0  0  0  0  0
   -8.0563   -1.3381  -10.3443 H   0  0  0  0  0  0  0  0  0  0  0  0
   -9.2701   -2.4284  -10.9899 H   0  0  0  0  0  0  0  0  0  0  0  0
   -9.6935   -1.3372   -9.6521 H   0  0  0  0  0  0  0  0  0  0  0  0
   -8.1408    1.1271  -10.8407 H   0  0  0  0  0  0  0  0  0  0  0  0
   -9.4651    1.8134  -11.8065 H   0  0  0  0  0  0  0  0  0  0  0  0
   -9.7476    1.2461  -10.1449 H   0  0  0  0  0  0  0  0  0  0  0  0
   -8.7601   -3.3560  -19.1443 H   0  0  0  0  0  0  0  0  0  0  0  0
   -7.6634   -2.3669  -19.8409 H   0  0  0  0  0  0  0  0  0  0  0  0
  1 13  1  0  0  0  0
  1 15  2  0  0  0  0
  1 16  1  0  0  0  0
  2  3  1  0  0  0  0
  2  5  1  0  0  0  0
  3  7  1  0  0  0  0
  4  6  1  0  0  0  0
  4  8  1  0  0  0  0
  5 13  1  0  0  0  0
  6 13  1  0  0  0  0
  7  8  1  0  0  0  0
  7 14  1  0  0  0  0
  8 17  1  0  0  0  0
  8 18  1  0  0  0  0
  9 12  1  0  0  0  0
 10 12  1  0  0  0  0
 11 12  1  0  0  0  0
 12 16  1  0  0  0  0
  2 19  1  0  0  0  0
  2 20  1  0  0  0  0
  3 21  1  0  0  0  0
  3 22  1  0  0  0  0
  4 23  1  0  0  0  0
  4 24  1  0  0  0  0
  5 25  1  0  0  0  0
  5 26  1  0  0  0  0
  6 27  1  0  0  0  0
  6 28  1  0  0  0  0
  7 29  1  0  0  0  0
  9 30  1  0  0  0  0
  9 31  1  0  0  0  0
  9 32  1  0  0  0  0
 10 33  1  0  0  0  0
 10 34  1  0  0  0  0
 10 35  1  0  0  0  0
 11 36  1  0  0  0  0
 11 37  1  0  0  0  0
 11 38  1  0  0  0  0
 14 39  1  0  0  0  0
 14 40  1  0  0  0  0
M  END
> <id>
EN300-27192872

> <smiles>
CC(C)(C)OC(=O)N1CCCC(N)C(F)(F)CC1

> <MDLNUMBER>
MFCD32875230

> <IUPAC Name>
tert-butyl 5-amino-4,4-difluoroazocane-1-carboxylate

> <CAS>
2551120-24-0

> <Purity>
95

> <URL>
https://www.enaminestore.com/catalog/EN300-27192872

> <ROCS_ShapeQuery>
amalgated

> <ROCS_TanimotoCombo>
0.833 

> <ROCS_ShapeTanimoto>
0.611 

> <ROCS_ColorTanimoto>
0.222 

> <ROCS_RefTversky>
0.568 

> <ROCS_RefColorTversky>
0.292 

> <ROCS_RefTverskyCombo>
0.860 

> <ROCS_FitTversky>
1.140 

> <ROCS_FitColorTversky>
0.482 

> <ROCS_FitTverskyCombo>
1.621 

> <ROCS_ColorScore>
-2.000

> <ROCS_Overlap>
934.668

> <ROCS_Rank>
295                 

$$$$
untitled-dbase-34203_81
  -OEChem-10092318153D

 35 36  0     0  0  0  0  0  0999 V2000
   -8.8195    0.2579  -14.0054 C   0  0  0  0  0  0  0  0  0  0  0  0
   -7.3688   -1.7473  -18.0235 C   0  0  0  0  0  0  0  0  0  0  0  0
   -8.6206    0.0560  -16.5566 C   0  0  0  0  0  0  0  0  0  0  0  0
   -7.8915   -1.6468  -15.4834 C   0  0  0  0  0  0  0  0  0  0  0  0
   -9.0747   -3.3561  -18.1703 C   0  0  0  0  0  0  0  0  0  0  0  0
   -8.4012   -1.4313  -16.9374 C   0  0  0  0  0  0  0  0  0  0  0  0
   -9.6338   -2.2224  -17.3433 C   0  0  0  0  0  0  0  0  0  0  0  0
  -10.7232    0.8346  -11.9572 C   0  0  0  0  0  0  0  0  0  0  0  0
   -9.8800   -1.2524  -10.8424 C   0  0  0  0  0  0  0  0  0  0  0  0
   -8.3217    0.6809  -11.2197 C   0  0  0  0  0  0  0  0  0  0  0  0
   -9.5220   -0.0905  -11.7665 C   0  0  0  0  0  0  0  0  0  0  0  0
   -8.0206   -2.6936  -18.9400 N   0  0  0  0  0  0  0  0  0  0  0  0
   -8.4987   -0.3681  -15.1771 N   0  0  0  0  0  0  0  0  0  0  0  0
   -8.7972    1.4749  -13.8443 O   0  0  0  0  0  0  0  0  0  0  0  0
   -9.1671   -0.6444  -13.0384 O   0  0  0  0  0  0  0  0  0  0  0  0
  -10.4616   -1.4567  -18.0935 F   0  0  0  0  0  0  0  0  0  0  0  0
  -10.3318   -2.6695  -16.2797 F   0  0  0  0  0  0  0  0  0  0  0  0
   -7.0852   -0.8451  -18.5820 H   0  0  0  0  0  0  0  0  0  0  0  0
   -6.4524   -2.1948  -17.6203 H   0  0  0  0  0  0  0  0  0  0  0  0
   -7.8478    0.7642  -16.8718 H   0  0  0  0  0  0  0  0  0  0  0  0
   -9.6097    0.4773  -16.7678 H   0  0  0  0  0  0  0  0  0  0  0  0
   -8.3567   -2.4675  -14.9305 H   0  0  0  0  0  0  0  0  0  0  0  0
   -6.8076   -1.6732  -15.3548 H   0  0  0  0  0  0  0  0  0  0  0  0
   -8.6653   -4.1567  -17.5486 H   0  0  0  0  0  0  0  0  0  0  0  0
   -9.8369   -3.7760  -18.8364 H   0  0  0  0  0  0  0  0  0  0  0  0
  -10.4703    1.6699  -12.6200 H   0  0  0  0  0  0  0  0  0  0  0  0
  -11.5799    0.3010  -12.3816 H   0  0  0  0  0  0  0  0  0  0  0  0
  -11.0300    1.2787  -11.0034 H   0  0  0  0  0  0  0  0  0  0  0  0
   -9.0210   -1.9187  -10.7028 H   0  0  0  0  0  0  0  0  0  0  0  0
  -10.6783   -1.8649  -11.2768 H   0  0  0  0  0  0  0  0  0  0  0  0
  -10.2090   -0.9003   -9.8594 H   0  0  0  0  0  0  0  0  0  0  0  0
   -7.4600    0.0175  -11.0829 H   0  0  0  0  0  0  0  0  0  0  0  0
   -8.0274    1.4961  -11.8887 H   0  0  0  0  0  0  0  0  0  0  0  0
   -8.5463    1.1034  -10.2337 H   0  0  0  0  0  0  0  0  0  0  0  0
   -8.4113   -2.2045  -19.7463 H   0  0  0  0  0  0  0  0  0  0  0  0
  1 13  1  0  0  0  0
  1 14  2  0  0  0  0
  1 15  1  0  0  0  0
  2  6  1  0  0  0  0
  2 12  1  0  0  0  0
  3  6  1  0  0  0  0
  3 13  1  0  0  0  0
  4  6  1  0  0  0  0
  4 13  1  0  0  0  0
  5  7  1  0  0  0  0
  5 12  1  0  0  0  0
  6  7  1  0  0  0  0
  7 16  1  0  0  0  0
  7 17  1  0  0  0  0
  8 11  1  0  0  0  0
  9 11  1  0  0  0  0
 10 11  1  0  0  0  0
 11 15  1  0  0  0  0
  2 18  1  0  0  0  0
  2 19  1  0  0  0  0
  3 20  1  0  0  0  0
  3 21  1  0  0  0  0
  4 22  1  0  0  0  0
  4 23  1  0  0  0  0
  5 24  1  0  0  0  0
  5 25  1  0  0  0  0
  8 26  1  0  0  0  0
  8 27  1  0  0  0  0
  8 28  1  0  0  0  0
  9 29  1  0  0  0  0
  9 30  1  0  0  0  0
  9 31  1  0  0  0  0
 10 32  1  0  0  0  0
 10 33  1  0  0  0  0
 10 34  1  0  0  0  0
 12 35  1  0  0  0  0
M  END
> <id>
EN300-1105267

> <smiles>
CC(C)(C)OC(=O)N1CC2(C1)CNCC2(F)F

> <MDLNUMBER>
MFCD31586336

> <IUPAC Name>
tert-butyl 8,8-difluoro-2,6-diazaspiro[3.4]octane-2-carboxylate

> <CAS>
2137997-74-9

> <URL>
https://www.enaminestore.com/catalog/EN300-1105267

> <ROCS_ShapeQuery>
amalgated

> <ROCS_TanimotoCombo>
0.833 

> <ROCS_ShapeTanimoto>
0.594 

> <ROCS_ColorTanimoto>
0.238 

> <ROCS_RefTversky>
0.556 

> <ROCS_RefColorTversky>
0.360 

> <ROCS_RefTverskyCombo>
0.917 

> <ROCS_FitTversky>
1.130 

> <ROCS_FitColorTversky>
0.413 

> <ROCS_FitTverskyCombo>
1.543 

> <ROCS_ColorScore>
-2.504

> <ROCS_Overlap>
914.692

> <ROCS_Rank>
296                 

$$$$
untitled-dbase-34413_73
  -OEChem-10092318153D

 44 45  0     0  0  0  0  0  0999 V2000
   -9.1324    0.4807  -12.4941 C   0  0  0  0  0  0  0  0  0  0  0  0
   -7.4645   -1.0165  -17.0580 C   0  0  0  0  0  0  0  0  0  0  0  0
   -9.8535   -1.4128  -17.6887 C   0  0  0  0  0  0  0  0  0  0  0  0
   -9.2981    0.4776  -16.1214 C   0  0  0  0  0  0  0  0  0  0  0  0
   -9.1254   -1.8881  -15.3002 C   0  0  0  0  0  0  0  0  0  0  0  0
   -7.1128   -2.3459  -17.7295 C   0  0  0  0  0  0  0  0  0  0  0  0
   -9.4223   -2.7327  -18.3290 C   0  0  0  0  0  0  0  0  0  0  0  0
   -8.5759    0.9516  -14.8627 C   0  0  0  0  0  0  0  0  0  0  0  0
   -8.4198   -1.3845  -14.0407 C   0  0  0  0  0  0  0  0  0  0  0  0
   -8.9226   -0.9680  -16.5328 C   0  0  0  0  0  0  0  0  0  0  0  0
  -10.9047   -1.1369  -11.4308 C   0  0  0  0  0  0  0  0  0  0  0  0
   -9.0597   -2.2172  -10.1124 C   0  0  0  0  0  0  0  0  0  0  0  0
   -9.9019    0.0556   -9.4542 C   0  0  0  0  0  0  0  0  0  0  0  0
   -9.6327   -0.8955  -10.6194 C   0  0  0  0  0  0  0  0  0  0  0  0
   -8.0440   -2.6663  -18.8087 N   0  0  0  0  0  0  0  0  0  0  0  0
   -8.7574    0.0127  -13.7584 N   0  0  0  0  0  0  0  0  0  0  0  0
   -9.8176    1.4835  -12.3015 O   0  0  0  0  0  0  0  0  0  0  0  0
   -8.6515   -0.3003  -11.4765 O   0  0  0  0  0  0  0  0  0  0  0  0
   -6.7430   -0.8260  -16.2565 H   0  0  0  0  0  0  0  0  0  0  0  0
   -7.3183   -0.2114  -17.7914 H   0  0  0  0  0  0  0  0  0  0  0  0
   -9.8675   -0.6356  -18.4656 H   0  0  0  0  0  0  0  0  0  0  0  0
  -10.8868   -1.5067  -17.3318 H   0  0  0  0  0  0  0  0  0  0  0  0
  -10.3804    0.5373  -15.9428 H   0  0  0  0  0  0  0  0  0  0  0  0
   -9.0838    1.1747  -16.9412 H   0  0  0  0  0  0  0  0  0  0  0  0
   -8.7870   -2.9091  -15.5047 H   0  0  0  0  0  0  0  0  0  0  0  0
  -10.1992   -1.9645  -15.0799 H   0  0  0  0  0  0  0  0  0  0  0  0
   -6.1022   -2.2800  -18.1481 H   0  0  0  0  0  0  0  0  0  0  0  0
   -7.0873   -3.1620  -16.9988 H   0  0  0  0  0  0  0  0  0  0  0  0
   -9.5379   -3.5667  -17.6277 H   0  0  0  0  0  0  0  0  0  0  0  0
  -10.0791   -2.9526  -19.1781 H   0  0  0  0  0  0  0  0  0  0  0  0
   -7.4986    1.0453  -15.0388 H   0  0  0  0  0  0  0  0  0  0  0  0
   -8.9411    1.9458  -14.5848 H   0  0  0  0  0  0  0  0  0  0  0  0
   -8.6838   -2.0326  -13.2000 H   0  0  0  0  0  0  0  0  0  0  0  0
   -7.3316   -1.4391  -14.1511 H   0  0  0  0  0  0  0  0  0  0  0  0
  -11.3191   -0.1906  -11.7965 H   0  0  0  0  0  0  0  0  0  0  0  0
  -10.7176   -1.7896  -12.2897 H   0  0  0  0  0  0  0  0  0  0  0  0
  -11.6830   -1.5959  -10.8104 H   0  0  0  0  0  0  0  0  0  0  0  0
   -8.1468   -2.0487   -9.5297 H   0  0  0  0  0  0  0  0  0  0  0  0
   -8.7765   -2.8663  -10.9489 H   0  0  0  0  0  0  0  0  0  0  0  0
   -9.7777   -2.7544   -9.4844 H   0  0  0  0  0  0  0  0  0  0  0  0
   -8.9896    0.2289   -8.8720 H   0  0  0  0  0  0  0  0  0  0  0  0
  -10.2789    1.0228   -9.8019 H   0  0  0  0  0  0  0  0  0  0  0  0
  -10.6339   -0.3747   -8.7611 H   0  0  0  0  0  0  0  0  0  0  0  0
   -7.9788   -1.9436  -19.5259 H   0  0  0  0  0  0  0  0  0  0  0  0
  1 16  1  0  0  0  0
  1 17  2  0  0  0  0
  1 18  1  0  0  0  0
  2  6  1  0  0  0  0
  2 10  1  0  0  0  0
  3  7  1  0  0  0  0
  3 10  1  0  0  0  0
  4  8  1  0  0  0  0
  4 10  1  0  0  0  0
  5  9  1  0  0  0  0
  5 10  1  0  0  0  0
  6 15  1  0  0  0  0
  7 15  1  0  0  0  0
  8 16  1  0  0  0  0
  9 16  1  0  0  0  0
 11 14  1  0  0  0  0
 12 14  1  0  0  0  0
 13 14  1  0  0  0  0
 14 18  1  0  0  0  0
  2 19  1  0  0  0  0
  2 20  1  0  0  0  0
  3 21  1  0  0  0  0
  3 22  1  0  0  0  0
  4 23  1  0  0  0  0
  4 24  1  0  0  0  0
  5 25  1  0  0  0  0
  5 26  1  0  0  0  0
  6 27  1  0  0  0  0
  6 28  1  0  0  0  0
  7 29  1  0  0  0  0
  7 30  1  0  0  0  0
  8 31  1  0  0  0  0
  8 32  1  0  0  0  0
  9 33  1  0  0  0  0
  9 34  1  0  0  0  0
 11 35  1  0  0  0  0
 11 36  1  0  0  0  0
 11 37  1  0  0  0  0
 12 38  1  0  0  0  0
 12 39  1  0  0  0  0
 12 40  1  0  0  0  0
 13 41  1  0  0  0  0
 13 42  1  0  0  0  0
 13 43  1  0  0  0  0
 15 44  1  0  0  0  0
M  END
> <id>
EN300-170883

> <smiles>
CC(C)(C)OC(=O)N1CCC2(CCNCC2)CC1

> <MDLNUMBER>
MFCD05861627

> <IUPAC Name>
tert-butyl 3,9-diazaspiro[5.5]undecane-3-carboxylate

> <CAS>
173405-78-2

> <URL>
https://www.enaminestore.com/catalog/EN300-170883

> <ROCS_ShapeQuery>
amalgated

> <ROCS_TanimotoCombo>
0.833 

> <ROCS_ShapeTanimoto>
0.580 

> <ROCS_ColorTanimoto>
0.253 

> <ROCS_RefTversky>
0.551 

> <ROCS_RefColorTversky>
0.377 

> <ROCS_RefTverskyCombo>
0.928 

> <ROCS_FitTversky>
1.101 

> <ROCS_FitColorTversky>
0.433 

> <ROCS_FitTverskyCombo>
1.535 

> <ROCS_ColorScore>
-2.622

> <ROCS_Overlap>
905.699

> <ROCS_Rank>
297                 

$$$$
untitled-dbase-4220_73
  -OEChem-10092318153D

 44 45  0     0  0  0  0  0  0999 V2000
   -9.1324    0.4807  -12.4941 C   0  0  0  0  0  0  0  0  0  0  0  0
   -7.4645   -1.0165  -17.0580 C   0  0  0  0  0  0  0  0  0  0  0  0
   -9.8535   -1.4128  -17.6887 C   0  0  0  0  0  0  0  0  0  0  0  0
   -9.2981    0.4776  -16.1214 C   0  0  0  0  0  0  0  0  0  0  0  0
   -9.1254   -1.8881  -15.3002 C   0  0  0  0  0  0  0  0  0  0  0  0
   -7.1128   -2.3459  -17.7295 C   0  0  0  0  0  0  0  0  0  0  0  0
   -9.4223   -2.7327  -18.3290 C   0  0  0  0  0  0  0  0  0  0  0  0
   -8.5759    0.9516  -14.8627 C   0  0  0  0  0  0  0  0  0  0  0  0
   -8.4198   -1.3845  -14.0407 C   0  0  0  0  0  0  0  0  0  0  0  0
   -8.9226   -0.9680  -16.5328 C   0  0  0  0  0  0  0  0  0  0  0  0
  -10.9047   -1.1369  -11.4308 C   0  0  0  0  0  0  0  0  0  0  0  0
   -9.0597   -2.2172  -10.1124 C   0  0  0  0  0  0  0  0  0  0  0  0
   -9.9019    0.0556   -9.4542 C   0  0  0  0  0  0  0  0  0  0  0  0
   -9.6327   -0.8955  -10.6194 C   0  0  0  0  0  0  0  0  0  0  0  0
   -8.0440   -2.6663  -18.8087 N   0  0  0  0  0  0  0  0  0  0  0  0
   -8.7574    0.0127  -13.7584 N   0  0  0  0  0  0  0  0  0  0  0  0
   -9.8176    1.4835  -12.3015 O   0  0  0  0  0  0  0  0  0  0  0  0
   -8.6515   -0.3003  -11.4765 O   0  0  0  0  0  0  0  0  0  0  0  0
   -6.7430   -0.8260  -16.2565 H   0  0  0  0  0  0  0  0  0  0  0  0
   -7.3183   -0.2114  -17.7914 H   0  0  0  0  0  0  0  0  0  0  0  0
   -9.8675   -0.6356  -18.4656 H   0  0  0  0  0  0  0  0  0  0  0  0
  -10.8868   -1.5067  -17.3318 H   0  0  0  0  0  0  0  0  0  0  0  0
  -10.3804    0.5373  -15.9428 H   0  0  0  0  0  0  0  0  0  0  0  0
   -9.0838    1.1747  -16.9412 H   0  0  0  0  0  0  0  0  0  0  0  0
   -8.7870   -2.9091  -15.5047 H   0  0  0  0  0  0  0  0  0  0  0  0
  -10.1992   -1.9645  -15.0799 H   0  0  0  0  0  0  0  0  0  0  0  0
   -6.1022   -2.2800  -18.1481 H   0  0  0  0  0  0  0  0  0  0  0  0
   -7.0873   -3.1620  -16.9988 H   0  0  0  0  0  0  0  0  0  0  0  0
   -9.5379   -3.5667  -17.6277 H   0  0  0  0  0  0  0  0  0  0  0  0
  -10.0791   -2.9526  -19.1781 H   0  0  0  0  0  0  0  0  0  0  0  0
   -7.4986    1.0453  -15.0388 H   0  0  0  0  0  0  0  0  0  0  0  0
   -8.9411    1.9458  -14.5848 H   0  0  0  0  0  0  0  0  0  0  0  0
   -8.6838   -2.0326  -13.2000 H   0  0  0  0  0  0  0  0  0  0  0  0
   -7.3316   -1.4391  -14.1511 H   0  0  0  0  0  0  0  0  0  0  0  0
  -11.3191   -0.1906  -11.7965 H   0  0  0  0  0  0  0  0  0  0  0  0
  -10.7176   -1.7896  -12.2897 H   0  0  0  0  0  0  0  0  0  0  0  0
  -11.6830   -1.5959  -10.8104 H   0  0  0  0  0  0  0  0  0  0  0  0
   -8.1468   -2.0487   -9.5297 H   0  0  0  0  0  0  0  0  0  0  0  0
   -8.7765   -2.8663  -10.9489 H   0  0  0  0  0  0  0  0  0  0  0  0
   -9.7777   -2.7544   -9.4844 H   0  0  0  0  0  0  0  0  0  0  0  0
   -8.9896    0.2289   -8.8720 H   0  0  0  0  0  0  0  0  0  0  0  0
  -10.2789    1.0228   -9.8019 H   0  0  0  0  0  0  0  0  0  0  0  0
  -10.6339   -0.3747   -8.7611 H   0  0  0  0  0  0  0  0  0  0  0  0
   -7.9788   -1.9436  -19.5259 H   0  0  0  0  0  0  0  0  0  0  0  0
  1 16  1  0  0  0  0
  1 17  2  0  0  0  0
  1 18  1  0  0  0  0
  2  6  1  0  0  0  0
  2 10  1  0  0  0  0
  3  7  1  0  0  0  0
  3 10  1  0  0  0  0
  4  8  1  0  0  0  0
  4 10  1  0  0  0  0
  5  9  1  0  0  0  0
  5 10  1  0  0  0  0
  6 15  1  0  0  0  0
  7 15  1  0  0  0  0
  8 16  1  0  0  0  0
  9 16  1  0  0  0  0
 11 14  1  0  0  0  0
 12 14  1  0  0  0  0
 13 14  1  0  0  0  0
 14 18  1  0  0  0  0
  2 19  1  0  0  0  0
  2 20  1  0  0  0  0
  3 21  1  0  0  0  0
  3 22  1  0  0  0  0
  4 23  1  0  0  0  0
  4 24  1  0  0  0  0
  5 25  1  0  0  0  0
  5 26  1  0  0  0  0
  6 27  1  0  0  0  0
  6 28  1  0  0  0  0
  7 29  1  0  0  0  0
  7 30  1  0  0  0  0
  8 31  1  0  0  0  0
  8 32  1  0  0  0  0
  9 33  1  0  0  0  0
  9 34  1  0  0  0  0
 11 35  1  0  0  0  0
 11 36  1  0  0  0  0
 11 37  1  0  0  0  0
 12 38  1  0  0  0  0
 12 39  1  0  0  0  0
 12 40  1  0  0  0  0
 13 41  1  0  0  0  0
 13 42  1  0  0  0  0
 13 43  1  0  0  0  0
 15 44  1  0  0  0  0
M  END
> <id>
EN300-176840

> <smiles>
Cl.CC(C)(C)OC(=O)N1CCC2(CCNCC2)CC1

> <MDLNUMBER>
MFCD11656757

> <IUPAC Name>
tert-butyl 3,9-diazaspiro[5.5]undecane-3-carboxylate hydrochloride

> <CAS>
236406-47-6

> <Purity>
95

> <URL>
https://www.enaminestore.com/catalog/EN300-176840

> <Saltdate>
Cl

> <ROCS_ShapeQuery>
amalgated

> <ROCS_TanimotoCombo>
0.833 

> <ROCS_ShapeTanimoto>
0.580 

> <ROCS_ColorTanimoto>
0.253 

> <ROCS_RefTversky>
0.551 

> <ROCS_RefColorTversky>
0.377 

> <ROCS_RefTverskyCombo>
0.928 

> <ROCS_FitTversky>
1.101 

> <ROCS_FitColorTversky>
0.433 

> <ROCS_FitTverskyCombo>
1.535 

> <ROCS_ColorScore>
-2.622

> <ROCS_Overlap>
905.699

> <ROCS_Rank>
298                 

$$$$
untitled-dbase-23026_32
  -OEChem-10092318153D

 38 39  0     1  0  0  0  0  0999 V2000
   -9.2463   -2.0185  -14.4265 C   0  0  0  0  0  0  0  0  0  0  0  0
   -9.1988   -0.6799  -18.8595 C   0  0  0  0  0  0  0  0  0  0  0  0
   -7.4388   -1.3401  -16.0404 C   0  0  0  0  0  0  0  0  0  0  0  0
   -9.4679   -2.4332  -16.8600 C   0  0  0  0  0  0  0  0  0  0  0  0
   -7.5418   -1.0394  -17.5204 C   0  0  2  0  0  0  0  0  0  0  0  0
   -8.3674    0.2268  -17.9195 C   0  0  1  0  0  0  0  0  0  0  0  0
   -8.7035   -1.8980  -18.0465 C   0  0  2  0  0  0  0  0  0  0  0  0
  -10.3393   -0.6082  -12.5074 C   0  0  0  0  0  0  0  0  0  0  0  0
   -8.1377   -0.6301  -11.2984 C   0  0  0  0  0  0  0  0  0  0  0  0
   -8.4406    0.8310  -13.3187 C   0  0  0  0  0  0  0  0  0  0  0  0
   -7.5921    1.3488  -18.5823 C   0  0  0  0  0  0  0  0  0  0  0  0
   -8.8230   -0.4917  -12.6561 C   0  0  0  0  0  0  0  0  0  0  0  0
   -8.7470   -1.8921  -15.7179 N   0  0  0  0  0  0  0  0  0  0  0  0
   -8.1922   -2.9212  -18.9531 N   0  0  0  0  0  0  0  0  0  0  0  0
  -10.3512   -2.4850  -14.1572 O   0  0  0  0  0  0  0  0  0  0  0  0
   -8.3625   -1.5660  -13.4834 O   0  0  0  0  0  0  0  0  0  0  0  0
   -6.7755    1.9450  -17.6947 F   0  0  0  0  0  0  0  0  0  0  0  0
   -6.8451    0.8710  -19.5942 F   0  0  0  0  0  0  0  0  0  0  0  0
   -8.4341    2.2753  -19.0752 F   0  0  0  0  0  0  0  0  0  0  0  0
  -10.2786   -0.5023  -18.8333 H   0  0  0  0  0  0  0  0  0  0  0  0
   -8.8728   -0.6471  -19.9070 H   0  0  0  0  0  0  0  0  0  0  0  0
   -6.6947   -2.1169  -15.8394 H   0  0  0  0  0  0  0  0  0  0  0  0
   -7.2175   -0.4624  -15.4277 H   0  0  0  0  0  0  0  0  0  0  0  0
  -10.5108   -2.0984  -16.8344 H   0  0  0  0  0  0  0  0  0  0  0  0
   -9.4471   -3.5268  -16.7838 H   0  0  0  0  0  0  0  0  0  0  0  0
   -6.5881   -1.1189  -18.0567 H   0  0  0  0  0  0  0  0  0  0  0  0
   -8.9762    0.6226  -17.0937 H   0  0  0  0  0  0  0  0  0  0  0  0
  -10.8350   -0.5093  -13.4797 H   0  0  0  0  0  0  0  0  0  0  0  0
  -10.6288   -1.5671  -12.0654 H   0  0  0  0  0  0  0  0  0  0  0  0
  -10.7333    0.1967  -11.8764 H   0  0  0  0  0  0  0  0  0  0  0  0
   -7.0496   -0.5471  -11.4004 H   0  0  0  0  0  0  0  0  0  0  0  0
   -8.3324   -1.6162  -10.8616 H   0  0  0  0  0  0  0  0  0  0  0  0
   -8.4791    0.1349  -10.5936 H   0  0  0  0  0  0  0  0  0  0  0  0
   -7.3530    0.9148  -13.4256 H   0  0  0  0  0  0  0  0  0  0  0  0
   -8.8940    0.9313  -14.3102 H   0  0  0  0  0  0  0  0  0  0  0  0
   -8.7573    1.6809  -12.7035 H   0  0  0  0  0  0  0  0  0  0  0  0
   -7.2373   -3.0845  -18.7341 H   0  0  0  0  0  0  0  0  0  0  0  0
   -8.7264   -3.7485  -18.8236 H   0  0  0  0  0  0  0  0  0  0  0  0
  1 13  1  0  0  0  0
  1 15  2  0  0  0  0
  1 16  1  0  0  0  0
  2  6  1  0  0  0  0
  2  7  1  0  0  0  0
  3  5  1  6  0  0  0
  3 13  1  0  0  0  0
  4  7  1  0  0  0  0
  4 13  1  0  0  0  0
  5  6  1  0  0  0  0
  5  7  1  0  0  0  0
  6 11  1  1  0  0  0
  7 14  1  1  0  0  0
  8 12  1  0  0  0  0
  9 12  1  0  0  0  0
 10 12  1  0  0  0  0
 11 17  1  0  0  0  0
 11 18  1  0  0  0  0
 11 19  1  0  0  0  0
 12 16  1  0  0  0  0
  2 20  1  0  0  0  0
  2 21  1  0  0  0  0
  3 22  1  0  0  0  0
  3 23  1  0  0  0  0
  4 24  1  0  0  0  0
  4 25  1  0  0  0  0
  5 26  1  0  0  0  0
  6 27  1  0  0  0  0
  8 28  1  0  0  0  0
  8 29  1  0  0  0  0
  8 30  1  0  0  0  0
  9 31  1  0  0  0  0
  9 32  1  0  0  0  0
  9 33  1  0  0  0  0
 10 34  1  0  0  0  0
 10 35  1  0  0  0  0
 10 36  1  0  0  0  0
 14 37  1  0  0  0  0
 14 38  1  0  0  0  0
M  END
> <id>
EN300-37099740

> <smiles>
CC(C)(C)OC(=O)N1C[C@@H]2[C@H](C[C@]2(N)C1)C(F)(F)F |&1:9,10,12,r|

> <IUPAC Name>
rac-tert-butyl (1R,5S,6S)-1-amino-6-(trifluoromethyl)-3-azabicyclo[3.2.0]heptane-3-carboxylate

> <CAS>
2732244-85-6

> <URL>
https://www.enaminestore.com/catalog/EN300-37099740

> <ROCS_ShapeQuery>
amalgated

> <ROCS_TanimotoCombo>
0.833 

> <ROCS_ShapeTanimoto>
0.530 

> <ROCS_ColorTanimoto>
0.303 

> <ROCS_RefTversky>
0.534 

> <ROCS_RefColorTversky>
0.536 

> <ROCS_RefTverskyCombo>
1.070 

> <ROCS_FitTversky>
0.984 

> <ROCS_FitColorTversky>
0.411 

> <ROCS_FitTverskyCombo>
1.395 

> <ROCS_ColorScore>
-3.815

> <ROCS_Overlap>
880.421

> <ROCS_Rank>
299                 

$$$$
untitled-dbase-18146_32
  -OEChem-10092318153D

 38 39  0     1  0  0  0  0  0999 V2000
   -9.2463   -2.0185  -14.4265 C   0  0  0  0  0  0  0  0  0  0  0  0
   -9.1988   -0.6799  -18.8595 C   0  0  0  0  0  0  0  0  0  0  0  0
   -7.4388   -1.3401  -16.0404 C   0  0  0  0  0  0  0  0  0  0  0  0
   -9.4679   -2.4332  -16.8600 C   0  0  0  0  0  0  0  0  0  0  0  0
   -7.5418   -1.0394  -17.5204 C   0  0  2  0  0  0  0  0  0  0  0  0
   -8.3674    0.2268  -17.9195 C   0  0  1  0  0  0  0  0  0  0  0  0
   -8.7035   -1.8980  -18.0465 C   0  0  2  0  0  0  0  0  0  0  0  0
  -10.3393   -0.6082  -12.5074 C   0  0  0  0  0  0  0  0  0  0  0  0
   -8.1377   -0.6301  -11.2984 C   0  0  0  0  0  0  0  0  0  0  0  0
   -8.4406    0.8310  -13.3187 C   0  0  0  0  0  0  0  0  0  0  0  0
   -7.5921    1.3488  -18.5823 C   0  0  0  0  0  0  0  0  0  0  0  0
   -8.8230   -0.4917  -12.6561 C   0  0  0  0  0  0  0  0  0  0  0  0
   -8.7470   -1.8921  -15.7179 N   0  0  0  0  0  0  0  0  0  0  0  0
   -8.1922   -2.9212  -18.9531 N   0  0  0  0  0  0  0  0  0  0  0  0
  -10.3512   -2.4850  -14.1572 O   0  0  0  0  0  0  0  0  0  0  0  0
   -8.3625   -1.5660  -13.4834 O   0  0  0  0  0  0  0  0  0  0  0  0
   -6.7755    1.9450  -17.6947 F   0  0  0  0  0  0  0  0  0  0  0  0
   -6.8451    0.8710  -19.5942 F   0  0  0  0  0  0  0  0  0  0  0  0
   -8.4341    2.2753  -19.0752 F   0  0  0  0  0  0  0  0  0  0  0  0
  -10.2786   -0.5023  -18.8333 H   0  0  0  0  0  0  0  0  0  0  0  0
   -8.8728   -0.6471  -19.9070 H   0  0  0  0  0  0  0  0  0  0  0  0
   -6.6947   -2.1169  -15.8394 H   0  0  0  0  0  0  0  0  0  0  0  0
   -7.2175   -0.4624  -15.4277 H   0  0  0  0  0  0  0  0  0  0  0  0
  -10.5108   -2.0984  -16.8344 H   0  0  0  0  0  0  0  0  0  0  0  0
   -9.4471   -3.5268  -16.7838 H   0  0  0  0  0  0  0  0  0  0  0  0
   -6.5881   -1.1189  -18.0567 H   0  0  0  0  0  0  0  0  0  0  0  0
   -8.9762    0.6226  -17.0937 H   0  0  0  0  0  0  0  0  0  0  0  0
  -10.8350   -0.5093  -13.4797 H   0  0  0  0  0  0  0  0  0  0  0  0
  -10.6288   -1.5671  -12.0654 H   0  0  0  0  0  0  0  0  0  0  0  0
  -10.7333    0.1967  -11.8764 H   0  0  0  0  0  0  0  0  0  0  0  0
   -7.0496   -0.5471  -11.4004 H   0  0  0  0  0  0  0  0  0  0  0  0
   -8.3324   -1.6162  -10.8616 H   0  0  0  0  0  0  0  0  0  0  0  0
   -8.4791    0.1349  -10.5936 H   0  0  0  0  0  0  0  0  0  0  0  0
   -7.3530    0.9148  -13.4256 H   0  0  0  0  0  0  0  0  0  0  0  0
   -8.8940    0.9313  -14.3102 H   0  0  0  0  0  0  0  0  0  0  0  0
   -8.7573    1.6809  -12.7035 H   0  0  0  0  0  0  0  0  0  0  0  0
   -7.2373   -3.0845  -18.7341 H   0  0  0  0  0  0  0  0  0  0  0  0
   -8.7264   -3.7485  -18.8236 H   0  0  0  0  0  0  0  0  0  0  0  0
  1 13  1  0  0  0  0
  1 15  2  0  0  0  0
  1 16  1  0  0  0  0
  2  6  1  0  0  0  0
  2  7  1  0  0  0  0
  3  5  1  6  0  0  0
  3 13  1  0  0  0  0
  4  7  1  0  0  0  0
  4 13  1  0  0  0  0
  5  6  1  0  0  0  0
  5  7  1  0  0  0  0
  6 11  1  1  0  0  0
  7 14  1  1  0  0  0
  8 12  1  0  0  0  0
  9 12  1  0  0  0  0
 10 12  1  0  0  0  0
 11 17  1  0  0  0  0
 11 18  1  0  0  0  0
 11 19  1  0  0  0  0
 12 16  1  0  0  0  0
  2 20  1  0  0  0  0
  2 21  1  0  0  0  0
  3 22  1  0  0  0  0
  3 23  1  0  0  0  0
  4 24  1  0  0  0  0
  4 25  1  0  0  0  0
  5 26  1  0  0  0  0
  6 27  1  0  0  0  0
  8 28  1  0  0  0  0
  8 29  1  0  0  0  0
  8 30  1  0  0  0  0
  9 31  1  0  0  0  0
  9 32  1  0  0  0  0
  9 33  1  0  0  0  0
 10 34  1  0  0  0  0
 10 35  1  0  0  0  0
 10 36  1  0  0  0  0
 14 37  1  0  0  0  0
 14 38  1  0  0  0  0
M  END
> <id>
EN300-37099739

> <smiles>
Cl.CC(C)(C)OC(=O)N1C[C@@H]2[C@H](C[C@]2(N)C1)C(F)(F)F |&1:10,11,13,r|

> <IUPAC Name>
rac-tert-butyl (1R,5S,6S)-1-amino-6-(trifluoromethyl)-3-azabicyclo[3.2.0]heptane-3-carboxylate hydrochloride

> <CAS>
2763584-24-1

> <Purity>
95

> <URL>
https://www.enaminestore.com/catalog/EN300-37099739

> <Saltdate>
Cl

> <ROCS_ShapeQuery>
amalgated

> <ROCS_TanimotoCombo>
0.833 

> <ROCS_ShapeTanimoto>
0.530 

> <ROCS_ColorTanimoto>
0.303 

> <ROCS_RefTversky>
0.534 

> <ROCS_RefColorTversky>
0.536 

> <ROCS_RefTverskyCombo>
1.070 

> <ROCS_FitTversky>
0.984 

> <ROCS_FitColorTversky>
0.411 

> <ROCS_FitTverskyCombo>
1.395 

> <ROCS_ColorScore>
-3.815

> <ROCS_Overlap>
880.421

> <ROCS_Rank>
300                 

$$$$
untitled-dbase-41275_0
  -OEChem-10092318153D

 30 32  0     0  0  0  0  0  0999 V2000
   -8.9167   -2.5760  -17.9049 C   0  0  0  0  0  0  0  0  0  0  0  0
   -8.2770   -1.3987  -18.2707 C   0  0  0  0  0  0  0  0  0  0  0  0
   -9.2881   -2.7736  -16.5797 C   0  0  0  0  0  0  0  0  0  0  0  0
   -8.0034   -0.4183  -17.3110 C   0  0  0  0  0  0  0  0  0  0  0  0
   -9.0139   -1.7878  -15.6196 C   0  0  0  0  0  0  0  0  0  0  0  0
   -8.3584   -0.5873  -15.9578 C   0  0  0  0  0  0  0  0  0  0  0  0
   -9.4319   -2.0280  -14.2215 C   0  0  0  0  0  0  0  0  0  0  0  0
   -9.1966   -0.9372  -13.2388 C   0  0  0  0  0  0  0  0  0  0  0  0
   -8.5722    0.1866  -13.6483 C   0  0  0  0  0  0  0  0  0  0  0  0
   -9.6672   -1.1677  -11.8268 C   0  0  0  0  0  0  0  0  0  0  0  0
   -8.3994    1.3072  -12.6344 C   0  0  0  0  0  0  0  0  0  0  0  0
   -9.2361    1.1442  -11.3606 C   0  0  0  0  0  0  0  0  0  0  0  0
   -7.3123    1.5522  -15.3651 C   0  0  0  0  0  0  0  0  0  0  0  0
   -9.1246   -0.2179  -10.8533 N   0  0  0  0  0  0  0  0  0  0  0  0
   -8.0934    0.3823  -14.9524 N   0  0  0  0  0  0  0  0  0  0  0  0
   -9.9649   -3.0814  -13.8931 O   0  0  0  0  0  0  0  0  0  0  0  0
   -9.1282   -3.3366  -18.6503 H   0  0  0  0  0  0  0  0  0  0  0  0
   -7.9886   -1.2370  -19.3055 H   0  0  0  0  0  0  0  0  0  0  0  0
   -9.7921   -3.6987  -16.3129 H   0  0  0  0  0  0  0  0  0  0  0  0
   -7.5074    0.4833  -17.6608 H   0  0  0  0  0  0  0  0  0  0  0  0
  -10.7635   -1.1286  -11.8069 H   0  0  0  0  0  0  0  0  0  0  0  0
   -9.3731   -2.1714  -11.4994 H   0  0  0  0  0  0  0  0  0  0  0  0
   -7.3379    1.3658  -12.3606 H   0  0  0  0  0  0  0  0  0  0  0  0
   -8.6842    2.2662  -13.0838 H   0  0  0  0  0  0  0  0  0  0  0  0
   -8.8759    1.8472  -10.6014 H   0  0  0  0  0  0  0  0  0  0  0  0
  -10.2867    1.3955  -11.5548 H   0  0  0  0  0  0  0  0  0  0  0  0
   -7.9921    2.3421  -15.7170 H   0  0  0  0  0  0  0  0  0  0  0  0
   -6.7296    1.9243  -14.5096 H   0  0  0  0  0  0  0  0  0  0  0  0
   -6.6285    1.2680  -16.1786 H   0  0  0  0  0  0  0  0  0  0  0  0
   -9.6400   -0.3031   -9.9778 H   0  0  0  0  0  0  0  0  0  0  0  0
  1  2  2  0  0  0  0
  1  3  1  0  0  0  0
  2  4  1  0  0  0  0
  3  5  2  0  0  0  0
  4  6  2  0  0  0  0
  5  6  1  0  0  0  0
  5  7  1  0  0  0  0
  6 15  1  0  0  0  0
  7  8  1  0  0  0  0
  7 16  2  0  0  0  0
  8  9  2  0  0  0  0
  8 10  1  0  0  0  0
  9 11  1  0  0  0  0
  9 15  1  0  0  0  0
 10 14  1  0  0  0  0
 11 12  1  0  0  0  0
 12 14  1  0  0  0  0
 13 15  1  0  0  0  0
  1 17  1  0  0  0  0
  2 18  1  0  0  0  0
  3 19  1  0  0  0  0
  4 20  1  0  0  0  0
 10 21  1  0  0  0  0
 10 22  1  0  0  0  0
 11 23  1  0  0  0  0
 11 24  1  0  0  0  0
 12 25  1  0  0  0  0
 12 26  1  0  0  0  0
 13 27  1  0  0  0  0
 13 28  1  0  0  0  0
 13 29  1  0  0  0  0
 14 30  1  0  0  0  0
M  END
> <id>
EN300-264872

> <smiles>
CN1C=2CCNCC2C(=O)C=3C=CC=CC13

> <MDLNUMBER>
MFCD21086566

> <IUPAC Name>
5-methyl-1H,2H,3H,4H,5H,10H-benzo[b]1,6-naphthyridin-10-one

> <CAS>
1355182-21-6

> <URL>
https://www.enaminestore.com/catalog/EN300-264872

> <ROCS_ShapeQuery>
amalgated

> <ROCS_TanimotoCombo>
0.833 

> <ROCS_ShapeTanimoto>
0.509 

> <ROCS_ColorTanimoto>
0.323 

> <ROCS_RefTversky>
0.498 

> <ROCS_RefColorTversky>
0.457 

> <ROCS_RefTverskyCombo>
0.955 

> <ROCS_FitTversky>
1.047 

> <ROCS_FitColorTversky>
0.525 

> <ROCS_FitTverskyCombo>
1.571 

> <ROCS_ColorScore>
-3.178

> <ROCS_Overlap>
817.837

> <ROCS_Rank>
301                 

$$$$
untitled-dbase-34734_167
  -OEChem-10092318153D

 45 46  0     1  0  0  0  0  0999 V2000
   -8.6663    0.6718  -13.8756 C   0  0  0  0  0  0  0  0  0  0  0  0
   -8.0191    1.6648  -17.2297 C   0  0  0  0  0  0  0  0  0  0  0  0
   -7.5078    0.3762  -17.8794 C   0  0  0  0  0  0  0  0  0  0  0  0
   -7.5443    1.7818  -15.7875 C   0  0  0  0  0  0  0  0  0  0  0  0
   -9.3698   -2.9984  -18.3557 C   0  0  0  0  0  0  0  0  0  0  0  0
   -7.3799   -0.6838  -15.5891 C   0  0  0  0  0  0  0  0  0  0  0  0
   -9.8061   -2.2854  -17.0806 C   0  0  0  0  0  0  0  0  0  0  0  0
   -7.1749   -2.1379  -17.7275 C   0  0  1  0  0  0  0  0  0  0  0  0
   -7.8417   -0.8922  -17.0468 C   0  0  2  0  0  0  0  0  0  0  0  0
   -6.7416   -3.2903  -16.8082 C   0  0  0  0  0  0  0  0  0  0  0  0
  -10.6225   -0.4289  -12.0991 C   0  0  0  0  0  0  0  0  0  0  0  0
   -8.6770   -1.4727  -10.9013 C   0  0  0  0  0  0  0  0  0  0  0  0
   -8.8668    1.0280  -11.0362 C   0  0  0  0  0  0  0  0  0  0  0  0
   -9.1403   -0.2932  -11.7535 C   0  0  0  0  0  0  0  0  0  0  0  0
   -8.0323   -2.6246  -18.8099 N   0  0  0  0  0  0  0  0  0  0  0  0
   -7.8913    0.5792  -15.0361 N   0  0  0  0  0  0  0  0  0  0  0  0
   -9.5150    1.5394  -13.6768 O   0  0  0  0  0  0  0  0  0  0  0  0
   -9.2846   -0.9677  -17.0481 O   0  0  0  0  0  0  0  0  0  0  0  0
   -8.3846   -0.3165  -12.9700 O   0  0  0  0  0  0  0  0  0  0  0  0
   -7.6667    2.5282  -17.8043 H   0  0  0  0  0  0  0  0  0  0  0  0
   -9.1145    1.6900  -17.2596 H   0  0  0  0  0  0  0  0  0  0  0  0
   -7.9568    0.2948  -18.8802 H   0  0  0  0  0  0  0  0  0  0  0  0
   -6.4222    0.4683  -18.0206 H   0  0  0  0  0  0  0  0  0  0  0  0
   -6.4556    1.8835  -15.7521 H   0  0  0  0  0  0  0  0  0  0  0  0
   -7.9759    2.6714  -15.3241 H   0  0  0  0  0  0  0  0  0  0  0  0
   -9.4096   -4.0967  -18.2011 H   0  0  0  0  0  0  0  0  0  0  0  0
  -10.0977   -2.7933  -19.1702 H   0  0  0  0  0  0  0  0  0  0  0  0
   -7.6710   -1.5199  -14.9465 H   0  0  0  0  0  0  0  0  0  0  0  0
   -6.2851   -0.6153  -15.5309 H   0  0  0  0  0  0  0  0  0  0  0  0
  -10.8963   -2.2104  -17.0639 H   0  0  0  0  0  0  0  0  0  0  0  0
   -9.5104   -2.8401  -16.1876 H   0  0  0  0  0  0  0  0  0  0  0  0
   -6.2327   -1.7615  -18.2242 H   0  0  0  0  0  0  0  0  0  0  0  0
   -7.6112   -3.6980  -16.2975 H   0  0  0  0  0  0  0  0  0  0  0  0
   -6.0316   -2.9229  -16.0705 H   0  0  0  0  0  0  0  0  0  0  0  0
   -6.2723   -4.0736  -17.3994 H   0  0  0  0  0  0  0  0  0  0  0  0
  -10.9589    0.4159  -12.7107 H   0  0  0  0  0  0  0  0  0  0  0  0
  -10.8262   -1.3561  -12.6446 H   0  0  0  0  0  0  0  0  0  0  0  0
  -11.2380   -0.4185  -11.1923 H   0  0  0  0  0  0  0  0  0  0  0  0
   -7.6140   -1.3795  -10.6510 H   0  0  0  0  0  0  0  0  0  0  0  0
   -8.7833   -2.4158  -11.4495 H   0  0  0  0  0  0  0  0  0  0  0  0
   -9.2473   -1.5469   -9.9698 H   0  0  0  0  0  0  0  0  0  0  0  0
   -7.8037    1.1257  -10.7882 H   0  0  0  0  0  0  0  0  0  0  0  0
   -9.1592    1.8873  -11.6484 H   0  0  0  0  0  0  0  0  0  0  0  0
   -9.4116    1.0758  -10.0863 H   0  0  0  0  0  0  0  0  0  0  0  0
   -7.5895   -3.4370  -19.2678 H   0  0  0  0  0  0  0  0  0  0  0  0
  1 16  1  0  0  0  0
  1 17  2  0  0  0  0
  1 19  1  0  0  0  0
  2  3  1  0  0  0  0
  2  4  1  0  0  0  0
  3  9  1  0  0  0  0
  4 16  1  0  0  0  0
  5  7  1  0  0  0  0
  5 15  1  0  0  0  0
  6  9  1  0  0  0  0
  6 16  1  0  0  0  0
  7 18  1  0  0  0  0
  8  9  1  0  0  0  0
  8 10  1  0  0  0  0
  8 15  1  0  0  0  0
  9 18  1  0  0  0  0
 11 14  1  0  0  0  0
 12 14  1  0  0  0  0
 13 14  1  0  0  0  0
 14 19  1  0  0  0  0
  2 20  1  0  0  0  0
  2 21  1  0  0  0  0
  3 22  1  0  0  0  0
  3 23  1  0  0  0  0
  4 24  1  0  0  0  0
  4 25  1  0  0  0  0
  5 26  1  0  0  0  0
  5 27  1  0  0  0  0
  6 28  1  0  0  0  0
  6 29  1  0  0  0  0
  7 30  1  0  0  0  0
  7 31  1  0  0  0  0
  8 32  1  0  0  0  0
 10 33  1  0  0  0  0
 10 34  1  0  0  0  0
 10 35  1  0  0  0  0
 11 36  1  0  0  0  0
 11 37  1  0  0  0  0
 11 38  1  0  0  0  0
 12 39  1  0  0  0  0
 12 40  1  0  0  0  0
 12 41  1  0  0  0  0
 13 42  1  0  0  0  0
 13 43  1  0  0  0  0
 13 44  1  0  0  0  0
 15 45  1  0  0  0  0
M  END
> <id>
EN300-1640767

> <smiles>
CC1NCCOC21CCCN(C2)C(=O)OC(C)(C)C

> <IUPAC Name>
tert-butyl 5-methyl-1-oxa-4,8-diazaspiro[5.5]undecane-8-carboxylate

> <CAS>
2171723-21-8

> <URL>
https://www.enaminestore.com/catalog/EN300-1640767

> <ROCS_ShapeQuery>
amalgated

> <ROCS_TanimotoCombo>
0.832 

> <ROCS_ShapeTanimoto>
0.607 

> <ROCS_ColorTanimoto>
0.226 

> <ROCS_RefTversky>
0.578 

> <ROCS_RefColorTversky>
0.368 

> <ROCS_RefTverskyCombo>
0.946 

> <ROCS_FitTversky>
1.090 

> <ROCS_FitColorTversky>
0.368 

> <ROCS_FitTverskyCombo>
1.458 

> <ROCS_ColorScore>
-2.578

> <ROCS_Overlap>
951.782

> <ROCS_Rank>
302                 

$$$$
untitled-dbase-14624_366
  -OEChem-10092318153D

 45 46  0     1  0  0  0  0  0999 V2000
   -8.4395   -0.2396  -13.3635 C   0  0  0  0  0  0  0  0  0  0  0  0
   -8.1695    1.3671  -16.7601 C   0  0  0  0  0  0  0  0  0  0  0  0
   -8.9005    1.0534  -15.4660 C   0  0  0  0  0  0  0  0  0  0  0  0
   -9.4453   -2.5931  -18.3816 C   0  0  0  0  0  0  0  0  0  0  0  0
   -7.2241   -2.3066  -17.6774 C   0  0  0  0  0  0  0  0  0  0  0  0
   -7.4910   -1.0184  -15.5185 C   0  0  0  0  0  0  0  0  0  0  0  0
   -9.4609   -1.8445  -17.0331 C   0  0  2  0  0  0  0  0  0  0  0  0
   -8.0164    0.1567  -17.6950 C   0  0  2  0  0  0  0  0  0  0  0  0
   -8.0326   -1.2220  -16.9445 C   0  0  2  0  0  0  0  0  0  0  0  0
   -9.8278   -2.8178  -15.9072 C   0  0  0  0  0  0  0  0  0  0  0  0
   -8.7987    0.8339  -10.7363 C   0  0  0  0  0  0  0  0  0  0  0  0
  -11.2607    0.6760  -11.2083 C   0  0  0  0  0  0  0  0  0  0  0  0
   -9.8595   -1.4080  -11.1642 C   0  0  0  0  0  0  0  0  0  0  0  0
   -9.8852    0.0817  -11.5034 C   0  0  0  0  0  0  0  0  0  0  0  0
   -8.0528   -2.6276  -18.8363 N   0  0  0  0  0  0  0  0  0  0  0  0
   -8.2852   -0.0621  -14.7430 N   0  0  0  0  0  0  0  0  0  0  0  0
   -7.6022   -0.7684  -12.6348 O   0  0  0  0  0  0  0  0  0  0  0  0
   -6.7909    0.3348  -18.4098 O   0  0  0  0  0  0  0  0  0  0  0  0
   -9.6413    0.2341  -12.9063 O   0  0  0  0  0  0  0  0  0  0  0  0
   -8.6952    2.1774  -17.2993 H   0  0  0  0  0  0  0  0  0  0  0  0
   -7.1723    1.7924  -16.5363 H   0  0  0  0  0  0  0  0  0  0  0  0
   -8.9407    1.9497  -14.8313 H   0  0  0  0  0  0  0  0  0  0  0  0
   -9.9420    0.7644  -15.6743 H   0  0  0  0  0  0  0  0  0  0  0  0
   -9.8230   -3.6167  -18.2708 H   0  0  0  0  0  0  0  0  0  0  0  0
  -10.0802   -2.0848  -19.1159 H   0  0  0  0  0  0  0  0  0  0  0  0
   -6.2712   -1.9231  -18.0351 H   0  0  0  0  0  0  0  0  0  0  0  0
   -7.0329   -3.1889  -17.0752 H   0  0  0  0  0  0  0  0  0  0  0  0
   -7.5266   -1.9654  -14.9491 H   0  0  0  0  0  0  0  0  0  0  0  0
   -6.4289   -0.7219  -15.5249 H   0  0  0  0  0  0  0  0  0  0  0  0
  -10.2092   -1.0851  -17.0809 H   0  0  0  0  0  0  0  0  0  0  0  0
   -8.8221    0.1797  -18.4345 H   0  0  0  0  0  0  0  0  0  0  0  0
   -9.0782   -3.6064  -15.8355 H   0  0  0  0  0  0  0  0  0  0  0  0
  -10.7991   -3.2714  -16.1068 H   0  0  0  0  0  0  0  0  0  0  0  0
   -9.8746   -2.2878  -14.9553 H   0  0  0  0  0  0  0  0  0  0  0  0
   -7.8098    0.4103  -10.9455 H   0  0  0  0  0  0  0  0  0  0  0  0
   -8.7836    1.8972  -10.9969 H   0  0  0  0  0  0  0  0  0  0  0  0
   -8.9506    0.7447   -9.6546 H   0  0  0  0  0  0  0  0  0  0  0  0
  -12.0434    0.1393  -11.7566 H   0  0  0  0  0  0  0  0  0  0  0  0
  -11.3136    1.7200  -11.5377 H   0  0  0  0  0  0  0  0  0  0  0  0
  -11.4969    0.6371  -10.1400 H   0  0  0  0  0  0  0  0  0  0  0  0
  -10.6388   -1.9478  -11.7143 H   0  0  0  0  0  0  0  0  0  0  0  0
   -8.8914   -1.8596  -11.4040 H   0  0  0  0  0  0  0  0  0  0  0  0
  -10.0647   -1.5688  -10.0996 H   0  0  0  0  0  0  0  0  0  0  0  0
   -7.8367   -3.5724  -19.1540 H   0  0  0  0  0  0  0  0  0  0  0  0
   -6.8758    1.1663  -18.9017 H   0  0  0  0  0  0  0  0  0  0  0  0
  1 16  1  0  0  0  0
  1 17  2  0  0  0  0
  1 19  1  0  0  0  0
  2  3  1  0  0  0  0
  2  8  1  0  0  0  0
  3 16  1  0  0  0  0
  4  7  1  0  0  0  0
  4 15  1  0  0  0  0
  5  9  1  0  0  0  0
  5 15  1  0  0  0  0
  6  9  1  0  0  0  0
  6 16  1  0  0  0  0
  7  9  1  0  0  0  0
  7 10  1  0  0  0  0
  8  9  1  0  0  0  0
  8 18  1  0  0  0  0
 11 14  1  0  0  0  0
 12 14  1  0  0  0  0
 13 14  1  0  0  0  0
 14 19  1  0  0  0  0
  2 20  1  0  0  0  0
  2 21  1  0  0  0  0
  3 22  1  0  0  0  0
  3 23  1  0  0  0  0
  4 24  1  0  0  0  0
  4 25  1  0  0  0  0
  5 26  1  0  0  0  0
  5 27  1  0  0  0  0
  6 28  1  0  0  0  0
  6 29  1  0  0  0  0
  7 30  1  0  0  0  0
  8 31  1  0  0  0  0
 10 32  1  0  0  0  0
 10 33  1  0  0  0  0
 10 34  1  0  0  0  0
 11 35  1  0  0  0  0
 11 36  1  0  0  0  0
 11 37  1  0  0  0  0
 12 38  1  0  0  0  0
 12 39  1  0  0  0  0
 12 40  1  0  0  0  0
 13 41  1  0  0  0  0
 13 42  1  0  0  0  0
 13 43  1  0  0  0  0
 15 44  1  0  0  0  0
 18 45  1  0  0  0  0
M  END
> <id>
EN300-1085431

> <smiles>
CC1CNCC21CN(CCC2O)C(=O)OC(C)(C)C

> <IUPAC Name>
tert-butyl 10-hydroxy-4-methyl-2,7-diazaspiro[4.5]decane-7-carboxylate

> <CAS>
2138242-06-3

> <URL>
https://www.enaminestore.com/catalog/EN300-1085431

> <ROCS_ShapeQuery>
amalgated

> <ROCS_TanimotoCombo>
0.832 

> <ROCS_ShapeTanimoto>
0.637 

> <ROCS_ColorTanimoto>
0.196 

> <ROCS_RefTversky>
0.595 

> <ROCS_RefColorTversky>
0.348 

> <ROCS_RefTverskyCombo>
0.943 

> <ROCS_FitTversky>
1.125 

> <ROCS_FitColorTversky>
0.309 

> <ROCS_FitTverskyCombo>
1.434 

> <ROCS_ColorScore>
-2.456

> <ROCS_Overlap>
979.429

> <ROCS_Rank>
303                 

$$$$
untitled-dbase-26503_0
  -OEChem-10092318153D

 27 29  0     1  0  0  0  0  0999 V2000
   -9.0018    0.9921  -11.9941 C   0  0  0  0  0  0  0  0  0  0  0  0
   -9.0975   -0.1956  -11.2725 C   0  0  0  0  0  0  0  0  0  0  0  0
   -8.8831    0.9750  -13.3884 C   0  0  0  0  0  0  0  0  0  0  0  0
   -9.0782   -1.4346  -11.9188 C   0  0  0  0  0  0  0  0  0  0  0  0
   -8.8611   -0.2623  -14.0636 C   0  0  0  0  0  0  0  0  0  0  0  0
   -8.7540   -0.6510  -15.4290 C   0  0  0  0  0  0  0  0  0  0  0  0
   -8.9594   -1.4375  -13.3133 C   0  0  0  0  0  0  0  0  0  0  0  0
   -8.7972   -2.0314  -15.4789 C   0  0  0  0  0  0  0  0  0  0  0  0
   -8.7208   -2.8238  -16.6870 C   0  0  0  0  0  0  0  0  0  0  0  0
   -8.6203    0.1864  -16.6541 C   0  0  0  0  0  0  0  0  0  0  0  0
   -7.9841   -0.6339  -17.7893 C   0  0  0  0  0  0  0  0  0  0  0  0
   -8.6906   -1.9916  -17.9805 C   0  0  1  0  0  0  0  0  0  0  0  0
   -8.9145   -2.4940  -14.1964 N   0  0  0  0  0  0  0  0  0  0  0  0
   -8.0146   -2.7802  -19.0081 N   0  0  0  0  0  0  0  0  0  0  0  0
   -8.7379   -4.0521  -16.6902 O   0  0  0  0  0  0  0  0  0  0  0  0
   -9.0195    1.9442  -11.4704 H   0  0  0  0  0  0  0  0  0  0  0  0
   -9.1891   -0.1590  -10.1900 H   0  0  0  0  0  0  0  0  0  0  0  0
   -8.8086    1.9096  -13.9371 H   0  0  0  0  0  0  0  0  0  0  0  0
   -9.1523   -2.3588  -11.3555 H   0  0  0  0  0  0  0  0  0  0  0  0
   -9.6132    0.5356  -16.9612 H   0  0  0  0  0  0  0  0  0  0  0  0
   -8.0050    1.0702  -16.4524 H   0  0  0  0  0  0  0  0  0  0  0  0
   -8.0165   -0.0513  -18.7179 H   0  0  0  0  0  0  0  0  0  0  0  0
   -6.9238   -0.8002  -17.5515 H   0  0  0  0  0  0  0  0  0  0  0  0
   -9.7320   -1.8285  -18.2832 H   0  0  0  0  0  0  0  0  0  0  0  0
   -8.9650   -3.4684  -13.9326 H   0  0  0  0  0  0  0  0  0  0  0  0
   -8.4887   -3.6475  -19.0952 H   0  0  0  0  0  0  0  0  0  0  0  0
   -8.0503   -2.2733  -19.8604 H   0  0  0  0  0  0  0  0  0  0  0  0
  1  2  2  0  0  0  0
  1  3  1  0  0  0  0
  2  4  1  0  0  0  0
  3  5  2  0  0  0  0
  4  7  2  0  0  0  0
  5  6  1  0  0  0  0
  5  7  1  0  0  0  0
  6  8  2  0  0  0  0
  6 10  1  0  0  0  0
  7 13  1  0  0  0  0
  8  9  1  0  0  0  0
  8 13  1  0  0  0  0
  9 12  1  0  0  0  0
  9 15  2  0  0  0  0
 10 11  1  0  0  0  0
 11 12  1  0  0  0  0
 12 14  1  0  0  0  0
  1 16  1  0  0  0  0
  2 17  1  0  0  0  0
  3 18  1  0  0  0  0
  4 19  1  0  0  0  0
 10 20  1  0  0  0  0
 10 21  1  0  0  0  0
 11 22  1  0  0  0  0
 11 23  1  0  0  0  0
 12 24  1  0  0  0  0
 13 25  1  0  0  0  0
 14 26  1  0  0  0  0
 14 27  1  0  0  0  0
M  END
> <id>
EN300-7355409

> <smiles>
NC1CCC2=C(NC=3C=CC=CC23)C1=O

> <MDLNUMBER>
MFCD31924322

> <IUPAC Name>
2-amino-2,3,4,9-tetrahydro-1H-carbazol-1-one

> <CAS>
2344679-65-6

> <URL>
https://www.enaminestore.com/catalog/EN300-7355409

> <ROCS_ShapeQuery>
amalgated

> <ROCS_TanimotoCombo>
0.832 

> <ROCS_ShapeTanimoto>
0.491 

> <ROCS_ColorTanimoto>
0.342 

> <ROCS_RefTversky>
0.478 

> <ROCS_RefColorTversky>
0.510 

> <ROCS_RefTverskyCombo>
0.989 

> <ROCS_FitTversky>
1.055 

> <ROCS_FitColorTversky>
0.508 

> <ROCS_FitTverskyCombo>
1.563 

> <ROCS_ColorScore>
-3.574

> <ROCS_Overlap>
784.784

> <ROCS_Rank>
304                 

$$$$
untitled-dbase-39476_0
  -OEChem-10092318153D

 27 29  0     1  0  0  0  0  0999 V2000
   -9.0018    0.9921  -11.9941 C   0  0  0  0  0  0  0  0  0  0  0  0
   -9.0975   -0.1956  -11.2725 C   0  0  0  0  0  0  0  0  0  0  0  0
   -8.8831    0.9750  -13.3884 C   0  0  0  0  0  0  0  0  0  0  0  0
   -9.0782   -1.4346  -11.9188 C   0  0  0  0  0  0  0  0  0  0  0  0
   -8.8611   -0.2623  -14.0636 C   0  0  0  0  0  0  0  0  0  0  0  0
   -8.7540   -0.6510  -15.4290 C   0  0  0  0  0  0  0  0  0  0  0  0
   -8.9594   -1.4375  -13.3133 C   0  0  0  0  0  0  0  0  0  0  0  0
   -8.7972   -2.0314  -15.4789 C   0  0  0  0  0  0  0  0  0  0  0  0
   -8.7208   -2.8238  -16.6870 C   0  0  0  0  0  0  0  0  0  0  0  0
   -8.6203    0.1864  -16.6541 C   0  0  0  0  0  0  0  0  0  0  0  0
   -7.9841   -0.6339  -17.7893 C   0  0  0  0  0  0  0  0  0  0  0  0
   -8.6906   -1.9916  -17.9805 C   0  0  1  0  0  0  0  0  0  0  0  0
   -8.9145   -2.4940  -14.1964 N   0  0  0  0  0  0  0  0  0  0  0  0
   -8.0146   -2.7802  -19.0081 N   0  0  0  0  0  0  0  0  0  0  0  0
   -8.7379   -4.0521  -16.6902 O   0  0  0  0  0  0  0  0  0  0  0  0
   -9.0195    1.9442  -11.4704 H   0  0  0  0  0  0  0  0  0  0  0  0
   -9.1891   -0.1590  -10.1900 H   0  0  0  0  0  0  0  0  0  0  0  0
   -8.8086    1.9096  -13.9371 H   0  0  0  0  0  0  0  0  0  0  0  0
   -9.1523   -2.3588  -11.3555 H   0  0  0  0  0  0  0  0  0  0  0  0
   -9.6132    0.5356  -16.9612 H   0  0  0  0  0  0  0  0  0  0  0  0
   -8.0050    1.0702  -16.4524 H   0  0  0  0  0  0  0  0  0  0  0  0
   -8.0165   -0.0513  -18.7179 H   0  0  0  0  0  0  0  0  0  0  0  0
   -6.9238   -0.8002  -17.5515 H   0  0  0  0  0  0  0  0  0  0  0  0
   -9.7320   -1.8285  -18.2832 H   0  0  0  0  0  0  0  0  0  0  0  0
   -8.9650   -3.4684  -13.9326 H   0  0  0  0  0  0  0  0  0  0  0  0
   -8.4887   -3.6475  -19.0952 H   0  0  0  0  0  0  0  0  0  0  0  0
   -8.0503   -2.2733  -19.8604 H   0  0  0  0  0  0  0  0  0  0  0  0
  1  2  2  0  0  0  0
  1  3  1  0  0  0  0
  2  4  1  0  0  0  0
  3  5  2  0  0  0  0
  4  7  2  0  0  0  0
  5  6  1  0  0  0  0
  5  7  1  0  0  0  0
  6  8  2  0  0  0  0
  6 10  1  0  0  0  0
  7 13  1  0  0  0  0
  8  9  1  0  0  0  0
  8 13  1  0  0  0  0
  9 12  1  0  0  0  0
  9 15  2  0  0  0  0
 10 11  1  0  0  0  0
 11 12  1  0  0  0  0
 12 14  1  0  0  0  0
  1 16  1  0  0  0  0
  2 17  1  0  0  0  0
  3 18  1  0  0  0  0
  4 19  1  0  0  0  0
 10 20  1  0  0  0  0
 10 21  1  0  0  0  0
 11 22  1  0  0  0  0
 11 23  1  0  0  0  0
 12 24  1  0  0  0  0
 13 25  1  0  0  0  0
 14 26  1  0  0  0  0
 14 27  1  0  0  0  0
M  END
> <id>
EN300-7355408

> <smiles>
Cl.NC1CCC2=C(NC=3C=CC=CC23)C1=O

> <MDLNUMBER>
MFCD31924373

> <IUPAC Name>
2-amino-2,3,4,9-tetrahydro-1H-carbazol-1-one hydrochloride

> <CAS>
2344679-66-7

> <Purity>
95

> <URL>
https://www.enaminestore.com/catalog/EN300-7355408

> <Saltdate>
Cl

> <ROCS_ShapeQuery>
amalgated

> <ROCS_TanimotoCombo>
0.832 

> <ROCS_ShapeTanimoto>
0.491 

> <ROCS_ColorTanimoto>
0.342 

> <ROCS_RefTversky>
0.478 

> <ROCS_RefColorTversky>
0.510 

> <ROCS_RefTverskyCombo>
0.989 

> <ROCS_FitTversky>
1.055 

> <ROCS_FitColorTversky>
0.508 

> <ROCS_FitTverskyCombo>
1.563 

> <ROCS_ColorScore>
-3.574

> <ROCS_Overlap>
784.784

> <ROCS_Rank>
305                 

$$$$
untitled-dbase-34165_70
  -OEChem-10092318153D

 38 39  0     1  0  0  0  0  0999 V2000
   -8.0225   -0.3214  -14.2284 C   0  0  0  0  0  0  0  0  0  0  0  0
   -7.5519   -1.4732  -18.4755 C   0  0  0  0  0  0  0  0  0  0  0  0
   -8.5413    0.0447  -16.6714 C   0  0  0  0  0  0  0  0  0  0  0  0
   -8.9077   -3.3450  -18.0165 C   0  0  0  0  0  0  0  0  0  0  0  0
   -8.7224   -2.1759  -15.7408 C   0  0  0  0  0  0  0  0  0  0  0  0
   -8.8061   -0.9374  -17.8016 C   0  0  2  0  0  0  0  0  0  0  0  0
   -9.3874   -2.1890  -17.1292 C   0  0  1  0  0  0  0  0  0  0  0  0
  -10.9105   -2.1325  -17.0113 C   0  0  0  0  0  0  0  0  0  0  0  0
  -10.5662    0.2927  -13.0793 C   0  0  0  0  0  0  0  0  0  0  0  0
   -9.9327   -1.3276  -11.2675 C   0  0  0  0  0  0  0  0  0  0  0  0
   -8.5620    0.7462  -11.6260 C   0  0  0  0  0  0  0  0  0  0  0  0
   -9.4095   -0.3317  -12.3003 C   0  0  0  0  0  0  0  0  0  0  0  0
   -7.9774   -2.7720  -19.0078 N   0  0  0  0  0  0  0  0  0  0  0  0
   -8.4106   -0.7788  -15.4768 N   0  0  0  0  0  0  0  0  0  0  0  0
   -7.2654    0.6293  -14.0460 O   0  0  0  0  0  0  0  0  0  0  0  0
   -8.5812   -1.0559  -13.2168 O   0  0  0  0  0  0  0  0  0  0  0  0
   -7.2667   -0.8217  -19.2974 H   0  0  0  0  0  0  0  0  0  0  0  0
   -6.7095   -1.5901  -17.8044 H   0  0  0  0  0  0  0  0  0  0  0  0
   -7.6570    0.6672  -16.8127 H   0  0  0  0  0  0  0  0  0  0  0  0
   -9.4042    0.6964  -16.5116 H   0  0  0  0  0  0  0  0  0  0  0  0
   -8.4082   -4.1433  -17.4305 H   0  0  0  0  0  0  0  0  0  0  0  0
   -9.7569   -3.8276  -18.5454 H   0  0  0  0  0  0  0  0  0  0  0  0
   -9.3752   -2.5530  -14.9483 H   0  0  0  0  0  0  0  0  0  0  0  0
   -7.7867   -2.7411  -15.6987 H   0  0  0  0  0  0  0  0  0  0  0  0
   -9.4716   -0.5120  -18.5487 H   0  0  0  0  0  0  0  0  0  0  0  0
  -11.2013   -1.2987  -16.3740 H   0  0  0  0  0  0  0  0  0  0  0  0
  -11.2823   -3.0592  -16.5769 H   0  0  0  0  0  0  0  0  0  0  0  0
  -11.3529   -1.9985  -17.9973 H   0  0  0  0  0  0  0  0  0  0  0  0
  -10.1947    1.0081  -13.8217 H   0  0  0  0  0  0  0  0  0  0  0  0
  -11.1612   -0.4673  -13.5961 H   0  0  0  0  0  0  0  0  0  0  0  0
  -11.2284    0.8557  -12.4117 H   0  0  0  0  0  0  0  0  0  0  0  0
   -9.1062   -1.7781  -10.7062 H   0  0  0  0  0  0  0  0  0  0  0  0
  -10.4612   -2.1545  -11.7555 H   0  0  0  0  0  0  0  0  0  0  0  0
  -10.6155   -0.8512  -10.5566 H   0  0  0  0  0  0  0  0  0  0  0  0
   -7.7322    0.2986  -11.0671 H   0  0  0  0  0  0  0  0  0  0  0  0
   -8.1476    1.4488  -12.3562 H   0  0  0  0  0  0  0  0  0  0  0  0
   -9.1562    1.3105  -10.8982 H   0  0  0  0  0  0  0  0  0  0  0  0
   -8.4349   -2.6649  -19.9112 H   0  0  0  0  0  0  0  0  0  0  0  0
  1 14  1  0  0  0  0
  1 15  2  0  0  0  0
  1 16  1  0  0  0  0
  2  6  1  0  0  0  0
  2 13  1  0  0  0  0
  3  6  1  0  0  0  0
  3 14  1  0  0  0  0
  4  7  1  0  0  0  0
  4 13  1  0  0  0  0
  5  7  1  0  0  0  0
  5 14  1  0  0  0  0
  6  7  1  0  0  0  0
  7  8  1  0  0  0  0
  9 12  1  0  0  0  0
 10 12  1  0  0  0  0
 11 12  1  0  0  0  0
 12 16  1  0  0  0  0
  2 17  1  0  0  0  0
  2 18  1  0  0  0  0
  3 19  1  0  0  0  0
  3 20  1  0  0  0  0
  4 21  1  0  0  0  0
  4 22  1  0  0  0  0
  5 23  1  0  0  0  0
  5 24  1  0  0  0  0
  6 25  1  0  0  0  0
  8 26  1  0  0  0  0
  8 27  1  0  0  0  0
  8 28  1  0  0  0  0
  9 29  1  0  0  0  0
  9 30  1  0  0  0  0
  9 31  1  0  0  0  0
 10 32  1  0  0  0  0
 10 33  1  0  0  0  0
 10 34  1  0  0  0  0
 11 35  1  0  0  0  0
 11 36  1  0  0  0  0
 11 37  1  0  0  0  0
 13 38  1  0  0  0  0
M  END
> <id>
EN300-321806

> <smiles>
CC(C)(C)OC(=O)N1CC2CNCC2(C)C1

> <MDLNUMBER>
MFCD30487876

> <IUPAC Name>
tert-butyl 3a-methyl-octahydropyrrolo[3,4-c]pyrrole-2-carboxylate

> <CAS>
2044713-96-2

> <URL>
https://www.enaminestore.com/catalog/EN300-321806

> <ROCS_ShapeQuery>
amalgated

> <ROCS_TanimotoCombo>
0.832 

> <ROCS_ShapeTanimoto>
0.548 

> <ROCS_ColorTanimoto>
0.284 

> <ROCS_RefTversky>
0.517 

> <ROCS_RefColorTversky>
0.416 

> <ROCS_RefTverskyCombo>
0.934 

> <ROCS_FitTversky>
1.123 

> <ROCS_FitColorTversky>
0.471 

> <ROCS_FitTverskyCombo>
1.594 

> <ROCS_ColorScore>
-2.896

> <ROCS_Overlap>
848.767

> <ROCS_Rank>
306                 

$$$$
untitled-dbase-9897_177
  -OEChem-10092318153D

 43 43  0     1  0  0  0  0  0999 V2000
   -9.1010   -0.2153  -14.2307 C   0  0  0  0  0  0  0  0  0  0  0  0
   -9.2619   -2.8001  -17.0692 C   0  0  0  0  0  0  0  0  0  0  0  0
   -7.2329   -1.2087  -17.4243 C   0  0  0  0  0  0  0  0  0  0  0  0
   -9.3929   -2.2682  -15.6412 C   0  0  0  0  0  0  0  0  0  0  0  0
   -9.3918    0.0321  -16.6817 C   0  0  0  0  0  0  0  0  0  0  0  0
   -7.8841   -2.5745  -17.7045 C   0  0  2  0  0  0  0  0  0  0  0  0
   -8.0998    0.0758  -17.5407 C   0  0  0  0  0  0  0  0  0  0  0  0
   -7.2233    1.2576  -17.0624 C   0  0  0  0  0  0  0  0  0  0  0  0
   -8.4897    0.3523  -19.0042 C   0  0  0  0  0  0  0  0  0  0  0  0
  -10.2146    0.9886  -11.8862 C   0  0  0  0  0  0  0  0  0  0  0  0
  -10.3016   -1.3423  -10.9543 C   0  0  0  0  0  0  0  0  0  0  0  0
   -8.0883   -0.3154  -11.5500 C   0  0  0  0  0  0  0  0  0  0  0  0
   -9.5718   -0.3974  -11.9066 C   0  0  0  0  0  0  0  0  0  0  0  0
   -9.2717   -0.8100  -15.4888 N   0  0  0  0  0  0  0  0  0  0  0  0
   -7.9738   -2.8365  -19.1429 N   0  0  0  0  0  0  0  0  0  0  0  0
   -8.4942    0.8358  -14.0343 O   0  0  0  0  0  0  0  0  0  0  0  0
   -9.6941   -0.9371  -13.2275 O   0  0  0  0  0  0  0  0  0  0  0  0
   -9.4700   -3.8790  -17.0108 H   0  0  0  0  0  0  0  0  0  0  0  0
  -10.0576   -2.3869  -17.7042 H   0  0  0  0  0  0  0  0  0  0  0  0
   -6.7989   -1.2288  -16.4049 H   0  0  0  0  0  0  0  0  0  0  0  0
   -6.3560   -1.0974  -18.0930 H   0  0  0  0  0  0  0  0  0  0  0  0
  -10.3663   -2.5435  -15.2421 H   0  0  0  0  0  0  0  0  0  0  0  0
   -8.6346   -2.7386  -15.0201 H   0  0  0  0  0  0  0  0  0  0  0  0
   -9.6323    1.0479  -16.3570 H   0  0  0  0  0  0  0  0  0  0  0  0
  -10.2493   -0.3090  -17.2663 H   0  0  0  0  0  0  0  0  0  0  0  0
   -7.1872   -3.3942  -17.2993 H   0  0  0  0  0  0  0  0  0  0  0  0
   -7.7967    2.1753  -17.1294 H   0  0  0  0  0  0  0  0  0  0  0  0
   -6.3446    1.3266  -17.6937 H   0  0  0  0  0  0  0  0  0  0  0  0
   -6.9247    1.0852  -16.0344 H   0  0  0  0  0  0  0  0  0  0  0  0
   -9.0905    1.2516  -19.0416 H   0  0  0  0  0  0  0  0  0  0  0  0
   -9.0566   -0.4896  -19.3794 H   0  0  0  0  0  0  0  0  0  0  0  0
   -7.5874    0.4830  -19.5872 H   0  0  0  0  0  0  0  0  0  0  0  0
   -9.6936    1.6698  -12.5685 H   0  0  0  0  0  0  0  0  0  0  0  0
  -11.2701    0.9481  -12.1741 H   0  0  0  0  0  0  0  0  0  0  0  0
  -10.1449    1.4373  -10.8886 H   0  0  0  0  0  0  0  0  0  0  0  0
   -9.8438   -2.3380  -10.9657 H   0  0  0  0  0  0  0  0  0  0  0  0
  -11.3444   -1.4785  -11.2627 H   0  0  0  0  0  0  0  0  0  0  0  0
  -10.2904   -0.9673   -9.9257 H   0  0  0  0  0  0  0  0  0  0  0  0
   -7.6270   -1.3095  -11.5646 H   0  0  0  0  0  0  0  0  0  0  0  0
   -7.5414    0.3296  -12.2454 H   0  0  0  0  0  0  0  0  0  0  0  0
   -7.9526    0.0736  -10.5343 H   0  0  0  0  0  0  0  0  0  0  0  0
   -8.9246   -3.0042  -19.3589 H   0  0  0  0  0  0  0  0  0  0  0  0
   -7.6349   -2.0359  -19.6151 H   0  0  0  0  0  0  0  0  0  0  0  0
  1 14  1  0  0  0  0
  1 16  2  0  0  0  0
  1 17  1  0  0  0  0
  2  4  1  0  0  0  0
  2  6  1  0  0  0  0
  3  6  1  0  0  0  0
  3  7  1  0  0  0  0
  4 14  1  0  0  0  0
  5  7  1  0  0  0  0
  5 14  1  0  0  0  0
  6 15  1  0  0  0  0
  7  8  1  0  0  0  0
  7  9  1  0  0  0  0
 10 13  1  0  0  0  0
 11 13  1  0  0  0  0
 12 13  1  0  0  0  0
 13 17  1  0  0  0  0
  2 18  1  0  0  0  0
  2 19  1  0  0  0  0
  3 20  1  0  0  0  0
  3 21  1  0  0  0  0
  4 22  1  0  0  0  0
  4 23  1  0  0  0  0
  5 24  1  0  0  0  0
  5 25  1  0  0  0  0
  6 26  1  0  0  0  0
  8 27  1  0  0  0  0
  8 28  1  0  0  0  0
  8 29  1  0  0  0  0
  9 30  1  0  0  0  0
  9 31  1  0  0  0  0
  9 32  1  0  0  0  0
 10 33  1  0  0  0  0
 10 34  1  0  0  0  0
 10 35  1  0  0  0  0
 11 36  1  0  0  0  0
 11 37  1  0  0  0  0
 11 38  1  0  0  0  0
 12 39  1  0  0  0  0
 12 40  1  0  0  0  0
 12 41  1  0  0  0  0
 15 42  1  0  0  0  0
 15 43  1  0  0  0  0
M  END
> <id>
EN300-329246

> <smiles>
CC(C)(C)OC(=O)N1CCC(N)CC(C)(C)C1

> <MDLNUMBER>
MFCD30247106

> <IUPAC Name>
tert-butyl 5-amino-3,3-dimethylazepane-1-carboxylate

> <CAS>
1936147-97-5

> <Purity>
95

> <URL>
https://www.enaminestore.com/catalog/EN300-329246

> <ROCS_ShapeQuery>
amalgated

> <ROCS_TanimotoCombo>
0.831 

> <ROCS_ShapeTanimoto>
0.563 

> <ROCS_ColorTanimoto>
0.269 

> <ROCS_RefTversky>
0.528 

> <ROCS_RefColorTversky>
0.396 

> <ROCS_RefTverskyCombo>
0.924 

> <ROCS_FitTversky>
1.133 

> <ROCS_FitColorTversky>
0.455 

> <ROCS_FitTverskyCombo>
1.588 

> <ROCS_ColorScore>
-2.754

> <ROCS_Overlap>
866.322

> <ROCS_Rank>
307                 

$$$$
untitled-dbase-16383_34
  -OEChem-10092318153D

 46 48  0     1  0  0  0  0  0999 V2000
   -9.2986   -0.1002  -10.5988 C   0  0  0  0  0  0  0  0  0  0  0  0
  -10.3732    0.2408  -11.6248 C   0  0  0  0  0  0  0  0  0  0  0  0
   -8.1975   -0.9675  -11.1974 C   0  0  0  0  0  0  0  0  0  0  0  0
  -10.2396   -2.2348  -17.7449 C   0  0  0  0  0  0  0  0  0  0  0  0
   -9.7665    0.8943  -12.8657 C   0  0  0  0  0  0  0  0  0  0  0  0
   -7.6116   -0.3552  -12.4712 C   0  0  0  0  0  0  0  0  0  0  0  0
   -9.8288   -0.8403  -17.2768 C   0  0  0  0  0  0  0  0  0  0  0  0
   -7.3003   -0.8092  -17.2662 C   0  0  0  0  0  0  0  0  0  0  0  0
   -9.1400   -3.2370  -18.0896 C   0  0  0  0  0  0  0  0  0  0  0  0
   -6.9813   -2.1511  -17.9304 C   0  0  0  0  0  0  0  0  0  0  0  0
   -9.3369   -1.2321  -14.1686 C   0  0  0  0  0  0  0  0  0  0  0  0
   -7.9705    0.8423  -14.6489 C   0  0  0  0  0  0  0  0  0  0  0  0
   -8.6742    0.0222  -13.5355 C   0  0  0  0  0  0  0  0  0  0  0  0
   -8.5721   -0.7080  -16.3921 C   0  0  2  0  0  0  0  0  0  0  0  0
   -7.4352   -3.6788  -19.7175 C   0  0  0  0  0  0  0  0  0  0  0  0
   -8.5629   -1.7149  -15.3133 N   0  0  0  0  0  0  0  0  0  0  0  0
   -8.0219   -2.6546  -18.8433 N   0  0  1  0  0  0  0  0  0  0  0  0
   -8.6230    0.6621  -15.9046 O   0  0  0  0  0  0  0  0  0  0  0  0
   -8.8648    0.8229  -10.1981 H   0  0  0  0  0  0  0  0  0  0  0  0
   -9.7580   -0.6283   -9.7541 H   0  0  0  0  0  0  0  0  0  0  0  0
  -10.8998   -0.6727  -11.9160 H   0  0  0  0  0  0  0  0  0  0  0  0
  -11.1171    0.9039  -11.1748 H   0  0  0  0  0  0  0  0  0  0  0  0
   -7.4031   -1.1217  -10.4554 H   0  0  0  0  0  0  0  0  0  0  0  0
   -8.6018   -1.9624  -11.4265 H   0  0  0  0  0  0  0  0  0  0  0  0
  -10.8645   -2.6808  -16.9444 H   0  0  0  0  0  0  0  0  0  0  0  0
  -10.9344   -2.1407  -18.6059 H   0  0  0  0  0  0  0  0  0  0  0  0
  -10.5749    1.0749  -13.5850 H   0  0  0  0  0  0  0  0  0  0  0  0
   -9.3755    1.8786  -12.5883 H   0  0  0  0  0  0  0  0  0  0  0  0
   -7.0151    0.5279  -12.2021 H   0  0  0  0  0  0  0  0  0  0  0  0
   -6.9047   -1.0771  -12.9069 H   0  0  0  0  0  0  0  0  0  0  0  0
   -9.6803   -0.2460  -18.1980 H   0  0  0  0  0  0  0  0  0  0  0  0
  -10.6966   -0.3790  -16.7699 H   0  0  0  0  0  0  0  0  0  0  0  0
   -6.4275   -0.4835  -16.6719 H   0  0  0  0  0  0  0  0  0  0  0  0
   -7.3527   -0.0774  -18.0899 H   0  0  0  0  0  0  0  0  0  0  0  0
   -8.7872   -3.7825  -17.1856 H   0  0  0  0  0  0  0  0  0  0  0  0
   -9.6285   -4.0246  -18.7034 H   0  0  0  0  0  0  0  0  0  0  0  0
   -6.0672   -2.0407  -18.5024 H   0  0  0  0  0  0  0  0  0  0  0  0
   -6.7929   -2.8698  -17.1400 H   0  0  0  0  0  0  0  0  0  0  0  0
   -9.4389   -2.0224  -13.4240 H   0  0  0  0  0  0  0  0  0  0  0  0
  -10.3440   -0.9890  -14.5101 H   0  0  0  0  0  0  0  0  0  0  0  0
   -7.9841    1.9132  -14.4310 H   0  0  0  0  0  0  0  0  0  0  0  0
   -6.9168    0.5565  -14.7377 H   0  0  0  0  0  0  0  0  0  0  0  0
   -6.5977   -3.2435  -20.2824 H   0  0  0  0  0  0  0  0  0  0  0  0
   -7.0688   -4.5165  -19.1060 H   0  0  0  0  0  0  0  0  0  0  0  0
   -8.2000   -4.0438  -20.4189 H   0  0  0  0  0  0  0  0  0  0  0  0
   -7.6220   -1.9272  -15.0306 H   0  0  0  0  0  0  0  0  0  0  0  0
  1  2  1  0  0  0  0
  1  3  1  0  0  0  0
  2  5  1  0  0  0  0
  3  6  1  0  0  0  0
  4  7  1  0  0  0  0
  4  9  1  0  0  0  0
  5 13  1  0  0  0  0
  6 13  1  0  0  0  0
  7 14  1  0  0  0  0
  8 10  1  0  0  0  0
  8 14  1  0  0  0  0
  9 17  1  0  0  0  0
 10 17  1  0  0  0  0
 11 13  1  0  0  0  0
 11 16  1  0  0  0  0
 12 13  1  0  0  0  0
 12 18  1  0  0  0  0
 14 16  1  0  0  0  0
 14 18  1  0  0  0  0
 15 17  1  0  0  0  0
  1 19  1  0  0  0  0
  1 20  1  0  0  0  0
  2 21  1  0  0  0  0
  2 22  1  0  0  0  0
  3 23  1  0  0  0  0
  3 24  1  0  0  0  0
  4 25  1  0  0  0  0
  4 26  1  0  0  0  0
  5 27  1  0  0  0  0
  5 28  1  0  0  0  0
  6 29  1  0  0  0  0
  6 30  1  0  0  0  0
  7 31  1  0  0  0  0
  7 32  1  0  0  0  0
  8 33  1  0  0  0  0
  8 34  1  0  0  0  0
  9 35  1  0  0  0  0
  9 36  1  0  0  0  0
 10 37  1  0  0  0  0
 10 38  1  0  0  0  0
 11 39  1  0  0  0  0
 11 40  1  0  0  0  0
 12 41  1  0  0  0  0
 12 42  1  0  0  0  0
 15 43  1  0  0  0  0
 15 44  1  0  0  0  0
 15 45  1  0  0  0  0
 16 46  1  0  0  0  0
M  END
> <id>
EN300-1279863

> <smiles>
CN1CCCC2(CC1)NCC3(CCCCC3)CO2

> <IUPAC Name>
12-methyl-8-oxa-12,16-diazadispiro[5.2.6^{9}.2^{6}]heptadecane

> <CAS>
2172167-85-8

> <URL>
https://www.enaminestore.com/catalog/EN300-1279863

> <ROCS_ShapeQuery>
amalgated

> <ROCS_TanimotoCombo>
0.831 

> <ROCS_ShapeTanimoto>
0.595 

> <ROCS_ColorTanimoto>
0.236 

> <ROCS_RefTversky>
0.560 

> <ROCS_RefColorTversky>
0.382 

> <ROCS_RefTverskyCombo>
0.943 

> <ROCS_FitTversky>
1.116 

> <ROCS_FitColorTversky>
0.382 

> <ROCS_FitTverskyCombo>
1.499 

> <ROCS_ColorScore>
-2.677

> <ROCS_Overlap>
921.371

> <ROCS_Rank>
308                 

$$$$
untitled-dbase-20936_0
  -OEChem-10092318153D

 28 28  0     1  0  0  0  0  0999 V2000
   -8.9175   -0.7516  -13.8217 C   0  0  0  0  0  0  0  0  0  0  0  0
   -8.9853   -0.9521  -15.0037 C   0  0  0  0  0  0  0  0  0  0  0  0
   -8.8352   -0.5122  -12.4046 C   0  0  0  0  0  0  0  0  0  0  0  0
   -9.3237   -2.6912  -16.7064 C   0  0  0  0  0  0  0  0  0  0  0  0
   -9.2983   -3.0244  -18.1950 C   0  0  0  0  0  0  0  0  0  0  0  0
   -7.8158   -1.1788  -18.6592 C   0  0  0  0  0  0  0  0  0  0  0  0
   -9.0690   -1.1979  -16.4554 C   0  0  2  0  0  0  0  0  0  0  0  0
   -7.7826   -0.7463  -17.1823 C   0  0  2  0  0  0  0  0  0  0  0  0
   -7.5803    0.7713  -17.0999 C   0  0  0  0  0  0  0  0  0  0  0  0
   -9.8267    0.5881  -10.5682 C   0  0  0  0  0  0  0  0  0  0  0  0
   -8.0333   -2.6181  -18.8027 N   0  0  0  0  0  0  0  0  0  0  0  0
   -7.9435   -1.0117  -11.7349 O   0  0  0  0  0  0  0  0  0  0  0  0
   -9.8360    0.2989  -11.9700 O   0  0  0  0  0  0  0  0  0  0  0  0
  -10.2946   -2.9821  -16.2860 H   0  0  0  0  0  0  0  0  0  0  0  0
   -8.5688   -3.2966  -16.1854 H   0  0  0  0  0  0  0  0  0  0  0  0
   -9.4269   -4.1039  -18.3300 H   0  0  0  0  0  0  0  0  0  0  0  0
  -10.1365   -2.5413  -18.7117 H   0  0  0  0  0  0  0  0  0  0  0  0
   -8.5950   -0.6327  -19.2057 H   0  0  0  0  0  0  0  0  0  0  0  0
   -6.8637   -0.9246  -19.1396 H   0  0  0  0  0  0  0  0  0  0  0  0
   -9.9204   -0.6309  -16.8553 H   0  0  0  0  0  0  0  0  0  0  0  0
   -6.9145   -1.2219  -16.7029 H   0  0  0  0  0  0  0  0  0  0  0  0
   -8.4226    1.2758  -17.5659 H   0  0  0  0  0  0  0  0  0  0  0  0
   -6.6645    1.0441  -17.6175 H   0  0  0  0  0  0  0  0  0  0  0  0
   -7.5101    1.0722  -16.0580 H   0  0  0  0  0  0  0  0  0  0  0  0
  -10.6667    1.2432  -10.3249 H   0  0  0  0  0  0  0  0  0  0  0  0
   -8.8839    1.0724  -10.3014 H   0  0  0  0  0  0  0  0  0  0  0  0
   -9.9238   -0.3471  -10.0116 H   0  0  0  0  0  0  0  0  0  0  0  0
   -7.2690   -3.1162  -18.3457 H   0  0  0  0  0  0  0  0  0  0  0  0
  1  2  3  0  0  0  0
  1  3  1  0  0  0  0
  2  7  1  0  0  0  0
  3 12  2  0  0  0  0
  3 13  1  0  0  0  0
  4  5  1  0  0  0  0
  4  7  1  0  0  0  0
  5 11  1  0  0  0  0
  6  8  1  0  0  0  0
  6 11  1  0  0  0  0
  7  8  1  0  0  0  0
  8  9  1  0  0  0  0
 10 13  1  0  0  0  0
  4 14  1  0  0  0  0
  4 15  1  0  0  0  0
  5 16  1  0  0  0  0
  5 17  1  0  0  0  0
  6 18  1  0  0  0  0
  6 19  1  0  0  0  0
  7 20  1  0  0  0  0
  8 21  1  0  0  0  0
  9 22  1  0  0  0  0
  9 23  1  0  0  0  0
  9 24  1  0  0  0  0
 10 25  1  0  0  0  0
 10 26  1  0  0  0  0
 10 27  1  0  0  0  0
 11 28  1  0  0  0  0
M  END
> <id>
EN300-787323

> <smiles>
COC(=O)C#CC1CCNCC1C

> <MDLNUMBER>
MFCD31463664

> <IUPAC Name>
methyl 3-(3-methylpiperidin-4-yl)prop-2-ynoate

> <CAS>
2138341-04-3

> <URL>
https://www.enaminestore.com/catalog/EN300-787323

> <ROCS_ShapeQuery>
amalgated

> <ROCS_TanimotoCombo>
0.831 

> <ROCS_ShapeTanimoto>
0.521 

> <ROCS_ColorTanimoto>
0.311 

> <ROCS_RefTversky>
0.467 

> <ROCS_RefColorTversky>
0.381 

> <ROCS_RefTverskyCombo>
0.848 

> <ROCS_FitTversky>
1.281 

> <ROCS_FitColorTversky>
0.628 

> <ROCS_FitTverskyCombo>
1.909 

> <ROCS_ColorScore>
-2.607

> <ROCS_Overlap>
762.927

> <ROCS_Rank>
309                 

$$$$
untitled-dbase-16705_0
  -OEChem-10092318153D

 41 44  0     0  0  0  0  0  0999 V2000
   -8.8955   -2.3872  -18.0095 C   0  0  0  0  0  0  0  0  0  0  0  0
   -6.9673    2.0375  -16.7100 C   0  0  0  0  0  0  0  0  0  0  0  0
   -9.6661   -1.3509  -17.1674 C   0  0  0  0  0  0  0  0  0  0  0  0
   -7.5858   -1.7071  -17.5618 C   0  0  0  0  0  0  0  0  0  0  0  0
   -6.5977    0.7285  -15.9898 C   0  0  0  0  0  0  0  0  0  0  0  0
   -8.2456    1.3411  -17.2070 C   0  0  0  0  0  0  0  0  0  0  0  0
   -7.7041    0.1053  -12.7886 C   0  0  0  0  0  0  0  0  0  0  0  0
  -10.1665    0.4254  -12.8839 C   0  0  0  0  0  0  0  0  0  0  0  0
   -7.8800   -0.5331  -11.4090 C   0  0  0  0  0  0  0  0  0  0  0  0
  -10.2770   -0.2228  -11.5037 C   0  0  0  0  0  0  0  0  0  0  0  0
   -8.2519   -1.9791  -15.0670 C   0  0  0  0  0  0  0  0  0  0  0  0
   -8.3596   -1.1378  -16.3408 C   0  0  0  0  0  0  0  0  0  0  0  0
   -8.1169    0.3645  -15.9959 C   0  0  0  0  0  0  0  0  0  0  0  0
   -8.9434   -0.0704  -13.6911 C   0  0  0  0  0  0  0  0  0  0  0  0
   -9.0597   -0.0094  -10.7228 N   0  0  0  0  0  0  0  0  0  0  0  0
   -9.1726   -1.4840  -14.0420 N   0  0  0  0  0  0  0  0  0  0  0  0
   -8.8615    0.8082  -14.8283 O   0  0  0  0  0  0  0  0  0  0  0  0
   -9.0039   -3.4170  -17.6512 H   0  0  0  0  0  0  0  0  0  0  0  0
   -9.0960   -2.3656  -19.0838 H   0  0  0  0  0  0  0  0  0  0  0  0
   -7.1596    2.8745  -16.0287 H   0  0  0  0  0  0  0  0  0  0  0  0
   -6.2715    2.3640  -17.4868 H   0  0  0  0  0  0  0  0  0  0  0  0
  -10.0115   -0.4971  -17.7596 H   0  0  0  0  0  0  0  0  0  0  0  0
  -10.5301   -1.7515  -16.6287 H   0  0  0  0  0  0  0  0  0  0  0  0
   -6.7679   -2.3965  -17.3292 H   0  0  0  0  0  0  0  0  0  0  0  0
   -7.2145   -0.9884  -18.2981 H   0  0  0  0  0  0  0  0  0  0  0  0
   -5.9390    0.0799  -16.5765 H   0  0  0  0  0  0  0  0  0  0  0  0
   -6.1302    0.8845  -15.0152 H   0  0  0  0  0  0  0  0  0  0  0  0
   -9.1363    1.9776  -17.2020 H   0  0  0  0  0  0  0  0  0  0  0  0
   -8.1419    0.9195  -18.2106 H   0  0  0  0  0  0  0  0  0  0  0  0
   -7.4918    1.1774  -12.6727 H   0  0  0  0  0  0  0  0  0  0  0  0
   -6.8075   -0.3135  -13.2571 H   0  0  0  0  0  0  0  0  0  0  0  0
  -11.0924    0.2565  -13.4499 H   0  0  0  0  0  0  0  0  0  0  0  0
  -10.1043    1.5172  -12.7674 H   0  0  0  0  0  0  0  0  0  0  0  0
   -7.9422   -1.6246  -11.4928 H   0  0  0  0  0  0  0  0  0  0  0  0
   -6.9955   -0.3130  -10.8012 H   0  0  0  0  0  0  0  0  0  0  0  0
  -11.1208    0.2249  -10.9671 H   0  0  0  0  0  0  0  0  0  0  0  0
  -10.4905   -1.2947  -11.5909 H   0  0  0  0  0  0  0  0  0  0  0  0
   -8.4993   -3.0281  -15.2673 H   0  0  0  0  0  0  0  0  0  0  0  0
   -7.2226   -1.9832  -14.6916 H   0  0  0  0  0  0  0  0  0  0  0  0
   -9.1548   -0.4665   -9.8165 H   0  0  0  0  0  0  0  0  0  0  0  0
  -10.1291   -1.5989  -14.3759 H   0  0  0  0  0  0  0  0  0  0  0  0
  1  3  1  0  0  0  0
  1  4  1  0  0  0  0
  2  5  1  0  0  0  0
  2  6  1  0  0  0  0
  3 12  1  0  0  0  0
  4 12  1  0  0  0  0
  5 13  1  0  0  0  0
  6 13  1  0  0  0  0
  7  9  1  0  0  0  0
  7 14  1  0  0  0  0
  8 10  1  0  0  0  0
  8 14  1  0  0  0  0
  9 15  1  0  0  0  0
 10 15  1  0  0  0  0
 11 12  1  0  0  0  0
 11 16  1  0  0  0  0
 12 13  1  0  0  0  0
 13 17  1  0  0  0  0
 14 16  1  0  0  0  0
 14 17  1  0  0  0  0
  1 18  1  0  0  0  0
  1 19  1  0  0  0  0
  2 20  1  0  0  0  0
  2 21  1  0  0  0  0
  3 22  1  0  0  0  0
  3 23  1  0  0  0  0
  4 24  1  0  0  0  0
  4 25  1  0  0  0  0
  5 26  1  0  0  0  0
  5 27  1  0  0  0  0
  6 28  1  0  0  0  0
  6 29  1  0  0  0  0
  7 30  1  0  0  0  0
  7 31  1  0  0  0  0
  8 32  1  0  0  0  0
  8 33  1  0  0  0  0
  9 34  1  0  0  0  0
  9 35  1  0  0  0  0
 10 36  1  0  0  0  0
 10 37  1  0  0  0  0
 11 38  1  0  0  0  0
 11 39  1  0  0  0  0
 15 40  1  0  0  0  0
 16 41  1  0  0  0  0
M  END
> <id>
EN300-1280363

> <smiles>
C1CC2(C1)CNC3(CCNCC3)OC42CCC4

> <IUPAC Name>
9-oxa-13,16-diazatrispiro[3.0.3^{5}.1.5^{10}.2^{4}]heptadecane

> <URL>
https://www.enaminestore.com/catalog/EN300-1280363

> <ROCS_ShapeQuery>
amalgated

> <ROCS_TanimotoCombo>
0.831 

> <ROCS_ShapeTanimoto>
0.570 

> <ROCS_ColorTanimoto>
0.261 

> <ROCS_RefTversky>
0.541 

> <ROCS_RefColorTversky>
0.467 

> <ROCS_RefTverskyCombo>
1.008 

> <ROCS_FitTversky>
1.103 

> <ROCS_FitColorTversky>
0.372 

> <ROCS_FitTverskyCombo>
1.475 

> <ROCS_ColorScore>
-3.313

> <ROCS_Overlap>
889.541

> <ROCS_Rank>
310                 

$$$$
untitled-dbase-22937_100
  -OEChem-10092318153D

 42 43  0     1  0  0  0  0  0999 V2000
   -8.4961   -0.6218  -12.6425 C   0  0  0  0  0  0  0  0  0  0  0  0
   -7.9687    1.8544  -15.4396 C   0  0  0  0  0  0  0  0  0  0  0  0
   -8.9263    1.0094  -16.2722 C   0  0  0  0  0  0  0  0  0  0  0  0
   -7.7650   -0.8628  -17.5698 C   0  0  0  0  0  0  0  0  0  0  0  0
   -7.9671    1.3793  -13.9885 C   0  0  0  0  0  0  0  0  0  0  0  0
   -7.6944   -0.8659  -15.0321 C   0  0  0  0  0  0  0  0  0  0  0  0
   -9.5835   -2.3167  -17.2840 C   0  0  0  0  0  0  0  0  0  0  0  0
   -8.1317   -2.3244  -17.7236 C   0  0  1  0  0  0  0  0  0  0  0  0
   -8.5103   -0.4747  -16.2860 C   0  0  1  0  0  0  0  0  0  0  0  0
   -8.5458   -0.5493   -9.7823 C   0  0  0  0  0  0  0  0  0  0  0  0
  -10.6498    0.7986  -10.0381 C   0  0  0  0  0  0  0  0  0  0  0  0
  -10.5648   -1.5615  -10.8930 C   0  0  0  0  0  0  0  0  0  0  0  0
   -9.7661   -0.2796  -10.6615 C   0  0  0  0  0  0  0  0  0  0  0  0
   -8.0949   -0.0725  -13.8645 N   0  0  0  0  0  0  0  0  0  0  0  0
   -7.9465   -2.8224  -19.0739 N   0  0  0  0  0  0  0  0  0  0  0  0
   -8.1522   -1.7327  -12.2419 O   0  0  0  0  0  0  0  0  0  0  0  0
   -9.7135   -1.2796  -16.2974 O   0  0  0  0  0  0  0  0  0  0  0  0
   -9.3151    0.2117  -11.9288 O   0  0  0  0  0  0  0  0  0  0  0  0
   -6.9599    1.7823  -15.8501 H   0  0  0  0  0  0  0  0  0  0  0  0
   -8.2645    2.9054  -15.4795 H   0  0  0  0  0  0  0  0  0  0  0  0
   -9.9326    1.1129  -15.8538 H   0  0  0  0  0  0  0  0  0  0  0  0
   -8.9498    1.3930  -17.2976 H   0  0  0  0  0  0  0  0  0  0  0  0
   -6.6862   -0.6916  -17.5155 H   0  0  0  0  0  0  0  0  0  0  0  0
   -8.1498   -0.2856  -18.4199 H   0  0  0  0  0  0  0  0  0  0  0  0
   -7.0217    1.6655  -13.4937 H   0  0  0  0  0  0  0  0  0  0  0  0
   -8.7726    1.8887  -13.4321 H   0  0  0  0  0  0  0  0  0  0  0  0
   -7.8082   -1.9328  -14.8214 H   0  0  0  0  0  0  0  0  0  0  0  0
   -6.6267   -0.6739  -15.1957 H   0  0  0  0  0  0  0  0  0  0  0  0
  -10.2666   -2.0693  -18.1059 H   0  0  0  0  0  0  0  0  0  0  0  0
   -9.8988   -3.2731  -16.8539 H   0  0  0  0  0  0  0  0  0  0  0  0
   -7.5385   -2.9282  -17.0343 H   0  0  0  0  0  0  0  0  0  0  0  0
   -7.9089   -1.3227  -10.2264 H   0  0  0  0  0  0  0  0  0  0  0  0
   -7.9453    0.3547   -9.6374 H   0  0  0  0  0  0  0  0  0  0  0  0
   -8.8482   -0.9253   -8.7983 H   0  0  0  0  0  0  0  0  0  0  0  0
  -11.5266    0.9953  -10.6656 H   0  0  0  0  0  0  0  0  0  0  0  0
  -10.1087    1.7483   -9.9574 H   0  0  0  0  0  0  0  0  0  0  0  0
  -10.9954    0.5106   -9.0400 H   0  0  0  0  0  0  0  0  0  0  0  0
  -11.4402   -1.3683  -11.5236 H   0  0  0  0  0  0  0  0  0  0  0  0
   -9.9565   -2.3345  -11.3736 H   0  0  0  0  0  0  0  0  0  0  0  0
  -10.9476   -1.9585   -9.9458 H   0  0  0  0  0  0  0  0  0  0  0  0
   -6.9815   -2.7578  -19.3079 H   0  0  0  0  0  0  0  0  0  0  0  0
   -8.2465   -3.7706  -19.1074 H   0  0  0  0  0  0  0  0  0  0  0  0
  1 14  1  0  0  0  0
  1 16  2  0  0  0  0
  1 18  1  0  0  0  0
  2  3  1  0  0  0  0
  2  5  1  0  0  0  0
  3  9  1  0  0  0  0
  4  8  1  0  0  0  0
  4  9  1  0  0  0  0
  5 14  1  0  0  0  0
  6  9  1  0  0  0  0
  6 14  1  0  0  0  0
  7  8  1  0  0  0  0
  7 17  1  0  0  0  0
  8 15  1  0  0  0  0
  9 17  1  0  0  0  0
 10 13  1  0  0  0  0
 11 13  1  0  0  0  0
 12 13  1  0  0  0  0
 13 18  1  0  0  0  0
  2 19  1  0  0  0  0
  2 20  1  0  0  0  0
  3 21  1  0  0  0  0
  3 22  1  0  0  0  0
  4 23  1  0  0  0  0
  4 24  1  0  0  0  0
  5 25  1  0  0  0  0
  5 26  1  0  0  0  0
  6 27  1  0  0  0  0
  6 28  1  0  0  0  0
  7 29  1  0  0  0  0
  7 30  1  0  0  0  0
  8 31  1  0  0  0  0
 10 32  1  0  0  0  0
 10 33  1  0  0  0  0
 10 34  1  0  0  0  0
 11 35  1  0  0  0  0
 11 36  1  0  0  0  0
 11 37  1  0  0  0  0
 12 38  1  0  0  0  0
 12 39  1  0  0  0  0
 12 40  1  0  0  0  0
 15 41  1  0  0  0  0
 15 42  1  0  0  0  0
M  END
> <id>
EN300-3101759

> <smiles>
CC(C)(C)OC(=O)N1CCCC2(CC(N)CO2)C1

> <MDLNUMBER>
MFCD18633021

> <IUPAC Name>
tert-butyl 3-amino-1-oxa-7-azaspiro[4.5]decane-7-carboxylate

> <CAS>
1263177-13-4

> <Purity>
95

> <URL>
https://www.enaminestore.com/catalog/EN300-3101759

> <ROCS_ShapeQuery>
amalgated

> <ROCS_TanimotoCombo>
0.831 

> <ROCS_ShapeTanimoto>
0.568 

> <ROCS_ColorTanimoto>
0.263 

> <ROCS_RefTversky>
0.546 

> <ROCS_RefColorTversky>
0.416 

> <ROCS_RefTverskyCombo>
0.962 

> <ROCS_FitTversky>
1.077 

> <ROCS_FitColorTversky>
0.416 

> <ROCS_FitTverskyCombo>
1.493 

> <ROCS_ColorScore>
-2.915

> <ROCS_Overlap>
897.738

> <ROCS_Rank>
311                 

$$$$
untitled-dbase-29102_53
  -OEChem-10092318153D

 35 36  0     1  0  0  0  0  0999 V2000
   -8.2928   -0.4713  -14.1470 C   0  0  0  0  0  0  0  0  0  0  0  0
   -7.8859   -1.3144  -18.9769 C   0  0  0  0  0  0  0  0  0  0  0  0
   -8.3551   -3.2136  -17.6683 C   0  0  0  0  0  0  0  0  0  0  0  0
   -7.9513   -0.3306  -16.6099 C   0  0  0  0  0  0  0  0  0  0  0  0
   -9.5367   -1.9461  -15.7742 C   0  0  0  0  0  0  0  0  0  0  0  0
   -8.7483   -0.8679  -17.7993 C   0  0  2  0  0  0  0  0  0  0  0  0
   -9.3739   -2.1590  -17.2687 C   0  0  1  0  0  0  0  0  0  0  0  0
   -9.4272    1.0626  -12.3515 C   0  0  0  0  0  0  0  0  0  0  0  0
  -10.6552   -0.9462  -11.4763 C   0  0  0  0  0  0  0  0  0  0  0  0
   -8.2061   -0.6690  -10.9932 C   0  0  0  0  0  0  0  0  0  0  0  0
   -9.3225   -0.4224  -12.0069 C   0  0  0  0  0  0  0  0  0  0  0  0
   -7.9702   -2.7789  -19.0096 N   0  0  0  0  0  0  0  0  0  0  0  0
   -8.5887   -0.8949  -15.4323 N   0  0  0  0  0  0  0  0  0  0  0  0
   -7.4764    0.4079  -13.8808 O   0  0  0  0  0  0  0  0  0  0  0  0
   -9.0197   -1.1476  -13.2040 O   0  0  0  0  0  0  0  0  0  0  0  0
   -8.2940   -0.9054  -19.9088 H   0  0  0  0  0  0  0  0  0  0  0  0
   -6.8435   -0.9914  -18.8994 H   0  0  0  0  0  0  0  0  0  0  0  0
   -7.4983   -3.2501  -16.9945 H   0  0  0  0  0  0  0  0  0  0  0  0
   -8.8191   -4.2028  -17.7102 H   0  0  0  0  0  0  0  0  0  0  0  0
   -6.8885   -0.5760  -16.6370 H   0  0  0  0  0  0  0  0  0  0  0  0
   -8.0553    0.7556  -16.5375 H   0  0  0  0  0  0  0  0  0  0  0  0
  -10.5454   -1.6082  -15.5193 H   0  0  0  0  0  0  0  0  0  0  0  0
   -9.3111   -2.8278  -15.1670 H   0  0  0  0  0  0  0  0  0  0  0  0
   -9.4941   -0.1559  -18.1237 H   0  0  0  0  0  0  0  0  0  0  0  0
  -10.3554   -2.3425  -17.7431 H   0  0  0  0  0  0  0  0  0  0  0  0
   -8.4726    1.4424  -12.7328 H   0  0  0  0  0  0  0  0  0  0  0  0
  -10.2008    1.2486  -13.1036 H   0  0  0  0  0  0  0  0  0  0  0  0
   -9.6617    1.6553  -11.4599 H   0  0  0  0  0  0  0  0  0  0  0  0
  -10.5846   -2.0113  -11.2278 H   0  0  0  0  0  0  0  0  0  0  0  0
  -11.4398   -0.8579  -12.2364 H   0  0  0  0  0  0  0  0  0  0  0  0
  -10.9759   -0.4021  -10.5820 H   0  0  0  0  0  0  0  0  0  0  0  0
   -8.1308   -1.7341  -10.7459 H   0  0  0  0  0  0  0  0  0  0  0  0
   -7.2356   -0.3328  -11.3722 H   0  0  0  0  0  0  0  0  0  0  0  0
   -8.4122   -0.1469  -10.0518 H   0  0  0  0  0  0  0  0  0  0  0  0
   -8.6520   -3.0875  -19.7051 H   0  0  0  0  0  0  0  0  0  0  0  0
  1 13  1  0  0  0  0
  1 14  2  0  0  0  0
  1 15  1  0  0  0  0
  2  6  1  0  0  0  0
  2 12  1  0  0  0  0
  3  7  1  0  0  0  0
  3 12  1  0  0  0  0
  4  6  1  0  0  0  0
  4 13  1  0  0  0  0
  5  7  1  0  0  0  0
  5 13  1  0  0  0  0
  6  7  1  0  0  0  0
  8 11  1  0  0  0  0
  9 11  1  0  0  0  0
 10 11  1  0  0  0  0
 11 15  1  0  0  0  0
  2 16  1  0  0  0  0
  2 17  1  0  0  0  0
  3 18  1  0  0  0  0
  3 19  1  0  0  0  0
  4 20  1  0  0  0  0
  4 21  1  0  0  0  0
  5 22  1  0  0  0  0
  5 23  1  0  0  0  0
  6 24  1  0  0  0  0
  7 25  1  0  0  0  0
  8 26  1  0  0  0  0
  8 27  1  0  0  0  0
  8 28  1  0  0  0  0
  9 29  1  0  0  0  0
  9 30  1  0  0  0  0
  9 31  1  0  0  0  0
 10 32  1  0  0  0  0
 10 33  1  0  0  0  0
 10 34  1  0  0  0  0
 12 35  1  0  0  0  0
M  END
> <id>
EN300-297153

> <smiles>
Cl.CC(C)(C)OC(=O)N1CC2CNCC2C1

> <MDLNUMBER>
MFCD08752631

> <IUPAC Name>
tert-butyl octahydropyrrolo[3,4-c]pyrrole-2-carboxylate hydrochloride

> <CAS>
1187931-28-7

> <URL>
https://www.enaminestore.com/catalog/EN300-297153

> <Saltdate>
Cl

> <ROCS_ShapeQuery>
amalgated

> <ROCS_TanimotoCombo>
0.830 

> <ROCS_ShapeTanimoto>
0.548 

> <ROCS_ColorTanimoto>
0.283 

> <ROCS_RefTversky>
0.508 

> <ROCS_RefColorTversky>
0.415 

> <ROCS_RefTverskyCombo>
0.923 

> <ROCS_FitTversky>
1.166 

> <ROCS_FitColorTversky>
0.470 

> <ROCS_FitTverskyCombo>
1.636 

> <ROCS_ColorScore>
-2.888

> <ROCS_Overlap>
832.530

> <ROCS_Rank>
312                 

$$$$
untitled-dbase-34307_53
  -OEChem-10092318153D

 35 36  0     1  0  0  0  0  0999 V2000
   -8.2928   -0.4713  -14.1470 C   0  0  0  0  0  0  0  0  0  0  0  0
   -7.8859   -1.3144  -18.9769 C   0  0  0  0  0  0  0  0  0  0  0  0
   -8.3551   -3.2136  -17.6683 C   0  0  0  0  0  0  0  0  0  0  0  0
   -7.9513   -0.3306  -16.6099 C   0  0  0  0  0  0  0  0  0  0  0  0
   -9.5367   -1.9461  -15.7742 C   0  0  0  0  0  0  0  0  0  0  0  0
   -8.7483   -0.8679  -17.7993 C   0  0  2  0  0  0  0  0  0  0  0  0
   -9.3739   -2.1590  -17.2687 C   0  0  1  0  0  0  0  0  0  0  0  0
   -9.4272    1.0626  -12.3515 C   0  0  0  0  0  0  0  0  0  0  0  0
  -10.6552   -0.9462  -11.4763 C   0  0  0  0  0  0  0  0  0  0  0  0
   -8.2061   -0.6690  -10.9932 C   0  0  0  0  0  0  0  0  0  0  0  0
   -9.3225   -0.4224  -12.0069 C   0  0  0  0  0  0  0  0  0  0  0  0
   -7.9702   -2.7789  -19.0096 N   0  0  0  0  0  0  0  0  0  0  0  0
   -8.5887   -0.8949  -15.4323 N   0  0  0  0  0  0  0  0  0  0  0  0
   -7.4764    0.4079  -13.8808 O   0  0  0  0  0  0  0  0  0  0  0  0
   -9.0197   -1.1476  -13.2040 O   0  0  0  0  0  0  0  0  0  0  0  0
   -8.2940   -0.9054  -19.9088 H   0  0  0  0  0  0  0  0  0  0  0  0
   -6.8435   -0.9914  -18.8994 H   0  0  0  0  0  0  0  0  0  0  0  0
   -7.4983   -3.2501  -16.9945 H   0  0  0  0  0  0  0  0  0  0  0  0
   -8.8191   -4.2028  -17.7102 H   0  0  0  0  0  0  0  0  0  0  0  0
   -6.8885   -0.5760  -16.6370 H   0  0  0  0  0  0  0  0  0  0  0  0
   -8.0553    0.7556  -16.5375 H   0  0  0  0  0  0  0  0  0  0  0  0
  -10.5454   -1.6082  -15.5193 H   0  0  0  0  0  0  0  0  0  0  0  0
   -9.3111   -2.8278  -15.1670 H   0  0  0  0  0  0  0  0  0  0  0  0
   -9.4941   -0.1559  -18.1237 H   0  0  0  0  0  0  0  0  0  0  0  0
  -10.3554   -2.3425  -17.7431 H   0  0  0  0  0  0  0  0  0  0  0  0
   -8.4726    1.4424  -12.7328 H   0  0  0  0  0  0  0  0  0  0  0  0
  -10.2008    1.2486  -13.1036 H   0  0  0  0  0  0  0  0  0  0  0  0
   -9.6617    1.6553  -11.4599 H   0  0  0  0  0  0  0  0  0  0  0  0
  -10.5846   -2.0113  -11.2278 H   0  0  0  0  0  0  0  0  0  0  0  0
  -11.4398   -0.8579  -12.2364 H   0  0  0  0  0  0  0  0  0  0  0  0
  -10.9759   -0.4021  -10.5820 H   0  0  0  0  0  0  0  0  0  0  0  0
   -8.1308   -1.7341  -10.7459 H   0  0  0  0  0  0  0  0  0  0  0  0
   -7.2356   -0.3328  -11.3722 H   0  0  0  0  0  0  0  0  0  0  0  0
   -8.4122   -0.1469  -10.0518 H   0  0  0  0  0  0  0  0  0  0  0  0
   -8.6520   -3.0875  -19.7051 H   0  0  0  0  0  0  0  0  0  0  0  0
  1 13  1  0  0  0  0
  1 14  2  0  0  0  0
  1 15  1  0  0  0  0
  2  6  1  0  0  0  0
  2 12  1  0  0  0  0
  3  7  1  0  0  0  0
  3 12  1  0  0  0  0
  4  6  1  0  0  0  0
  4 13  1  0  0  0  0
  5  7  1  0  0  0  0
  5 13  1  0  0  0  0
  6  7  1  0  0  0  0
  8 11  1  0  0  0  0
  9 11  1  0  0  0  0
 10 11  1  0  0  0  0
 11 15  1  0  0  0  0
  2 16  1  0  0  0  0
  2 17  1  0  0  0  0
  3 18  1  0  0  0  0
  3 19  1  0  0  0  0
  4 20  1  0  0  0  0
  4 21  1  0  0  0  0
  5 22  1  0  0  0  0
  5 23  1  0  0  0  0
  6 24  1  0  0  0  0
  7 25  1  0  0  0  0
  8 26  1  0  0  0  0
  8 27  1  0  0  0  0
  8 28  1  0  0  0  0
  9 29  1  0  0  0  0
  9 30  1  0  0  0  0
  9 31  1  0  0  0  0
 10 32  1  0  0  0  0
 10 33  1  0  0  0  0
 10 34  1  0  0  0  0
 12 35  1  0  0  0  0
M  END
> <id>
EN300-50906

> <smiles>
CC(C)(C)OC(=O)N1CC2CNCC2C1

> <MDLNUMBER>
MFCD04115128

> <IUPAC Name>
tert-butyl octahydropyrrolo[3,4-c]pyrrole-2-carboxylate

> <CAS>
141449-85-6

> <URL>
https://www.enaminestore.com/catalog/EN300-50906

> <ROCS_ShapeQuery>
amalgated

> <ROCS_TanimotoCombo>
0.830 

> <ROCS_ShapeTanimoto>
0.548 

> <ROCS_ColorTanimoto>
0.283 

> <ROCS_RefTversky>
0.508 

> <ROCS_RefColorTversky>
0.415 

> <ROCS_RefTverskyCombo>
0.923 

> <ROCS_FitTversky>
1.166 

> <ROCS_FitColorTversky>
0.470 

> <ROCS_FitTverskyCombo>
1.636 

> <ROCS_ColorScore>
-2.888

> <ROCS_Overlap>
832.530

> <ROCS_Rank>
313                 

$$$$
untitled-dbase-44769_185
  -OEChem-10092318153D

 37 38  0     1  0  0  0  0  0999 V2000
   -8.0131   -0.7313  -13.3629 C   0  0  0  0  0  0  0  0  0  0  0  0
   -8.1058   -1.3071  -19.2511 C   0  0  0  0  0  0  0  0  0  0  0  0
   -9.2656   -0.6244  -18.5312 C   0  0  0  0  0  0  0  0  0  0  0  0
   -7.8509   -2.9090  -17.4638 C   0  0  0  0  0  0  0  0  0  0  0  0
   -8.8690   -2.3295  -15.1862 C   0  0  0  0  0  0  0  0  0  0  0  0
   -9.0441   -2.3132  -16.7139 C   0  0  1  0  0  0  0  0  0  0  0  0
  -10.4456    0.4920  -12.4134 C   0  0  0  0  0  0  0  0  0  0  0  0
  -10.4351   -1.3066  -10.6600 C   0  0  0  0  0  0  0  0  0  0  0  0
   -8.5636    0.3662  -10.7470 C   0  0  0  0  0  0  0  0  0  0  0  0
   -9.5718   -0.4349  -11.5695 C   0  0  0  0  0  0  0  0  0  0  0  0
   -8.0116   -2.7279  -18.9087 N   0  0  0  0  0  0  0  0  0  0  0  0
   -8.2223   -1.0371  -14.7588 N   0  0  0  0  0  0  0  0  0  0  0  0
   -9.2166   -0.8801  -17.0730 N   0  0  1  0  0  0  0  0  0  0  0  0
   -7.0766   -0.0323  -12.9876 O   0  0  0  0  0  0  0  0  0  0  0  0
   -6.9222    0.2324  -16.6081 O   0  0  0  0  0  0  0  0  0  0  0  0
   -9.0190    1.2864  -15.6736 O   0  0  0  0  0  0  0  0  0  0  0  0
   -8.8519   -1.3088  -12.4490 O   0  0  0  0  0  0  0  0  0  0  0  0
   -8.2567    0.1146  -16.0537 S   0  0  0  0  0  0  0  0  0  0  0  0
   -8.2370   -1.2088  -20.3343 H   0  0  0  0  0  0  0  0  0  0  0  0
   -7.1592   -0.8120  -19.0008 H   0  0  0  0  0  0  0  0  0  0  0  0
   -9.2195    0.4677  -18.7087 H   0  0  0  0  0  0  0  0  0  0  0  0
  -10.2357   -0.9760  -18.9377 H   0  0  0  0  0  0  0  0  0  0  0  0
   -6.9087   -2.4459  -17.1391 H   0  0  0  0  0  0  0  0  0  0  0  0
   -7.7685   -3.9802  -17.2408 H   0  0  0  0  0  0  0  0  0  0  0  0
   -9.8461   -2.4533  -14.6924 H   0  0  0  0  0  0  0  0  0  0  0  0
   -8.2136   -3.1562  -14.8641 H   0  0  0  0  0  0  0  0  0  0  0  0
   -9.9659   -2.8659  -16.9762 H   0  0  0  0  0  0  0  0  0  0  0  0
   -9.8297    1.1194  -13.0676 H   0  0  0  0  0  0  0  0  0  0  0  0
  -11.1495   -0.0718  -13.0342 H   0  0  0  0  0  0  0  0  0  0  0  0
  -11.0174    1.1771  -11.7769 H   0  0  0  0  0  0  0  0  0  0  0  0
   -9.8122   -1.9733  -10.0527 H   0  0  0  0  0  0  0  0  0  0  0  0
  -11.0946   -1.9530  -11.2502 H   0  0  0  0  0  0  0  0  0  0  0  0
  -11.0528   -0.7018   -9.9883 H   0  0  0  0  0  0  0  0  0  0  0  0
   -7.9367   -0.2985  -10.1417 H   0  0  0  0  0  0  0  0  0  0  0  0
   -7.9108    0.9698  -11.3859 H   0  0  0  0  0  0  0  0  0  0  0  0
   -9.0762    1.0328  -10.0441 H   0  0  0  0  0  0  0  0  0  0  0  0
   -8.8684   -3.1940  -19.2051 H   0  0  0  0  0  0  0  0  0  0  0  0
  1 12  1  0  0  0  0
  1 14  2  0  0  0  0
  1 17  1  0  0  0  0
  2  3  1  0  0  0  0
  2 11  1  0  0  0  0
  3 13  1  0  0  0  0
  4  6  1  0  0  0  0
  4 11  1  0  0  0  0
  5  6  1  0  0  0  0
  5 12  1  0  0  0  0
  6 13  1  0  0  0  0
  7 10  1  0  0  0  0
  8 10  1  0  0  0  0
  9 10  1  0  0  0  0
 10 17  1  0  0  0  0
 12 18  1  0  0  0  0
 13 18  1  0  0  0  0
 15 18  2  0  0  0  0
 16 18  2  0  0  0  0
  2 19  1  0  0  0  0
  2 20  1  0  0  0  0
  3 21  1  0  0  0  0
  3 22  1  0  0  0  0
  4 23  1  0  0  0  0
  4 24  1  0  0  0  0
  5 25  1  0  0  0  0
  5 26  1  0  0  0  0
  6 27  1  0  0  0  0
  7 28  1  0  0  0  0
  7 29  1  0  0  0  0
  7 30  1  0  0  0  0
  8 31  1  0  0  0  0
  8 32  1  0  0  0  0
  8 33  1  0  0  0  0
  9 34  1  0  0  0  0
  9 35  1  0  0  0  0
  9 36  1  0  0  0  0
 11 37  1  0  0  0  0
M  END
> <id>
EN300-28285182

> <smiles>
CC(C)(C)OC(=O)N1CC2CNCCN2S1(=O)=O

> <IUPAC Name>
tert-butyl 1,1-dioxo-hexahydro-2H-1lambda6-[1,2,5]thiadiazolo[2,3-a]pyrazine-2-carboxylate

> <CAS>
2680752-40-1

> <URL>
https://www.enaminestore.com/catalog/EN300-28285182

> <ROCS_ShapeQuery>
amalgated

> <ROCS_TanimotoCombo>
0.830 

> <ROCS_ShapeTanimoto>
0.571 

> <ROCS_ColorTanimoto>
0.259 

> <ROCS_RefTversky>
0.544 

> <ROCS_RefColorTversky>
0.386 

> <ROCS_RefTverskyCombo>
0.930 

> <ROCS_FitTversky>
1.095 

> <ROCS_FitColorTversky>
0.442 

> <ROCS_FitTverskyCombo>
1.536 

> <ROCS_ColorScore>
-2.684

> <ROCS_Overlap>
894.037

> <ROCS_Rank>
314                 

$$$$
untitled-dbase-30954_35
  -OEChem-10092318153D

 46 46  0     0  0  0  0  0  0999 V2000
   -8.9205   -0.2220  -14.2272 C   0  0  0  0  0  0  0  0  0  0  0  0
   -8.4869    0.0795  -16.6803 C   0  0  0  0  0  0  0  0  0  0  0  0
   -8.8811   -2.2039  -15.7047 C   0  0  0  0  0  0  0  0  0  0  0  0
   -8.6974   -1.9060  -18.2691 C   0  0  0  0  0  0  0  0  0  0  0  0
   -7.8216   -0.6678  -17.8546 C   0  0  0  0  0  0  0  0  0  0  0  0
   -9.4590   -2.6039  -17.0765 C   0  0  0  0  0  0  0  0  0  0  0  0
   -6.3682   -1.0353  -17.4666 C   0  0  0  0  0  0  0  0  0  0  0  0
   -7.7251    0.3190  -19.0442 C   0  0  0  0  0  0  0  0  0  0  0  0
   -9.4406   -4.1487  -17.1614 C   0  0  0  0  0  0  0  0  0  0  0  0
  -10.9540   -2.1911  -17.1250 C   0  0  0  0  0  0  0  0  0  0  0  0
  -10.5218    0.2341  -11.9002 C   0  0  0  0  0  0  0  0  0  0  0  0
   -9.5856   -1.9384  -11.0560 C   0  0  0  0  0  0  0  0  0  0  0  0
   -8.0476   -0.0041  -11.5045 C   0  0  0  0  0  0  0  0  0  0  0  0
   -9.3274   -0.7182  -11.9372 C   0  0  0  0  0  0  0  0  0  0  0  0
   -8.7581   -0.7603  -15.5107 N   0  0  0  0  0  0  0  0  0  0  0  0
   -7.9472   -2.8438  -19.1157 N   0  0  0  0  0  0  0  0  0  0  0  0
   -8.8528    0.9774  -13.9648 O   0  0  0  0  0  0  0  0  0  0  0  0
   -9.1576   -1.1842  -13.2806 O   0  0  0  0  0  0  0  0  0  0  0  0
   -7.8761    0.9532  -16.3806 H   0  0  0  0  0  0  0  0  0  0  0  0
   -9.4634    0.5016  -16.9907 H   0  0  0  0  0  0  0  0  0  0  0  0
   -9.5357   -2.5706  -14.8886 H   0  0  0  0  0  0  0  0  0  0  0  0
   -7.9091   -2.7058  -15.5359 H   0  0  0  0  0  0  0  0  0  0  0  0
   -9.4883   -1.4898  -18.9128 H   0  0  0  0  0  0  0  0  0  0  0  0
   -5.9040   -1.5598  -18.2932 H   0  0  0  0  0  0  0  0  0  0  0  0
   -6.3871   -1.6714  -16.5898 H   0  0  0  0  0  0  0  0  0  0  0  0
   -5.8196   -0.1261  -17.2515 H   0  0  0  0  0  0  0  0  0  0  0  0
   -7.2602   -0.1882  -19.8785 H   0  0  0  0  0  0  0  0  0  0  0  0
   -7.1272    1.1680  -18.7426 H   0  0  0  0  0  0  0  0  0  0  0  0
   -8.7229    0.6397  -19.3103 H   0  0  0  0  0  0  0  0  0  0  0  0
   -9.8433   -4.4545  -18.1195 H   0  0  0  0  0  0  0  0  0  0  0  0
  -10.0469   -4.5535  -16.3600 H   0  0  0  0  0  0  0  0  0  0  0  0
   -8.4188   -4.4955  -17.0627 H   0  0  0  0  0  0  0  0  0  0  0  0
  -11.3599   -2.4715  -18.0873 H   0  0  0  0  0  0  0  0  0  0  0  0
  -11.0225   -1.1207  -16.9878 H   0  0  0  0  0  0  0  0  0  0  0  0
  -11.4811   -2.7044  -16.3326 H   0  0  0  0  0  0  0  0  0  0  0  0
  -10.3403    1.1114  -12.5315 H   0  0  0  0  0  0  0  0  0  0  0  0
  -11.4393   -0.2561  -12.2416 H   0  0  0  0  0  0  0  0  0  0  0  0
  -10.6887    0.6128  -10.8853 H   0  0  0  0  0  0  0  0  0  0  0  0
   -8.7311   -2.6245  -11.0795 H   0  0  0  0  0  0  0  0  0  0  0  0
  -10.4484   -2.5075  -11.4205 H   0  0  0  0  0  0  0  0  0  0  0  0
   -9.7727   -1.6533  -10.0157 H   0  0  0  0  0  0  0  0  0  0  0  0
   -7.1908   -0.6870  -11.5310 H   0  0  0  0  0  0  0  0  0  0  0  0
   -7.8265    0.8530  -12.1489 H   0  0  0  0  0  0  0  0  0  0  0  0
   -8.1293    0.3496  -10.4704 H   0  0  0  0  0  0  0  0  0  0  0  0
   -8.5780   -3.5398  -19.4277 H   0  0  0  0  0  0  0  0  0  0  0  0
   -7.5755   -2.3316  -19.8768 H   0  0  0  0  0  0  0  0  0  0  0  0
  1 15  1  0  0  0  0
  1 17  2  0  0  0  0
  1 18  1  0  0  0  0
  2  5  1  0  0  0  0
  2 15  1  0  0  0  0
  3  6  1  0  0  0  0
  3 15  1  0  0  0  0
  4  5  1  0  0  0  0
  4  6  1  0  0  0  0
  4 16  1  0  0  0  0
  5  7  1  0  0  0  0
  5  8  1  0  0  0  0
  6  9  1  0  0  0  0
  6 10  1  0  0  0  0
 11 14  1  0  0  0  0
 12 14  1  0  0  0  0
 13 14  1  0  0  0  0
 14 18  1  0  0  0  0
  2 19  1  0  0  0  0
  2 20  1  0  0  0  0
  3 21  1  0  0  0  0
  3 22  1  0  0  0  0
  4 23  1  0  0  0  0
  7 24  1  0  0  0  0
  7 25  1  0  0  0  0
  7 26  1  0  0  0  0
  8 27  1  0  0  0  0
  8 28  1  0  0  0  0
  8 29  1  0  0  0  0
  9 30  1  0  0  0  0
  9 31  1  0  0  0  0
  9 32  1  0  0  0  0
 10 33  1  0  0  0  0
 10 34  1  0  0  0  0
 10 35  1  0  0  0  0
 11 36  1  0  0  0  0
 11 37  1  0  0  0  0
 11 38  1  0  0  0  0
 12 39  1  0  0  0  0
 12 40  1  0  0  0  0
 12 41  1  0  0  0  0
 13 42  1  0  0  0  0
 13 43  1  0  0  0  0
 13 44  1  0  0  0  0
 16 45  1  0  0  0  0
 16 46  1  0  0  0  0
M  END
> <id>
EN300-6873691

> <smiles>
CC(C)(C)OC(=O)N1CC(C)(C)C(N)C(C)(C)C1

> <MDLNUMBER>
MFCD28536590

> <IUPAC Name>
tert-butyl 4-amino-3,3,5,5-tetramethylpiperidine-1-carboxylate

> <CAS>
1780209-02-0

> <Purity>
95

> <URL>
https://www.enaminestore.com/catalog/EN300-6873691

> <ROCS_ShapeQuery>
amalgated

> <ROCS_TanimotoCombo>
0.830 

> <ROCS_ShapeTanimoto>
0.582 

> <ROCS_ColorTanimoto>
0.248 

> <ROCS_RefTversky>
0.549 

> <ROCS_RefColorTversky>
0.398 

> <ROCS_RefTverskyCombo>
0.947 

> <ROCS_FitTversky>
1.115 

> <ROCS_FitColorTversky>
0.398 

> <ROCS_FitTverskyCombo>
1.513 

> <ROCS_ColorScore>
-2.785

> <ROCS_Overlap>
902.172

> <ROCS_Rank>
315                 

$$$$
untitled-dbase-13394_15
  -OEChem-10092318153D

 36 36  0     0  0  0  0  0  0999 V2000
  -11.3090   -2.2518  -19.4749 C   0  0  0  0  0  0  0  0  0  0  0  0
  -10.2432   -2.2047  -18.9246 C   0  0  0  0  0  0  0  0  0  0  0  0
   -8.5328   -0.1259  -14.3895 C   0  0  0  0  0  0  0  0  0  0  0  0
   -8.5334   -0.6667  -18.0397 C   0  0  0  0  0  0  0  0  0  0  0  0
   -8.9961   -2.9156  -16.9064 C   0  0  0  0  0  0  0  0  0  0  0  0
   -7.7809   -0.4402  -16.7322 C   0  0  0  0  0  0  0  0  0  0  0  0
   -9.4514   -2.0285  -15.7497 C   0  0  0  0  0  0  0  0  0  0  0  0
   -8.9309   -2.1472  -18.2472 C   0  0  0  0  0  0  0  0  0  0  0  0
   -9.8267    1.4804  -12.4070 C   0  0  0  0  0  0  0  0  0  0  0  0
  -10.3378   -0.6887  -11.2480 C   0  0  0  0  0  0  0  0  0  0  0  0
   -7.9511    0.0167  -11.5858 C   0  0  0  0  0  0  0  0  0  0  0  0
   -9.3636    0.0440  -12.1679 C   0  0  0  0  0  0  0  0  0  0  0  0
   -8.5875   -0.8539  -15.5822 N   0  0  0  0  0  0  0  0  0  0  0  0
   -7.9410   -2.8043  -19.1095 N   0  0  0  0  0  0  0  0  0  0  0  0
   -7.8367    0.8728  -14.2173 O   0  0  0  0  0  0  0  0  0  0  0  0
   -9.3530   -0.6463  -13.4227 O   0  0  0  0  0  0  0  0  0  0  0  0
  -12.2546   -2.2934  -19.9630 H   0  0  0  0  0  0  0  0  0  0  0  0
   -9.4212   -0.0209  -18.0603 H   0  0  0  0  0  0  0  0  0  0  0  0
   -7.8880   -0.3374  -18.8662 H   0  0  0  0  0  0  0  0  0  0  0  0
   -8.0038   -3.3157  -16.6609 H   0  0  0  0  0  0  0  0  0  0  0  0
   -9.6715   -3.7759  -16.9862 H   0  0  0  0  0  0  0  0  0  0  0  0
   -6.8328   -0.9861  -16.7522 H   0  0  0  0  0  0  0  0  0  0  0  0
   -7.5407    0.6198  -16.5944 H   0  0  0  0  0  0  0  0  0  0  0  0
  -10.4718   -1.6539  -15.9208 H   0  0  0  0  0  0  0  0  0  0  0  0
   -9.4911   -2.6257  -14.8293 H   0  0  0  0  0  0  0  0  0  0  0  0
   -9.1300    2.0097  -13.0669 H   0  0  0  0  0  0  0  0  0  0  0  0
  -10.8244    1.5129  -12.8568 H   0  0  0  0  0  0  0  0  0  0  0  0
   -9.8519    2.0446  -11.4677 H   0  0  0  0  0  0  0  0  0  0  0  0
  -10.0094   -1.7197  -11.0737 H   0  0  0  0  0  0  0  0  0  0  0  0
  -11.3318   -0.7544  -11.7050 H   0  0  0  0  0  0  0  0  0  0  0  0
  -10.4340   -0.1870  -10.2796 H   0  0  0  0  0  0  0  0  0  0  0  0
   -7.6186   -1.0134  -11.4142 H   0  0  0  0  0  0  0  0  0  0  0  0
   -7.2315    0.5059  -12.2503 H   0  0  0  0  0  0  0  0  0  0  0  0
   -7.9215    0.5176  -10.6113 H   0  0  0  0  0  0  0  0  0  0  0  0
   -8.2292   -3.7425  -19.2427 H   0  0  0  0  0  0  0  0  0  0  0  0
   -7.9155   -2.3144  -19.9699 H   0  0  0  0  0  0  0  0  0  0  0  0
  1  2  3  0  0  0  0
  2  8  1  0  0  0  0
  3 13  1  0  0  0  0
  3 15  2  0  0  0  0
  3 16  1  0  0  0  0
  4  6  1  0  0  0  0
  4  8  1  0  0  0  0
  5  7  1  0  0  0  0
  5  8  1  0  0  0  0
  6 13  1  0  0  0  0
  7 13  1  0  0  0  0
  8 14  1  0  0  0  0
  9 12  1  0  0  0  0
 10 12  1  0  0  0  0
 11 12  1  0  0  0  0
 12 16  1  0  0  0  0
  1 17  1  0  0  0  0
  4 18  1  0  0  0  0
  4 19  1  0  0  0  0
  5 20  1  0  0  0  0
  5 21  1  0  0  0  0
  6 22  1  0  0  0  0
  6 23  1  0  0  0  0
  7 24  1  0  0  0  0
  7 25  1  0  0  0  0
  9 26  1  0  0  0  0
  9 27  1  0  0  0  0
  9 28  1  0  0  0  0
 10 29  1  0  0  0  0
 10 30  1  0  0  0  0
 10 31  1  0  0  0  0
 11 32  1  0  0  0  0
 11 33  1  0  0  0  0
 11 34  1  0  0  0  0
 14 35  1  0  0  0  0
 14 36  1  0  0  0  0
M  END
> <id>
EN300-764018

> <smiles>
CC(C)(C)OC(=O)N1CCC(N)(CC1)C#C

> <MDLNUMBER>
MFCD31457871

> <IUPAC Name>
tert-butyl 4-amino-4-ethynylpiperidine-1-carboxylate

> <CAS>
2137621-94-2

> <URL>
https://www.enaminestore.com/catalog/EN300-764018

> <ROCS_ShapeQuery>
amalgated

> <ROCS_TanimotoCombo>
0.830 

> <ROCS_ShapeTanimoto>
0.548 

> <ROCS_ColorTanimoto>
0.282 

> <ROCS_RefTversky>
0.513 

> <ROCS_RefColorTversky>
0.411 

> <ROCS_RefTverskyCombo>
0.924 

> <ROCS_FitTversky>
1.144 

> <ROCS_FitColorTversky>
0.473 

> <ROCS_FitTverskyCombo>
1.617 

> <ROCS_ColorScore>
-2.860

> <ROCS_Overlap>
840.454

> <ROCS_Rank>
316                 

$$$$
untitled-dbase-35427_89
  -OEChem-10092318153D

 43 45  0     1  0  0  0  0  0999 V2000
   -8.6197   -0.6316  -11.1047 C   0  0  0  0  0  0  0  0  0  0  0  0
  -10.0386   -0.2638  -11.5352 C   0  0  0  0  0  0  0  0  0  0  0  0
  -10.2067   -2.3309  -17.3791 C   0  0  0  0  0  0  0  0  0  0  0  0
   -7.6979   -0.1540  -12.2261 C   0  0  0  0  0  0  0  0  0  0  0  0
   -9.8872    0.5104  -12.8408 C   0  0  0  0  0  0  0  0  0  0  0  0
   -9.9379   -0.8833  -16.9586 C   0  0  0  0  0  0  0  0  0  0  0  0
   -7.4712   -0.4941  -17.4258 C   0  0  0  0  0  0  0  0  0  0  0  0
   -9.0278   -3.2083  -17.7980 C   0  0  0  0  0  0  0  0  0  0  0  0
   -7.0279   -1.8314  -18.0300 C   0  0  0  0  0  0  0  0  0  0  0  0
   -7.9812    0.9225  -14.5009 C   0  0  0  0  0  0  0  0  0  0  0  0
   -8.8537   -1.4258  -14.1133 C   0  0  0  0  0  0  0  0  0  0  0  0
   -8.5939   -0.0400  -13.4719 C   0  0  0  0  0  0  0  0  0  0  0  0
   -8.5683   -0.5505  -16.3330 C   0  0  1  0  0  0  0  0  0  0  0  0
   -8.5793   -2.0501  -19.9110 C   0  0  0  0  0  0  0  0  0  0  0  0
   -8.7042    0.8132  -15.7633 N   0  0  0  0  0  0  0  0  0  0  0  0
   -8.0342   -2.6457  -18.7018 N   0  0  2  0  0  0  0  0  0  0  0  0
   -8.1793   -1.5417  -15.3663 O   0  0  0  0  0  0  0  0  0  0  0  0
   -8.3526   -0.1731  -10.1471 H   0  0  0  0  0  0  0  0  0  0  0  0
   -8.5368   -1.7176  -10.9801 H   0  0  0  0  0  0  0  0  0  0  0  0
  -10.6300   -1.1711  -11.6887 H   0  0  0  0  0  0  0  0  0  0  0  0
  -10.5475    0.3375  -10.7780 H   0  0  0  0  0  0  0  0  0  0  0  0
  -10.7148   -2.8307  -16.5265 H   0  0  0  0  0  0  0  0  0  0  0  0
  -10.9755   -2.3385  -18.1831 H   0  0  0  0  0  0  0  0  0  0  0  0
   -7.2876    0.8294  -11.9583 H   0  0  0  0  0  0  0  0  0  0  0  0
   -6.8490   -0.8325  -12.3706 H   0  0  0  0  0  0  0  0  0  0  0  0
  -10.7680    0.3976  -13.4779 H   0  0  0  0  0  0  0  0  0  0  0  0
   -9.7778    1.5763  -12.6113 H   0  0  0  0  0  0  0  0  0  0  0  0
  -10.0974   -0.2452  -17.8391 H   0  0  0  0  0  0  0  0  0  0  0  0
  -10.7309   -0.5787  -16.2620 H   0  0  0  0  0  0  0  0  0  0  0  0
   -6.5969    0.0166  -17.0124 H   0  0  0  0  0  0  0  0  0  0  0  0
   -7.7907    0.1366  -18.2560 H   0  0  0  0  0  0  0  0  0  0  0  0
   -8.5333   -3.6707  -16.8844 H   0  0  0  0  0  0  0  0  0  0  0  0
   -9.4938   -4.1208  -18.2788 H   0  0  0  0  0  0  0  0  0  0  0  0
   -6.2325   -1.6167  -18.7576 H   0  0  0  0  0  0  0  0  0  0  0  0
   -6.5486   -2.4051  -17.2224 H   0  0  0  0  0  0  0  0  0  0  0  0
   -8.0422    1.9538  -14.1496 H   0  0  0  0  0  0  0  0  0  0  0  0
   -6.9222    0.7040  -14.6486 H   0  0  0  0  0  0  0  0  0  0  0  0
   -8.5372   -2.2315  -13.4471 H   0  0  0  0  0  0  0  0  0  0  0  0
   -9.9171   -1.5827  -14.3069 H   0  0  0  0  0  0  0  0  0  0  0  0
   -7.7588   -1.6543  -20.5275 H   0  0  0  0  0  0  0  0  0  0  0  0
   -9.1297   -2.8139  -20.4799 H   0  0  0  0  0  0  0  0  0  0  0  0
   -9.2623   -1.2313  -19.6406 H   0  0  0  0  0  0  0  0  0  0  0  0
   -9.6841    1.0071  -15.6054 H   0  0  0  0  0  0  0  0  0  0  0  0
  1  2  1  0  0  0  0
  1  4  1  0  0  0  0
  2  5  1  0  0  0  0
  3  6  1  0  0  0  0
  3  8  1  0  0  0  0
  4 12  1  0  0  0  0
  5 12  1  0  0  0  0
  6 13  1  0  0  0  0
  7  9  1  0  0  0  0
  7 13  1  0  0  0  0
  8 16  1  0  0  0  0
  9 16  1  0  0  0  0
 10 12  1  0  0  0  0
 10 15  1  0  0  0  0
 11 12  1  0  0  0  0
 11 17  1  0  0  0  0
 13 15  1  0  0  0  0
 13 17  1  0  0  0  0
 14 16  1  0  0  0  0
  1 18  1  0  0  0  0
  1 19  1  0  0  0  0
  2 20  1  0  0  0  0
  2 21  1  0  0  0  0
  3 22  1  0  0  0  0
  3 23  1  0  0  0  0
  4 24  1  0  0  0  0
  4 25  1  0  0  0  0
  5 26  1  0  0  0  0
  5 27  1  0  0  0  0
  6 28  1  0  0  0  0
  6 29  1  0  0  0  0
  7 30  1  0  0  0  0
  7 31  1  0  0  0  0
  8 32  1  0  0  0  0
  8 33  1  0  0  0  0
  9 34  1  0  0  0  0
  9 35  1  0  0  0  0
 10 36  1  0  0  0  0
 10 37  1  0  0  0  0
 11 38  1  0  0  0  0
 11 39  1  0  0  0  0
 14 40  1  0  0  0  0
 14 41  1  0  0  0  0
 14 42  1  0  0  0  0
 15 43  1  0  0  0  0
M  END
> <id>
EN300-1278947

> <smiles>
CN1CCCC2(CC1)NCC3(CCCC3)CO2

> <IUPAC Name>
11-methyl-7-oxa-11,15-diazadispiro[4.2.6^{8}.2^{5}]hexadecane

> <CAS>
2172141-07-8

> <URL>
https://www.enaminestore.com/catalog/EN300-1278947

> <ROCS_ShapeQuery>
amalgated

> <ROCS_TanimotoCombo>
0.829 

> <ROCS_ShapeTanimoto>
0.581 

> <ROCS_ColorTanimoto>
0.248 

> <ROCS_RefTversky>
0.544 

> <ROCS_RefColorTversky>
0.398 

> <ROCS_RefTverskyCombo>
0.942 

> <ROCS_FitTversky>
1.133 

> <ROCS_FitColorTversky>
0.398 

> <ROCS_FitTverskyCombo>
1.531 

> <ROCS_ColorScore>
-2.787

> <ROCS_Overlap>
893.618

> <ROCS_Rank>
317                 

$$$$
untitled-dbase-50612_33
  -OEChem-10092318153D

 35 36  0     1  0  0  0  0  0999 V2000
   -8.4826   -0.2333  -14.5344 C   0  0  0  0  0  0  0  0  0  0  0  0
   -7.4282   -0.6183  -17.9198 C   0  0  0  0  0  0  0  0  0  0  0  0
   -7.6113   -1.3599  -19.2414 C   0  0  0  0  0  0  0  0  0  0  0  0
   -9.3249   -2.8443  -18.4133 C   0  0  0  0  0  0  0  0  0  0  0  0
   -8.6750   -2.4047  -15.8738 C   0  0  0  0  0  0  0  0  0  0  0  0
   -9.4687   -2.0209  -17.1409 C   0  0  1  0  0  0  0  0  0  0  0  0
   -8.7203   -0.6624  -17.1087 C   0  0  1  0  0  0  0  0  0  0  0  0
  -10.1638    0.7734  -12.6914 C   0  0  0  0  0  0  0  0  0  0  0  0
   -9.8809   -1.3539  -11.3861 C   0  0  0  0  0  0  0  0  0  0  0  0
   -8.0363    0.3505  -11.4148 C   0  0  0  0  0  0  0  0  0  0  0  0
   -9.1710   -0.2863  -12.2159 C   0  0  0  0  0  0  0  0  0  0  0  0
   -7.9812   -2.7551  -18.9902 N   0  0  0  0  0  0  0  0  0  0  0  0
   -8.4781   -0.9670  -15.6990 N   0  0  0  0  0  0  0  0  0  0  0  0
   -8.3040    0.9840  -14.5079 O   0  0  0  0  0  0  0  0  0  0  0  0
   -8.6101   -0.9350  -13.3659 O   0  0  0  0  0  0  0  0  0  0  0  0
   -6.5913   -1.0737  -17.3715 H   0  0  0  0  0  0  0  0  0  0  0  0
   -7.1426    0.4235  -18.1106 H   0  0  0  0  0  0  0  0  0  0  0  0
   -8.3625   -0.8658  -19.8706 H   0  0  0  0  0  0  0  0  0  0  0  0
   -6.6644   -1.3393  -19.7932 H   0  0  0  0  0  0  0  0  0  0  0  0
   -9.5553   -3.8937  -18.2018 H   0  0  0  0  0  0  0  0  0  0  0  0
  -10.0570   -2.5045  -19.1560 H   0  0  0  0  0  0  0  0  0  0  0  0
   -9.2605   -2.8716  -15.0807 H   0  0  0  0  0  0  0  0  0  0  0  0
   -7.7349   -2.9390  -16.0260 H   0  0  0  0  0  0  0  0  0  0  0  0
  -10.5380   -1.9077  -16.9043 H   0  0  0  0  0  0  0  0  0  0  0  0
   -9.3791    0.1921  -17.2770 H   0  0  0  0  0  0  0  0  0  0  0  0
   -9.6580    1.5416  -13.2875 H   0  0  0  0  0  0  0  0  0  0  0  0
  -10.9635    0.3343  -13.2966 H   0  0  0  0  0  0  0  0  0  0  0  0
  -10.6191    1.2926  -11.8403 H   0  0  0  0  0  0  0  0  0  0  0  0
   -9.1724   -2.1163  -11.0428 H   0  0  0  0  0  0  0  0  0  0  0  0
  -10.6326   -1.8790  -11.9865 H   0  0  0  0  0  0  0  0  0  0  0  0
  -10.3765   -0.9218  -10.5107 H   0  0  0  0  0  0  0  0  0  0  0  0
   -7.3241   -0.4095  -11.0736 H   0  0  0  0  0  0  0  0  0  0  0  0
   -7.4919    1.0932  -12.0070 H   0  0  0  0  0  0  0  0  0  0  0  0
   -8.4226    0.8393  -10.5131 H   0  0  0  0  0  0  0  0  0  0  0  0
   -7.9685   -3.2677  -19.8715 H   0  0  0  0  0  0  0  0  0  0  0  0
  1 13  1  0  0  0  0
  1 14  2  0  0  0  0
  1 15  1  0  0  0  0
  2  3  1  0  0  0  0
  2  7  1  6  0  0  0
  3 12  1  0  0  0  0
  4  6  1  0  0  0  0
  4 12  1  0  0  0  0
  5  6  1  6  0  0  0
  5 13  1  0  0  0  0
  6  7  1  0  0  0  0
  7 13  1  0  0  0  0
  8 11  1  0  0  0  0
  9 11  1  0  0  0  0
 10 11  1  0  0  0  0
 11 15  1  0  0  0  0
  2 16  1  0  0  0  0
  2 17  1  0  0  0  0
  3 18  1  0  0  0  0
  3 19  1  0  0  0  0
  4 20  1  0  0  0  0
  4 21  1  0  0  0  0
  5 22  1  0  0  0  0
  5 23  1  0  0  0  0
  6 24  1  0  0  0  0
  7 25  1  0  0  0  0
  8 26  1  0  0  0  0
  8 27  1  0  0  0  0
  8 28  1  0  0  0  0
  9 29  1  0  0  0  0
  9 30  1  0  0  0  0
  9 31  1  0  0  0  0
 10 32  1  0  0  0  0
 10 33  1  0  0  0  0
 10 34  1  0  0  0  0
 12 35  1  0  0  0  0
M  END
> <id>
EN300-21680464

> <smiles>
Cl.CC(C)(C)OC(=O)N1C[C@@H]2CNCC[C@@H]21 |&1:10,15,r|

> <MDLNUMBER>
MFCD28892237

> <IUPAC Name>
rac-tert-butyl (1R,6R)-3,7-diazabicyclo[4.2.0]octane-7-carboxylate hydrochloride

> <Purity>
95

> <URL>
https://www.enaminestore.com/catalog/EN300-21680464

> <ROCS_ShapeQuery>
amalgated

> <ROCS_TanimotoCombo>
0.829 

> <ROCS_ShapeTanimoto>
0.540 

> <ROCS_ColorTanimoto>
0.290 

> <ROCS_RefTversky>
0.502 

> <ROCS_RefColorTversky>
0.423 

> <ROCS_RefTverskyCombo>
0.925 

> <ROCS_FitTversky>
1.160 

> <ROCS_FitColorTversky>
0.479 

> <ROCS_FitTverskyCombo>
1.639 

> <ROCS_ColorScore>
-2.943

> <ROCS_Overlap>
822.962

> <ROCS_Rank>
318                 

$$$$
untitled-dbase-51050_33
  -OEChem-10092318153D

 35 36  0     1  0  0  0  0  0999 V2000
   -8.4826   -0.2333  -14.5344 C   0  0  0  0  0  0  0  0  0  0  0  0
   -7.4282   -0.6183  -17.9198 C   0  0  0  0  0  0  0  0  0  0  0  0
   -7.6113   -1.3599  -19.2414 C   0  0  0  0  0  0  0  0  0  0  0  0
   -9.3249   -2.8443  -18.4133 C   0  0  0  0  0  0  0  0  0  0  0  0
   -8.6750   -2.4047  -15.8738 C   0  0  0  0  0  0  0  0  0  0  0  0
   -9.4687   -2.0209  -17.1409 C   0  0  1  0  0  0  0  0  0  0  0  0
   -8.7203   -0.6624  -17.1087 C   0  0  1  0  0  0  0  0  0  0  0  0
  -10.1638    0.7734  -12.6914 C   0  0  0  0  0  0  0  0  0  0  0  0
   -9.8809   -1.3539  -11.3861 C   0  0  0  0  0  0  0  0  0  0  0  0
   -8.0363    0.3505  -11.4148 C   0  0  0  0  0  0  0  0  0  0  0  0
   -9.1710   -0.2863  -12.2159 C   0  0  0  0  0  0  0  0  0  0  0  0
   -7.9812   -2.7551  -18.9902 N   0  0  0  0  0  0  0  0  0  0  0  0
   -8.4781   -0.9670  -15.6990 N   0  0  0  0  0  0  0  0  0  0  0  0
   -8.3040    0.9840  -14.5079 O   0  0  0  0  0  0  0  0  0  0  0  0
   -8.6101   -0.9350  -13.3659 O   0  0  0  0  0  0  0  0  0  0  0  0
   -6.5913   -1.0737  -17.3715 H   0  0  0  0  0  0  0  0  0  0  0  0
   -7.1426    0.4235  -18.1106 H   0  0  0  0  0  0  0  0  0  0  0  0
   -8.3625   -0.8658  -19.8706 H   0  0  0  0  0  0  0  0  0  0  0  0
   -6.6644   -1.3393  -19.7932 H   0  0  0  0  0  0  0  0  0  0  0  0
   -9.5553   -3.8937  -18.2018 H   0  0  0  0  0  0  0  0  0  0  0  0
  -10.0570   -2.5045  -19.1560 H   0  0  0  0  0  0  0  0  0  0  0  0
   -9.2605   -2.8716  -15.0807 H   0  0  0  0  0  0  0  0  0  0  0  0
   -7.7349   -2.9390  -16.0260 H   0  0  0  0  0  0  0  0  0  0  0  0
  -10.5380   -1.9077  -16.9043 H   0  0  0  0  0  0  0  0  0  0  0  0
   -9.3791    0.1921  -17.2770 H   0  0  0  0  0  0  0  0  0  0  0  0
   -9.6580    1.5416  -13.2875 H   0  0  0  0  0  0  0  0  0  0  0  0
  -10.9635    0.3343  -13.2966 H   0  0  0  0  0  0  0  0  0  0  0  0
  -10.6191    1.2926  -11.8403 H   0  0  0  0  0  0  0  0  0  0  0  0
   -9.1724   -2.1163  -11.0428 H   0  0  0  0  0  0  0  0  0  0  0  0
  -10.6326   -1.8790  -11.9865 H   0  0  0  0  0  0  0  0  0  0  0  0
  -10.3765   -0.9218  -10.5107 H   0  0  0  0  0  0  0  0  0  0  0  0
   -7.3241   -0.4095  -11.0736 H   0  0  0  0  0  0  0  0  0  0  0  0
   -7.4919    1.0932  -12.0070 H   0  0  0  0  0  0  0  0  0  0  0  0
   -8.4226    0.8393  -10.5131 H   0  0  0  0  0  0  0  0  0  0  0  0
   -7.9685   -3.2677  -19.8715 H   0  0  0  0  0  0  0  0  0  0  0  0
  1 13  1  0  0  0  0
  1 14  2  0  0  0  0
  1 15  1  0  0  0  0
  2  3  1  0  0  0  0
  2  7  1  6  0  0  0
  3 12  1  0  0  0  0
  4  6  1  0  0  0  0
  4 12  1  0  0  0  0
  5  6  1  6  0  0  0
  5 13  1  0  0  0  0
  6  7  1  0  0  0  0
  7 13  1  0  0  0  0
  8 11  1  0  0  0  0
  9 11  1  0  0  0  0
 10 11  1  0  0  0  0
 11 15  1  0  0  0  0
  2 16  1  0  0  0  0
  2 17  1  0  0  0  0
  3 18  1  0  0  0  0
  3 19  1  0  0  0  0
  4 20  1  0  0  0  0
  4 21  1  0  0  0  0
  5 22  1  0  0  0  0
  5 23  1  0  0  0  0
  6 24  1  0  0  0  0
  7 25  1  0  0  0  0
  8 26  1  0  0  0  0
  8 27  1  0  0  0  0
  8 28  1  0  0  0  0
  9 29  1  0  0  0  0
  9 30  1  0  0  0  0
  9 31  1  0  0  0  0
 10 32  1  0  0  0  0
 10 33  1  0  0  0  0
 10 34  1  0  0  0  0
 12 35  1  0  0  0  0
M  END
> <id>
EN300-269110

> <smiles>
CC(C)(C)OC(=O)N1C[C@@H]2CNCC[C@@H]21 |&1:9,14,r|

> <MDLNUMBER>
MFCD14581307

> <IUPAC Name>
rac-tert-butyl (1R,6R)-3,7-diazabicyclo[4.2.0]octane-7-carboxylate

> <CAS>
1251020-47-9

> <URL>
https://www.enaminestore.com/catalog/EN300-269110

> <ROCS_ShapeQuery>
amalgated

> <ROCS_TanimotoCombo>
0.829 

> <ROCS_ShapeTanimoto>
0.540 

> <ROCS_ColorTanimoto>
0.290 

> <ROCS_RefTversky>
0.502 

> <ROCS_RefColorTversky>
0.423 

> <ROCS_RefTverskyCombo>
0.925 

> <ROCS_FitTversky>
1.160 

> <ROCS_FitColorTversky>
0.479 

> <ROCS_FitTverskyCombo>
1.639 

> <ROCS_ColorScore>
-2.943

> <ROCS_Overlap>
822.962

> <ROCS_Rank>
319                 

$$$$
untitled-dbase-26837_11
  -OEChem-10092318153D

 33 35  0     1  0  0  0  0  0999 V2000
   -9.4875   -2.3576  -16.6357 C   0  0  0  0  0  0  0  0  0  0  0  0
   -9.1712   -1.3063  -15.8203 C   0  0  0  0  0  0  0  0  0  0  0  0
   -8.1426   -0.6105  -16.4688 C   0  0  0  0  0  0  0  0  0  0  0  0
  -10.1084    0.6732  -12.9632 C   0  0  0  0  0  0  0  0  0  0  0  0
   -7.9675   -0.6905  -13.0382 C   0  0  0  0  0  0  0  0  0  0  0  0
   -8.4581    1.1482  -14.8022 C   0  0  0  0  0  0  0  0  0  0  0  0
  -10.2657   -0.1100  -11.6608 C   0  0  0  0  0  0  0  0  0  0  0  0
   -7.8123   -0.0552  -11.6594 C   0  0  0  0  0  0  0  0  0  0  0  0
   -7.5327    0.6150  -15.9142 C   0  0  2  0  0  0  0  0  0  0  0  0
   -9.0481    0.0249  -13.8906 C   0  0  0  0  0  0  0  0  0  0  0  0
   -8.5586   -3.1320  -18.8324 C   0  0  0  0  0  0  0  0  0  0  0  0
   -7.7908   -1.1891  -17.6198 N   0  0  0  0  0  0  0  0  0  0  0  0
   -8.6280   -2.2461  -17.6949 N   0  0  0  0  0  0  0  0  0  0  0  0
   -9.0379   -0.1150  -10.8627 N   0  0  0  0  0  0  0  0  0  0  0  0
   -9.7614   -0.9960  -14.6481 O   0  0  0  0  0  0  0  0  0  0  0  0
   -7.3373    1.6306  -16.8948 O   0  0  0  0  0  0  0  0  0  0  0  0
  -10.2157   -3.1534  -16.5623 H   0  0  0  0  0  0  0  0  0  0  0  0
  -11.0767    0.6984  -13.4699 H   0  0  0  0  0  0  0  0  0  0  0  0
   -9.8231    1.7039  -12.7342 H   0  0  0  0  0  0  0  0  0  0  0  0
   -7.0049   -0.6602  -13.5644 H   0  0  0  0  0  0  0  0  0  0  0  0
   -8.2228   -1.7464  -12.8960 H   0  0  0  0  0  0  0  0  0  0  0  0
   -7.9194    1.8981  -14.2048 H   0  0  0  0  0  0  0  0  0  0  0  0
   -9.2902    1.6932  -15.2773 H   0  0  0  0  0  0  0  0  0  0  0  0
  -11.0719    0.3381  -11.0619 H   0  0  0  0  0  0  0  0  0  0  0  0
  -10.5811   -1.1450  -11.8634 H   0  0  0  0  0  0  0  0  0  0  0  0
   -6.9844   -0.5280  -11.1035 H   0  0  0  0  0  0  0  0  0  0  0  0
   -7.5229    1.0017  -11.7766 H   0  0  0  0  0  0  0  0  0  0  0  0
   -6.5442    0.3671  -15.4922 H   0  0  0  0  0  0  0  0  0  0  0  0
   -9.2369   -2.7495  -19.5996 H   0  0  0  0  0  0  0  0  0  0  0  0
   -7.5325   -3.1610  -19.2092 H   0  0  0  0  0  0  0  0  0  0  0  0
   -8.8558   -4.1385  -18.5251 H   0  0  0  0  0  0  0  0  0  0  0  0
   -9.0568    0.6951  -10.2263 H   0  0  0  0  0  0  0  0  0  0  0  0
   -6.7477    1.2567  -17.5686 H   0  0  0  0  0  0  0  0  0  0  0  0
  1  2  2  0  0  0  0
  1 13  1  0  0  0  0
  2  3  1  0  0  0  0
  2 15  1  0  0  0  0
  3  9  1  0  0  0  0
  3 12  2  0  0  0  0
  4  7  1  0  0  0  0
  4 10  1  0  0  0  0
  5  8  1  0  0  0  0
  5 10  1  0  0  0  0
  6  9  1  0  0  0  0
  6 10  1  0  0  0  0
  7 14  1  0  0  0  0
  8 14  1  0  0  0  0
  9 16  1  0  0  0  0
 10 15  1  0  0  0  0
 11 13  1  0  0  0  0
 12 13  1  0  0  0  0
  1 17  1  0  0  0  0
  4 18  1  0  0  0  0
  4 19  1  0  0  0  0
  5 20  1  0  0  0  0
  5 21  1  0  0  0  0
  6 22  1  0  0  0  0
  6 23  1  0  0  0  0
  7 24  1  0  0  0  0
  7 25  1  0  0  0  0
  8 26  1  0  0  0  0
  8 27  1  0  0  0  0
  9 28  1  0  0  0  0
 11 29  1  0  0  0  0
 11 30  1  0  0  0  0
 11 31  1  0  0  0  0
 14 32  1  0  0  0  0
 16 33  1  0  0  0  0
M  END
> <id>
EN300-6504246

> <smiles>
CN1C=C2OC3(CCNCC3)CC(O)C2=N1

> <MDLNUMBER>
MFCD32066453

> <IUPAC Name>
2'-methyl-6',7'-dihydro-2'H-spiro[piperidine-4,5'-pyrano[3,2-c]pyrazole]-7'-ol

> <CAS>
2361643-74-3

> <Purity>
90

> <URL>
https://www.enaminestore.com/catalog/EN300-6504246

> <ROCS_ShapeQuery>
amalgated

> <ROCS_TanimotoCombo>
0.829 

> <ROCS_ShapeTanimoto>
0.584 

> <ROCS_ColorTanimoto>
0.245 

> <ROCS_RefTversky>
0.544 

> <ROCS_RefColorTversky>
0.445 

> <ROCS_RefTverskyCombo>
0.988 

> <ROCS_FitTversky>
1.145 

> <ROCS_FitColorTversky>
0.354 

> <ROCS_FitTverskyCombo>
1.499 

> <ROCS_ColorScore>
-3.157

> <ROCS_Overlap>
892.969

> <ROCS_Rank>
320                 

$$$$
untitled-dbase-12097_28
  -OEChem-10092318153D

 51 53  0     1  0  0  0  0  0999 V2000
   -8.3616   -0.0424  -14.0489 C   0  0  0  0  0  0  0  0  0  0  0  0
  -10.7326   -3.2358  -15.0232 C   0  0  0  0  0  0  0  0  0  0  0  0
   -9.5986   -3.4029  -13.9997 C   0  0  0  0  0  0  0  0  0  0  0  0
  -10.3644   -3.4129  -16.5031 C   0  0  0  0  0  0  0  0  0  0  0  0
   -6.6455   -0.8236  -17.1974 C   0  0  0  0  0  0  0  0  0  0  0  0
   -8.1571    0.5385  -17.9460 C   0  0  0  0  0  0  0  0  0  0  0  0
   -8.3424   -2.5170  -14.1261 C   0  0  0  0  0  0  0  0  0  0  0  0
   -9.0982   -2.6517  -16.8424 C   0  0  2  0  0  0  0  0  0  0  0  0
   -6.6370    0.3454  -18.2271 C   0  0  0  0  0  0  0  0  0  0  0  0
   -9.0454   -1.2143  -16.1977 C   0  0  2  0  0  0  0  0  0  0  0  0
   -8.8652   -1.9329  -18.2035 C   0  0  1  0  0  0  0  0  0  0  0  0
   -8.1498   -0.8622  -17.3721 C   0  0  0  0  0  0  0  0  0  0  0  0
   -5.7400    1.5224  -17.9004 C   0  0  0  0  0  0  0  0  0  0  0  0
  -10.3009    0.2248  -12.3007 C   0  0  0  0  0  0  0  0  0  0  0  0
   -8.7881   -0.7471  -10.5468 C   0  0  0  0  0  0  0  0  0  0  0  0
   -8.4237    1.6049  -11.3489 C   0  0  0  0  0  0  0  0  0  0  0  0
   -8.8792    0.2001  -11.7412 C   0  0  0  0  0  0  0  0  0  0  0  0
   -8.5426   -1.2205  -14.7883 N   0  0  0  0  0  0  0  0  0  0  0  0
   -7.9451   -2.7256  -19.0054 N   0  0  0  0  0  0  0  0  0  0  0  0
   -8.5010    1.0939  -14.4962 O   0  0  0  0  0  0  0  0  0  0  0  0
   -7.9991   -0.2980  -12.7550 O   0  0  0  0  0  0  0  0  0  0  0  0
  -11.5447   -3.9389  -14.7681 H   0  0  0  0  0  0  0  0  0  0  0  0
  -11.1665   -2.2290  -14.8997 H   0  0  0  0  0  0  0  0  0  0  0  0
  -10.0095   -3.3345  -12.9633 H   0  0  0  0  0  0  0  0  0  0  0  0
   -9.2572   -4.4618  -14.0738 H   0  0  0  0  0  0  0  0  0  0  0  0
  -10.2170   -4.4849  -16.6984 H   0  0  0  0  0  0  0  0  0  0  0  0
  -11.2029   -3.0943  -17.1392 H   0  0  0  0  0  0  0  0  0  0  0  0
   -6.0620   -1.7002  -17.4862 H   0  0  0  0  0  0  0  0  0  0  0  0
   -6.3040   -0.5218  -16.2012 H   0  0  0  0  0  0  0  0  0  0  0  0
   -8.3896    1.3398  -17.2403 H   0  0  0  0  0  0  0  0  0  0  0  0
   -8.7651    0.6973  -18.8422 H   0  0  0  0  0  0  0  0  0  0  0  0
   -7.9619   -2.3408  -13.1041 H   0  0  0  0  0  0  0  0  0  0  0  0
   -7.5228   -3.0473  -14.6442 H   0  0  0  0  0  0  0  0  0  0  0  0
   -8.2047   -3.2701  -16.5659 H   0  0  0  0  0  0  0  0  0  0  0  0
   -6.4533   -0.0102  -19.2485 H   0  0  0  0  0  0  0  0  0  0  0  0
  -10.0103   -0.6897  -16.2327 H   0  0  0  0  0  0  0  0  0  0  0  0
   -9.7656   -1.6117  -18.7152 H   0  0  0  0  0  0  0  0  0  0  0  0
   -5.9269    1.8728  -16.8823 H   0  0  0  0  0  0  0  0  0  0  0  0
   -5.9278    2.3478  -18.5915 H   0  0  0  0  0  0  0  0  0  0  0  0
   -4.6889    1.2341  -17.9810 H   0  0  0  0  0  0  0  0  0  0  0  0
  -10.3705    0.9036  -13.1582 H   0  0  0  0  0  0  0  0  0  0  0  0
  -10.6267   -0.7711  -12.6182 H   0  0  0  0  0  0  0  0  0  0  0  0
  -11.0092    0.5984  -11.5524 H   0  0  0  0  0  0  0  0  0  0  0  0
   -7.7697   -0.7679  -10.1422 H   0  0  0  0  0  0  0  0  0  0  0  0
   -9.0227   -1.7753  -10.8453 H   0  0  0  0  0  0  0  0  0  0  0  0
   -9.4737   -0.4538   -9.7453 H   0  0  0  0  0  0  0  0  0  0  0  0
   -7.4039    1.5875  -10.9476 H   0  0  0  0  0  0  0  0  0  0  0  0
   -8.4473    2.2897  -12.2028 H   0  0  0  0  0  0  0  0  0  0  0  0
   -9.0608    2.0141  -10.5566 H   0  0  0  0  0  0  0  0  0  0  0  0
   -8.4180   -3.5454  -19.3083 H   0  0  0  0  0  0  0  0  0  0  0  0
   -7.6592   -2.1805  -19.7856 H   0  0  0  0  0  0  0  0  0  0  0  0
  1 18  1  0  0  0  0
  1 20  2  0  0  0  0
  1 21  1  0  0  0  0
  2  3  1  0  0  0  0
  2  4  1  0  0  0  0
  3  7  1  0  0  0  0
  4  8  1  0  0  0  0
  5  9  1  0  0  0  0
  5 12  1  0  0  0  0
  6  9  1  0  0  0  0
  6 12  1  0  0  0  0
  7 18  1  0  0  0  0
  8 10  1  0  0  0  0
  8 11  1  0  0  0  0
  9 13  1  0  0  0  0
 10 12  1  0  0  0  0
 10 18  1  0  0  0  0
 11 12  1  0  0  0  0
 11 19  1  0  0  0  0
 14 17  1  0  0  0  0
 15 17  1  0  0  0  0
 16 17  1  0  0  0  0
 17 21  1  0  0  0  0
  2 22  1  0  0  0  0
  2 23  1  0  0  0  0
  3 24  1  0  0  0  0
  3 25  1  0  0  0  0
  4 26  1  0  0  0  0
  4 27  1  0  0  0  0
  5 28  1  0  0  0  0
  5 29  1  0  0  0  0
  6 30  1  0  0  0  0
  6 31  1  0  0  0  0
  7 32  1  0  0  0  0
  7 33  1  0  0  0  0
  8 34  1  0  0  0  0
  9 35  1  0  0  0  0
 10 36  1  0  0  0  0
 11 37  1  0  0  0  0
 13 38  1  0  0  0  0
 13 39  1  0  0  0  0
 13 40  1  0  0  0  0
 14 41  1  0  0  0  0
 14 42  1  0  0  0  0
 14 43  1  0  0  0  0
 15 44  1  0  0  0  0
 15 45  1  0  0  0  0
 15 46  1  0  0  0  0
 16 47  1  0  0  0  0
 16 48  1  0  0  0  0
 16 49  1  0  0  0  0
 19 50  1  0  0  0  0
 19 51  1  0  0  0  0
M  END
> <id>
EN300-701145

> <smiles>
CC1CC2(C1)C(N)C3CCCCN(C32)C(=O)OC(C)(C)C

> <IUPAC Name>
tert-butyl 9-amino-3'-methyl-6-azaspiro[bicyclo[5.2.0]nonane-8,1'-cyclobutane]-6-carboxylate

> <CAS>
2137553-00-3

> <URL>
https://www.enaminestore.com/catalog/EN300-701145

> <ROCS_ShapeQuery>
amalgated

> <ROCS_TanimotoCombo>
0.829 

> <ROCS_ShapeTanimoto>
0.558 

> <ROCS_ColorTanimoto>
0.271 

> <ROCS_RefTversky>
0.566 

> <ROCS_RefColorTversky>
0.428 

> <ROCS_RefTverskyCombo>
0.994 

> <ROCS_FitTversky>
0.975 

> <ROCS_FitColorTversky>
0.425 

> <ROCS_FitTverskyCombo>
1.401 

> <ROCS_ColorScore>
-2.998

> <ROCS_Overlap>
934.714

> <ROCS_Rank>
321                 

$$$$
untitled-dbase-29026_7
  -OEChem-10092318153D

 30 32  0     0  0  0  0  0  0999 V2000
   -7.7868   -1.1707  -17.6177 C   0  0  0  0  0  0  0  0  0  0  0  0
   -9.3913   -2.4414  -16.6653 C   0  0  0  0  0  0  0  0  0  0  0  0
   -8.4961   -2.3967  -17.7127 C   0  0  0  0  0  0  0  0  0  0  0  0
   -8.2573   -0.4995  -16.5051 C   0  0  0  0  0  0  0  0  0  0  0  0
   -7.8781    0.7797  -15.9507 C   0  0  0  0  0  0  0  0  0  0  0  0
  -10.0905    0.8122  -12.8938 C   0  0  0  0  0  0  0  0  0  0  0  0
   -8.1245   -0.7921  -13.0861 C   0  0  0  0  0  0  0  0  0  0  0  0
   -9.9996   -0.8638  -14.7951 C   0  0  0  0  0  0  0  0  0  0  0  0
  -10.2604    0.0467  -11.5831 C   0  0  0  0  0  0  0  0  0  0  0  0
   -7.8193   -0.1859  -11.7187 C   0  0  0  0  0  0  0  0  0  0  0  0
   -9.1588    0.0584  -13.8762 C   0  0  0  0  0  0  0  0  0  0  0  0
   -9.2371   -1.2887  -15.9546 N   0  0  0  0  0  0  0  0  0  0  0  0
   -8.4359    1.0530  -14.7053 N   0  0  0  0  0  0  0  0  0  0  0  0
   -8.9980   -0.1017  -10.8555 N   0  0  0  0  0  0  0  0  0  0  0  0
   -7.1333    1.5732  -16.5223 O   0  0  0  0  0  0  0  0  0  0  0  0
   -8.2226   -3.6885  -19.0359 Br  0  0  0  0  0  0  0  0  0  0  0  0
   -7.0197   -0.8087  -18.2893 H   0  0  0  0  0  0  0  0  0  0  0  0
  -10.1098   -3.1944  -16.3705 H   0  0  0  0  0  0  0  0  0  0  0  0
  -11.0759    0.9425  -13.3535 H   0  0  0  0  0  0  0  0  0  0  0  0
   -9.7105    1.8149  -12.6822 H   0  0  0  0  0  0  0  0  0  0  0  0
   -7.2025   -0.8908  -13.6607 H   0  0  0  0  0  0  0  0  0  0  0  0
   -8.5242   -1.7990  -12.9453 H   0  0  0  0  0  0  0  0  0  0  0  0
  -10.2906   -1.7824  -14.2733 H   0  0  0  0  0  0  0  0  0  0  0  0
  -10.9061   -0.3628  -15.1483 H   0  0  0  0  0  0  0  0  0  0  0  0
  -11.0118    0.5336  -10.9415 H   0  0  0  0  0  0  0  0  0  0  0  0
  -10.6534   -0.9567  -11.8053 H   0  0  0  0  0  0  0  0  0  0  0  0
   -7.0639   -0.8093  -11.2147 H   0  0  0  0  0  0  0  0  0  0  0  0
   -7.3606    0.8107  -11.8255 H   0  0  0  0  0  0  0  0  0  0  0  0
   -8.3418    1.9952  -14.3402 H   0  0  0  0  0  0  0  0  0  0  0  0
   -8.8866    0.6939  -10.2118 H   0  0  0  0  0  0  0  0  0  0  0  0
  1  3  1  0  0  0  0
  1  4  2  0  0  0  0
  2  3  2  0  0  0  0
  2 12  1  0  0  0  0
  3 16  1  0  0  0  0
  4  5  1  0  0  0  0
  4 12  1  0  0  0  0
  5 13  1  0  0  0  0
  5 15  2  0  0  0  0
  6  9  1  0  0  0  0
  6 11  1  0  0  0  0
  7 10  1  0  0  0  0
  7 11  1  0  0  0  0
  8 11  1  0  0  0  0
  8 12  1  0  0  0  0
  9 14  1  0  0  0  0
 10 14  1  0  0  0  0
 11 13  1  0  0  0  0
  1 17  1  0  0  0  0
  2 18  1  0  0  0  0
  6 19  1  0  0  0  0
  6 20  1  0  0  0  0
  7 21  1  0  0  0  0
  7 22  1  0  0  0  0
  8 23  1  0  0  0  0
  8 24  1  0  0  0  0
  9 25  1  0  0  0  0
  9 26  1  0  0  0  0
 10 27  1  0  0  0  0
 10 28  1  0  0  0  0
 13 29  1  0  0  0  0
 14 30  1  0  0  0  0
M  END
> <id>
EN300-7437873

> <smiles>
BrC=1C=C2C(=O)NC3(CCNCC3)CN2C1

> <MDLNUMBER>
MFCD32069048

> <IUPAC Name>
7'-bromo-2',4'-dihydro-1'H-spiro[piperidine-4,3'-pyrrolo[1,2-a]pyrazine]-1'-one

> <CAS>
1857836-69-1

> <URL>
https://www.enaminestore.com/catalog/EN300-7437873

> <ROCS_ShapeQuery>
amalgated

> <ROCS_TanimotoCombo>
0.829 

> <ROCS_ShapeTanimoto>
0.561 

> <ROCS_ColorTanimoto>
0.268 

> <ROCS_RefTversky>
0.528 

> <ROCS_RefColorTversky>
0.450 

> <ROCS_RefTverskyCombo>
0.978 

> <ROCS_FitTversky>
1.127 

> <ROCS_FitColorTversky>
0.398 

> <ROCS_FitTverskyCombo>
1.526 

> <ROCS_ColorScore>
-3.175

> <ROCS_Overlap>
866.187

> <ROCS_Rank>
322                 

$$$$
untitled-dbase-34514_166
  -OEChem-10092318153D

 35 36  0     0  0  0  0  0  0999 V2000
   -8.7619    0.2544  -13.2061 C   0  0  0  0  0  0  0  0  0  0  0  0
   -7.5927   -1.2166  -17.1475 C   0  0  0  0  0  0  0  0  0  0  0  0
   -9.4743   -2.2784  -17.1074 C   0  0  0  0  0  0  0  0  0  0  0  0
   -8.4664   -1.7637  -14.7583 C   0  0  0  0  0  0  0  0  0  0  0  0
   -9.4340   -0.0860  -15.7115 C   0  0  0  0  0  0  0  0  0  0  0  0
   -8.5985   -1.6741  -18.2374 C   0  0  0  0  0  0  0  0  0  0  0  0
   -8.7439   -1.3438  -16.1697 C   0  0  0  0  0  0  0  0  0  0  0  0
  -10.9743    0.0633  -11.6479 C   0  0  0  0  0  0  0  0  0  0  0  0
   -9.7618   -1.6692  -10.2923 C   0  0  0  0  0  0  0  0  0  0  0  0
   -9.1572    0.7566  -10.0504 C   0  0  0  0  0  0  0  0  0  0  0  0
   -9.6410   -0.3277  -11.0122 C   0  0  0  0  0  0  0  0  0  0  0  0
   -8.9587   -0.4390  -14.3771 N   0  0  0  0  0  0  0  0  0  0  0  0
   -8.0050   -2.7556  -19.0114 N   0  0  0  0  0  0  0  0  0  0  0  0
   -8.7324    1.4838  -13.1547 O   0  0  0  0  0  0  0  0  0  0  0  0
   -8.6652   -0.4825  -12.0552 O   0  0  0  0  0  0  0  0  0  0  0  0
   -6.7644   -1.9068  -16.9460 H   0  0  0  0  0  0  0  0  0  0  0  0
   -7.1810   -0.2134  -17.2883 H   0  0  0  0  0  0  0  0  0  0  0  0
  -10.5510   -2.1166  -17.2196 H   0  0  0  0  0  0  0  0  0  0  0  0
   -9.3058   -3.3418  -16.8935 H   0  0  0  0  0  0  0  0  0  0  0  0
   -9.0841   -2.5715  -14.3588 H   0  0  0  0  0  0  0  0  0  0  0  0
   -7.4178   -1.9140  -14.4908 H   0  0  0  0  0  0  0  0  0  0  0  0
   -9.0187    0.8595  -16.0701 H   0  0  0  0  0  0  0  0  0  0  0  0
  -10.5251   -0.0729  -15.7800 H   0  0  0  0  0  0  0  0  0  0  0  0
   -9.0650   -0.8689  -18.8129 H   0  0  0  0  0  0  0  0  0  0  0  0
  -10.8918    1.0257  -12.1656 H   0  0  0  0  0  0  0  0  0  0  0  0
  -11.3151   -0.6897  -12.3659 H   0  0  0  0  0  0  0  0  0  0  0  0
  -11.7500    0.1889  -10.8838 H   0  0  0  0  0  0  0  0  0  0  0  0
   -8.8074   -1.9537   -9.8347 H   0  0  0  0  0  0  0  0  0  0  0  0
  -10.0166   -2.4688  -10.9972 H   0  0  0  0  0  0  0  0  0  0  0  0
  -10.5266   -1.6402   -9.5096 H   0  0  0  0  0  0  0  0  0  0  0  0
   -8.2008    0.4763   -9.5942 H   0  0  0  0  0  0  0  0  0  0  0  0
   -9.0294    1.7181  -10.5580 H   0  0  0  0  0  0  0  0  0  0  0  0
   -9.8661    0.8899   -9.2251 H   0  0  0  0  0  0  0  0  0  0  0  0
   -7.0363   -2.8031  -18.7944 H   0  0  0  0  0  0  0  0  0  0  0  0
   -8.4588   -3.6045  -18.7644 H   0  0  0  0  0  0  0  0  0  0  0  0
  1 12  1  0  0  0  0
  1 14  2  0  0  0  0
  1 15  1  0  0  0  0
  2  6  1  0  0  0  0
  2  7  1  0  0  0  0
  3  6  1  0  0  0  0
  3  7  1  0  0  0  0
  4  7  1  0  0  0  0
  4 12  1  0  0  0  0
  5  7  1  0  0  0  0
  5 12  1  0  0  0  0
  6 13  1  0  0  0  0
  8 11  1  0  0  0  0
  9 11  1  0  0  0  0
 10 11  1  0  0  0  0
 11 15  1  0  0  0  0
  2 16  1  0  0  0  0
  2 17  1  0  0  0  0
  3 18  1  0  0  0  0
  3 19  1  0  0  0  0
  4 20  1  0  0  0  0
  4 21  1  0  0  0  0
  5 22  1  0  0  0  0
  5 23  1  0  0  0  0
  6 24  1  0  0  0  0
  8 25  1  0  0  0  0
  8 26  1  0  0  0  0
  8 27  1  0  0  0  0
  9 28  1  0  0  0  0
  9 29  1  0  0  0  0
  9 30  1  0  0  0  0
 10 31  1  0  0  0  0
 10 32  1  0  0  0  0
 10 33  1  0  0  0  0
 13 34  1  0  0  0  0
 13 35  1  0  0  0  0
M  END
> <id>
EN300-59776

> <smiles>
CC(C)(C)OC(=O)N1CC2(CC(N)C2)C1

> <MDLNUMBER>
MFCD15071432

> <IUPAC Name>
tert-butyl 6-amino-2-azaspiro[3.3]heptane-2-carboxylate

> <CAS>
1211586-09-2

> <Purity>
95

> <URL>
https://www.enaminestore.com/catalog/EN300-59776

> <MP>
50-53

> <ROCS_ShapeQuery>
amalgated

> <ROCS_TanimotoCombo>
0.829 

> <ROCS_ShapeTanimoto>
0.528 

> <ROCS_ColorTanimoto>
0.301 

> <ROCS_RefTversky>
0.496 

> <ROCS_RefColorTversky>
0.433 

> <ROCS_RefTverskyCombo>
0.929 

> <ROCS_FitTversky>
1.142 

> <ROCS_FitColorTversky>
0.496 

> <ROCS_FitTverskyCombo>
1.638 

> <ROCS_ColorScore>
-3.012

> <ROCS_Overlap>
811.954

> <ROCS_Rank>
323                 

$$$$
untitled-dbase-34900_166
  -OEChem-10092318153D

 35 36  0     0  0  0  0  0  0999 V2000
   -8.7619    0.2544  -13.2061 C   0  0  0  0  0  0  0  0  0  0  0  0
   -7.5927   -1.2166  -17.1475 C   0  0  0  0  0  0  0  0  0  0  0  0
   -9.4743   -2.2784  -17.1074 C   0  0  0  0  0  0  0  0  0  0  0  0
   -8.4664   -1.7637  -14.7583 C   0  0  0  0  0  0  0  0  0  0  0  0
   -9.4340   -0.0860  -15.7115 C   0  0  0  0  0  0  0  0  0  0  0  0
   -8.5985   -1.6741  -18.2374 C   0  0  0  0  0  0  0  0  0  0  0  0
   -8.7439   -1.3438  -16.1697 C   0  0  0  0  0  0  0  0  0  0  0  0
  -10.9743    0.0633  -11.6479 C   0  0  0  0  0  0  0  0  0  0  0  0
   -9.7618   -1.6692  -10.2923 C   0  0  0  0  0  0  0  0  0  0  0  0
   -9.1572    0.7566  -10.0504 C   0  0  0  0  0  0  0  0  0  0  0  0
   -9.6410   -0.3277  -11.0122 C   0  0  0  0  0  0  0  0  0  0  0  0
   -8.9587   -0.4390  -14.3771 N   0  0  0  0  0  0  0  0  0  0  0  0
   -8.0050   -2.7556  -19.0114 N   0  0  0  0  0  0  0  0  0  0  0  0
   -8.7324    1.4838  -13.1547 O   0  0  0  0  0  0  0  0  0  0  0  0
   -8.6652   -0.4825  -12.0552 O   0  0  0  0  0  0  0  0  0  0  0  0
   -6.7644   -1.9068  -16.9460 H   0  0  0  0  0  0  0  0  0  0  0  0
   -7.1810   -0.2134  -17.2883 H   0  0  0  0  0  0  0  0  0  0  0  0
  -10.5510   -2.1166  -17.2196 H   0  0  0  0  0  0  0  0  0  0  0  0
   -9.3058   -3.3418  -16.8935 H   0  0  0  0  0  0  0  0  0  0  0  0
   -9.0841   -2.5715  -14.3588 H   0  0  0  0  0  0  0  0  0  0  0  0
   -7.4178   -1.9140  -14.4908 H   0  0  0  0  0  0  0  0  0  0  0  0
   -9.0187    0.8595  -16.0701 H   0  0  0  0  0  0  0  0  0  0  0  0
  -10.5251   -0.0729  -15.7800 H   0  0  0  0  0  0  0  0  0  0  0  0
   -9.0650   -0.8689  -18.8129 H   0  0  0  0  0  0  0  0  0  0  0  0
  -10.8918    1.0257  -12.1656 H   0  0  0  0  0  0  0  0  0  0  0  0
  -11.3151   -0.6897  -12.3659 H   0  0  0  0  0  0  0  0  0  0  0  0
  -11.7500    0.1889  -10.8838 H   0  0  0  0  0  0  0  0  0  0  0  0
   -8.8074   -1.9537   -9.8347 H   0  0  0  0  0  0  0  0  0  0  0  0
  -10.0166   -2.4688  -10.9972 H   0  0  0  0  0  0  0  0  0  0  0  0
  -10.5266   -1.6402   -9.5096 H   0  0  0  0  0  0  0  0  0  0  0  0
   -8.2008    0.4763   -9.5942 H   0  0  0  0  0  0  0  0  0  0  0  0
   -9.0294    1.7181  -10.5580 H   0  0  0  0  0  0  0  0  0  0  0  0
   -9.8661    0.8899   -9.2251 H   0  0  0  0  0  0  0  0  0  0  0  0
   -7.0363   -2.8031  -18.7944 H   0  0  0  0  0  0  0  0  0  0  0  0
   -8.4588   -3.6045  -18.7644 H   0  0  0  0  0  0  0  0  0  0  0  0
  1 12  1  0  0  0  0
  1 14  2  0  0  0  0
  1 15  1  0  0  0  0
  2  6  1  0  0  0  0
  2  7  1  0  0  0  0
  3  6  1  0  0  0  0
  3  7  1  0  0  0  0
  4  7  1  0  0  0  0
  4 12  1  0  0  0  0
  5  7  1  0  0  0  0
  5 12  1  0  0  0  0
  6 13  1  0  0  0  0
  8 11  1  0  0  0  0
  9 11  1  0  0  0  0
 10 11  1  0  0  0  0
 11 15  1  0  0  0  0
  2 16  1  0  0  0  0
  2 17  1  0  0  0  0
  3 18  1  0  0  0  0
  3 19  1  0  0  0  0
  4 20  1  0  0  0  0
  4 21  1  0  0  0  0
  5 22  1  0  0  0  0
  5 23  1  0  0  0  0
  6 24  1  0  0  0  0
  8 25  1  0  0  0  0
  8 26  1  0  0  0  0
  8 27  1  0  0  0  0
  9 28  1  0  0  0  0
  9 29  1  0  0  0  0
  9 30  1  0  0  0  0
 10 31  1  0  0  0  0
 10 32  1  0  0  0  0
 10 33  1  0  0  0  0
 13 34  1  0  0  0  0
 13 35  1  0  0  0  0
M  END
> <id>
EN300-2009937

> <smiles>
Cl.CC(C)(C)OC(=O)N1CC2(CC(N)C2)C1

> <MDLNUMBER>
MFCD22689232

> <IUPAC Name>
tert-butyl 6-amino-2-azaspiro[3.3]heptane-2-carboxylate hydrochloride

> <CAS>
1414958-13-6

> <Purity>
95

> <URL>
https://www.enaminestore.com/catalog/EN300-2009937

> <Saltdate>
Cl

> <ROCS_ShapeQuery>
amalgated

> <ROCS_TanimotoCombo>
0.829 

> <ROCS_ShapeTanimoto>
0.528 

> <ROCS_ColorTanimoto>
0.301 

> <ROCS_RefTversky>
0.496 

> <ROCS_RefColorTversky>
0.433 

> <ROCS_RefTverskyCombo>
0.929 

> <ROCS_FitTversky>
1.142 

> <ROCS_FitColorTversky>
0.496 

> <ROCS_FitTverskyCombo>
1.638 

> <ROCS_ColorScore>
-3.012

> <ROCS_Overlap>
811.954

> <ROCS_Rank>
324                 

$$$$
untitled-dbase-3337_0
  -OEChem-10092318153D

 27 29  0     0  0  0  0  0  0999 V2000
   -6.1221    3.4754  -18.2778 C   0  0  0  0  0  0  0  0  0  0  0  0
   -6.1663    2.6708  -19.4075 C   0  0  0  0  0  0  0  0  0  0  0  0
   -6.6145    2.9937  -17.0676 C   0  0  0  0  0  0  0  0  0  0  0  0
   -6.6987    1.3821  -19.3262 C   0  0  0  0  0  0  0  0  0  0  0  0
   -7.6542    1.2422  -15.7448 C   0  0  0  0  0  0  0  0  0  0  0  0
   -8.2085   -0.0289  -15.6304 C   0  0  0  0  0  0  0  0  0  0  0  0
   -7.1552    1.7006  -16.9704 C   0  0  0  0  0  0  0  0  0  0  0  0
   -7.2007    0.8591  -18.1117 C   0  0  0  0  0  0  0  0  0  0  0  0
   -8.2742   -0.8736  -16.7409 C   0  0  0  0  0  0  0  0  0  0  0  0
   -7.7469   -0.4514  -17.9799 C   0  0  0  0  0  0  0  0  0  0  0  0
   -8.8639   -2.2525  -16.5787 C   0  0  0  0  0  0  0  0  0  0  0  0
   -7.8324   -1.3910  -19.1710 C   0  0  0  0  0  0  0  0  0  0  0  0
   -9.2320   -2.8923  -17.9138 C   0  0  0  0  0  0  0  0  0  0  0  0
   -8.0989   -2.7928  -18.8270 N   0  0  0  0  0  0  0  0  0  0  0  0
   -5.7098    4.4781  -18.3376 H   0  0  0  0  0  0  0  0  0  0  0  0
   -5.7880    3.0418  -20.3555 H   0  0  0  0  0  0  0  0  0  0  0  0
   -6.5744    3.6433  -16.1950 H   0  0  0  0  0  0  0  0  0  0  0  0
   -6.7180    0.7923  -20.2397 H   0  0  0  0  0  0  0  0  0  0  0  0
   -7.6220    1.8766  -14.8611 H   0  0  0  0  0  0  0  0  0  0  0  0
   -8.5920   -0.3565  -14.6673 H   0  0  0  0  0  0  0  0  0  0  0  0
   -8.1295   -2.8798  -16.0577 H   0  0  0  0  0  0  0  0  0  0  0  0
   -9.7634   -2.2018  -15.9534 H   0  0  0  0  0  0  0  0  0  0  0  0
   -8.6135   -1.0251  -19.8492 H   0  0  0  0  0  0  0  0  0  0  0  0
   -6.8792   -1.3834  -19.7100 H   0  0  0  0  0  0  0  0  0  0  0  0
   -9.4813   -3.9467  -17.7519 H   0  0  0  0  0  0  0  0  0  0  0  0
  -10.1194   -2.4145  -18.3480 H   0  0  0  0  0  0  0  0  0  0  0  0
   -8.3005   -3.3115  -19.6812 H   0  0  0  0  0  0  0  0  0  0  0  0
  1  2  1  0  0  0  0
  1  3  2  0  0  0  0
  2  4  2  0  0  0  0
  3  7  1  0  0  0  0
  4  8  1  0  0  0  0
  5  6  1  0  0  0  0
  5  7  2  0  0  0  0
  6  9  2  0  0  0  0
  7  8  1  0  0  0  0
  8 10  2  0  0  0  0
  9 10  1  0  0  0  0
  9 11  1  0  0  0  0
 10 12  1  0  0  0  0
 11 13  1  0  0  0  0
 12 14  1  0  0  0  0
 13 14  1  0  0  0  0
  1 15  1  0  0  0  0
  2 16  1  0  0  0  0
  3 17  1  0  0  0  0
  4 18  1  0  0  0  0
  5 19  1  0  0  0  0
  6 20  1  0  0  0  0
 11 21  1  0  0  0  0
 11 22  1  0  0  0  0
 12 23  1  0  0  0  0
 12 24  1  0  0  0  0
 13 25  1  0  0  0  0
 13 26  1  0  0  0  0
 14 27  1  0  0  0  0
M  END
> <id>
EN300-122006

> <smiles>
C1CC=2C=CC=3C=CC=CC3C2CN1

> <MDLNUMBER>
MFCD20306704

> <IUPAC Name>
1H,2H,3H,4H-benzo[h]isoquinoline

> <CAS>
109220-61-3

> <URL>
https://www.enaminestore.com/catalog/EN300-122006

> <ROCS_ShapeQuery>
amalgated

> <ROCS_TanimotoCombo>
0.829 

> <ROCS_ShapeTanimoto>
0.425 

> <ROCS_ColorTanimoto>
0.403 

> <ROCS_RefTversky>
0.425 

> <ROCS_RefColorTversky>
0.500 

> <ROCS_RefTverskyCombo>
0.925 

> <ROCS_FitTversky>
1.000 

> <ROCS_FitColorTversky>
0.675 

> <ROCS_FitTverskyCombo>
1.675 

> <ROCS_ColorScore>
-3.451

> <ROCS_Overlap>
695.370

> <ROCS_Rank>
325                 

$$$$
untitled-dbase-40241_0
  -OEChem-10092318153D

 27 29  0     0  0  0  0  0  0999 V2000
   -6.1221    3.4754  -18.2778 C   0  0  0  0  0  0  0  0  0  0  0  0
   -6.1663    2.6708  -19.4075 C   0  0  0  0  0  0  0  0  0  0  0  0
   -6.6145    2.9937  -17.0676 C   0  0  0  0  0  0  0  0  0  0  0  0
   -6.6987    1.3821  -19.3262 C   0  0  0  0  0  0  0  0  0  0  0  0
   -7.6542    1.2422  -15.7448 C   0  0  0  0  0  0  0  0  0  0  0  0
   -8.2085   -0.0289  -15.6304 C   0  0  0  0  0  0  0  0  0  0  0  0
   -7.1552    1.7006  -16.9704 C   0  0  0  0  0  0  0  0  0  0  0  0
   -7.2007    0.8591  -18.1117 C   0  0  0  0  0  0  0  0  0  0  0  0
   -8.2742   -0.8736  -16.7409 C   0  0  0  0  0  0  0  0  0  0  0  0
   -7.7469   -0.4514  -17.9799 C   0  0  0  0  0  0  0  0  0  0  0  0
   -8.8639   -2.2525  -16.5787 C   0  0  0  0  0  0  0  0  0  0  0  0
   -7.8324   -1.3910  -19.1710 C   0  0  0  0  0  0  0  0  0  0  0  0
   -9.2320   -2.8923  -17.9138 C   0  0  0  0  0  0  0  0  0  0  0  0
   -8.0989   -2.7928  -18.8270 N   0  0  0  0  0  0  0  0  0  0  0  0
   -5.7098    4.4781  -18.3376 H   0  0  0  0  0  0  0  0  0  0  0  0
   -5.7880    3.0418  -20.3555 H   0  0  0  0  0  0  0  0  0  0  0  0
   -6.5744    3.6433  -16.1950 H   0  0  0  0  0  0  0  0  0  0  0  0
   -6.7180    0.7923  -20.2397 H   0  0  0  0  0  0  0  0  0  0  0  0
   -7.6220    1.8766  -14.8611 H   0  0  0  0  0  0  0  0  0  0  0  0
   -8.5920   -0.3565  -14.6673 H   0  0  0  0  0  0  0  0  0  0  0  0
   -8.1295   -2.8798  -16.0577 H   0  0  0  0  0  0  0  0  0  0  0  0
   -9.7634   -2.2018  -15.9534 H   0  0  0  0  0  0  0  0  0  0  0  0
   -8.6135   -1.0251  -19.8492 H   0  0  0  0  0  0  0  0  0  0  0  0
   -6.8792   -1.3834  -19.7100 H   0  0  0  0  0  0  0  0  0  0  0  0
   -9.4813   -3.9467  -17.7519 H   0  0  0  0  0  0  0  0  0  0  0  0
  -10.1194   -2.4145  -18.3480 H   0  0  0  0  0  0  0  0  0  0  0  0
   -8.3005   -3.3115  -19.6812 H   0  0  0  0  0  0  0  0  0  0  0  0
  1  2  1  0  0  0  0
  1  3  2  0  0  0  0
  2  4  2  0  0  0  0
  3  7  1  0  0  0  0
  4  8  1  0  0  0  0
  5  6  1  0  0  0  0
  5  7  2  0  0  0  0
  6  9  2  0  0  0  0
  7  8  1  0  0  0  0
  8 10  2  0  0  0  0
  9 10  1  0  0  0  0
  9 11  1  0  0  0  0
 10 12  1  0  0  0  0
 11 13  1  0  0  0  0
 12 14  1  0  0  0  0
 13 14  1  0  0  0  0
  1 15  1  0  0  0  0
  2 16  1  0  0  0  0
  3 17  1  0  0  0  0
  4 18  1  0  0  0  0
  5 19  1  0  0  0  0
  6 20  1  0  0  0  0
 11 21  1  0  0  0  0
 11 22  1  0  0  0  0
 12 23  1  0  0  0  0
 12 24  1  0  0  0  0
 13 25  1  0  0  0  0
 13 26  1  0  0  0  0
 14 27  1  0  0  0  0
M  END
> <id>
EN300-1717748

> <smiles>
Cl.C1CC=2C=CC=3C=CC=CC3C2CN1

> <MDLNUMBER>
MFCD31666180

> <IUPAC Name>
1H,2H,3H,4H-benzo[h]isoquinoline hydrochloride

> <CAS>
2225142-24-3

> <Purity>
95

> <URL>
https://www.enaminestore.com/catalog/EN300-1717748

> <Saltdate>
Cl

> <MP>
275-276

> <ROCS_ShapeQuery>
amalgated

> <ROCS_TanimotoCombo>
0.829 

> <ROCS_ShapeTanimoto>
0.425 

> <ROCS_ColorTanimoto>
0.403 

> <ROCS_RefTversky>
0.425 

> <ROCS_RefColorTversky>
0.500 

> <ROCS_RefTverskyCombo>
0.925 

> <ROCS_FitTversky>
1.000 

> <ROCS_FitColorTversky>
0.675 

> <ROCS_FitTverskyCombo>
1.675 

> <ROCS_ColorScore>
-3.451

> <ROCS_Overlap>
695.370

> <ROCS_Rank>
326                 

$$$$
untitled-dbase-34859_96
  -OEChem-10092318153D

 45 46  0     1  0  0  0  0  0999 V2000
   -8.6866   -0.5721  -14.0499 C   0  0  0  0  0  0  0  0  0  0  0  0
   -8.2759   -2.4340  -16.3394 C   0  0  0  0  0  0  0  0  0  0  0  0
   -9.2034   -0.6401  -17.7981 C   0  0  0  0  0  0  0  0  0  0  0  0
   -8.5328   -3.2861  -17.5930 C   0  0  0  0  0  0  0  0  0  0  0  0
   -8.7528   -1.3917  -19.0626 C   0  0  0  0  0  0  0  0  0  0  0  0
   -8.7564    1.3629  -15.6079 C   0  0  0  0  0  0  0  0  0  0  0  0
   -6.8471   -0.3705  -16.8544 C   0  0  0  0  0  0  0  0  0  0  0  0
   -7.3493    1.8098  -16.0258 C   0  0  2  0  0  0  0  0  0  0  0  0
   -8.2784   -0.8926  -16.5708 C   0  0  0  0  0  0  0  0  0  0  0  0
   -7.3454    3.2727  -16.4468 C   0  0  0  0  0  0  0  0  0  0  0  0
   -7.8542   -0.2732  -11.3213 C   0  0  0  0  0  0  0  0  0  0  0  0
  -10.0229    0.9492  -10.9873 C   0  0  0  0  0  0  0  0  0  0  0  0
  -10.0418   -1.4656  -11.6776 C   0  0  0  0  0  0  0  0  0  0  0  0
   -9.3023   -0.1330  -11.7883 C   0  0  0  0  0  0  0  0  0  0  0  0
   -8.0514   -2.6465  -18.8026 N   0  0  0  0  0  0  0  0  0  0  0  0
   -8.7355   -0.0915  -15.3771 N   0  0  0  0  0  0  0  0  0  0  0  0
   -8.1659   -1.6237  -13.6871 O   0  0  0  0  0  0  0  0  0  0  0  0
   -6.8743    1.0361  -17.1365 O   0  0  0  0  0  0  0  0  0  0  0  0
   -9.3010    0.2752  -13.1616 O   0  0  0  0  0  0  0  0  0  0  0  0
   -9.0487   -2.7405  -15.6151 H   0  0  0  0  0  0  0  0  0  0  0  0
   -7.3176   -2.7475  -15.8786 H   0  0  0  0  0  0  0  0  0  0  0  0
   -9.2576    0.4299  -18.0224 H   0  0  0  0  0  0  0  0  0  0  0  0
  -10.2229   -0.9662  -17.5632 H   0  0  0  0  0  0  0  0  0  0  0  0
   -8.0968   -4.2924  -17.4826 H   0  0  0  0  0  0  0  0  0  0  0  0
   -9.6193   -3.4453  -17.6863 H   0  0  0  0  0  0  0  0  0  0  0  0
   -9.6489   -1.6143  -19.6706 H   0  0  0  0  0  0  0  0  0  0  0  0
   -8.1316   -0.7370  -19.7021 H   0  0  0  0  0  0  0  0  0  0  0  0
   -9.0514    1.8983  -14.7312 H   0  0  0  0  0  0  0  0  0  0  0  0
   -9.4521    1.5285  -16.4092 H   0  0  0  0  0  0  0  0  0  0  0  0
   -6.1810   -0.5461  -16.0110 H   0  0  0  0  0  0  0  0  0  0  0  0
   -6.3992   -0.8419  -17.7224 H   0  0  0  0  0  0  0  0  0  0  0  0
   -6.6488    1.7001  -15.1780 H   0  0  0  0  0  0  0  0  0  0  0  0
   -8.0271    3.4220  -17.2843 H   0  0  0  0  0  0  0  0  0  0  0  0
   -6.3418    3.5710  -16.7507 H   0  0  0  0  0  0  0  0  0  0  0  0
   -7.6644    3.9013  -15.6151 H   0  0  0  0  0  0  0  0  0  0  0  0
   -7.3335   -1.0490  -11.8939 H   0  0  0  0  0  0  0  0  0  0  0  0
   -7.3031    0.6668  -11.4284 H   0  0  0  0  0  0  0  0  0  0  0  0
   -7.8103   -0.5824  -10.2708 H   0  0  0  0  0  0  0  0  0  0  0  0
  -11.0623    1.0531  -11.3190 H   0  0  0  0  0  0  0  0  0  0  0  0
   -9.5511    1.9267  -11.1394 H   0  0  0  0  0  0  0  0  0  0  0  0
  -10.0217    0.7267   -9.9153 H   0  0  0  0  0  0  0  0  0  0  0  0
  -11.0806   -1.3653  -12.0125 H   0  0  0  0  0  0  0  0  0  0  0  0
   -9.5596   -2.2454  -12.2760 H   0  0  0  0  0  0  0  0  0  0  0  0
  -10.0841   -1.8024  -10.6355 H   0  0  0  0  0  0  0  0  0  0  0  0
   -7.0523   -2.4601  -18.7176 H   0  0  0  0  0  0  0  0  0  0  0  0
  1 16  1  0  0  0  0
  1 17  2  0  0  0  0
  1 19  1  0  0  0  0
  2  4  1  0  0  0  0
  2  9  1  0  0  0  0
  3  5  1  0  0  0  0
  3  9  1  0  0  0  0
  4 15  1  0  0  0  0
  5 15  1  0  0  0  0
  6  8  1  0  0  0  0
  6 16  1  0  0  0  0
  7  9  1  0  0  0  0
  7 18  1  0  0  0  0
  8 10  1  0  0  0  0
  8 18  1  0  0  0  0
  9 16  1  0  0  0  0
 11 14  1  0  0  0  0
 12 14  1  0  0  0  0
 13 14  1  0  0  0  0
 14 19  1  0  0  0  0
  2 20  1  0  0  0  0
  2 21  1  0  0  0  0
  3 22  1  0  0  0  0
  3 23  1  0  0  0  0
  4 24  1  0  0  0  0
  4 25  1  0  0  0  0
  5 26  1  0  0  0  0
  5 27  1  0  0  0  0
  6 28  1  0  0  0  0
  6 29  1  0  0  0  0
  7 30  1  0  0  0  0
  7 31  1  0  0  0  0
  8 32  1  0  0  0  0
 10 33  1  0  0  0  0
 10 34  1  0  0  0  0
 10 35  1  0  0  0  0
 11 36  1  0  0  0  0
 11 37  1  0  0  0  0
 11 38  1  0  0  0  0
 12 39  1  0  0  0  0
 12 40  1  0  0  0  0
 12 41  1  0  0  0  0
 13 42  1  0  0  0  0
 13 43  1  0  0  0  0
 13 44  1  0  0  0  0
 15 45  1  0  0  0  0
M  END
> <id>
EN300-6496764

> <smiles>
CC1CN(C(=O)OC(C)(C)C)C2(CCNCC2)CO1

> <MDLNUMBER>
MFCD26696263

> <IUPAC Name>
tert-butyl 3-methyl-4-oxa-1,9-diazaspiro[5.5]undecane-1-carboxylate

> <CAS>
1782213-08-4

> <Purity>
95

> <URL>
https://www.enaminestore.com/catalog/EN300-6496764

> <ROCS_ShapeQuery>
amalgated

> <ROCS_TanimotoCombo>
0.829 

> <ROCS_ShapeTanimoto>
0.600 

> <ROCS_ColorTanimoto>
0.229 

> <ROCS_RefTversky>
0.573 

> <ROCS_RefColorTversky>
0.372 

> <ROCS_RefTverskyCombo>
0.946 

> <ROCS_FitTversky>
1.084 

> <ROCS_FitColorTversky>
0.372 

> <ROCS_FitTverskyCombo>
1.456 

> <ROCS_ColorScore>
-2.606

> <ROCS_Overlap>
944.171

> <ROCS_Rank>
327                 

$$$$
untitled-dbase-23838_17
  -OEChem-10092318153D

 52 55  0     1  0  0  0  0  0999 V2000
   -7.6586   -2.3344  -18.6815 C   0  0  0  0  0  0  0  0  0  0  0  0
   -7.5615   -0.9594  -18.0754 C   0  0  0  0  0  0  0  0  0  0  0  0
   -8.9296    0.9480  -17.1276 C   0  0  0  0  0  0  0  0  0  0  0  0
   -8.2523    1.0878  -15.7656 C   0  0  0  0  0  0  0  0  0  0  0  0
  -10.2405   -1.8608  -14.1272 C   0  0  0  0  0  0  0  0  0  0  0  0
   -9.6085    1.2297  -12.9166 C   0  0  0  0  0  0  0  0  0  0  0  0
   -9.1553   -2.1795  -13.1038 C   0  0  0  0  0  0  0  0  0  0  0  0
  -10.3311    0.5666  -11.7495 C   0  0  0  0  0  0  0  0  0  0  0  0
   -8.8282   -2.8155  -16.6464 C   0  0  0  0  0  0  0  0  0  0  0  0
   -8.9603   -0.4898  -17.6594 C   0  0  2  0  0  0  0  0  0  0  0  0
   -8.4971   -0.1131  -14.8339 C   0  0  2  0  0  0  0  0  0  0  0  0
   -9.7846   -0.8748  -15.2254 C   0  0  1  0  0  0  0  0  0  0  0  0
   -8.4618    0.2869  -13.3451 C   0  0  2  0  0  0  0  0  0  0  0  0
   -8.5181   -0.9490  -12.3923 C   0  0  1  0  0  0  0  0  0  0  0  0
   -9.6385   -1.4969  -16.6644 C   0  0  2  0  0  0  0  0  0  0  0  0
   -9.3099   -0.4022  -11.1581 C   0  0  2  0  0  0  0  0  0  0  0  0
   -7.0858   -1.3713  -11.9858 C   0  0  0  0  0  0  0  0  0  0  0  0
  -11.0548   -1.8124  -17.2111 C   0  0  0  0  0  0  0  0  0  0  0  0
   -9.9747   -1.4444  -10.2654 C   0  0  0  0  0  0  0  0  0  0  0  0
   -7.0928   -2.6469  -19.7231 O   0  0  0  0  0  0  0  0  0  0  0  0
   -8.4162   -3.2100  -17.9697 O   0  0  0  0  0  0  0  0  0  0  0  0
   -8.4483    0.3567  -10.2949 O   0  0  0  0  0  0  0  0  0  0  0  0
   -6.9179   -1.0057  -17.2235 H   0  0  0  0  0  0  0  0  0  0  0  0
   -7.1547   -0.3077  -18.8182 H   0  0  0  0  0  0  0  0  0  0  0  0
   -9.9638    1.3334  -17.0381 H   0  0  0  0  0  0  0  0  0  0  0  0
   -8.4353    1.6257  -17.8503 H   0  0  0  0  0  0  0  0  0  0  0  0
   -7.1679    1.2229  -15.9196 H   0  0  0  0  0  0  0  0  0  0  0  0
   -8.6073    2.0191  -15.2917 H   0  0  0  0  0  0  0  0  0  0  0  0
  -10.6037   -2.7969  -14.5796 H   0  0  0  0  0  0  0  0  0  0  0  0
  -11.0989   -1.4464  -13.5766 H   0  0  0  0  0  0  0  0  0  0  0  0
  -10.3207    1.4150  -13.7312 H   0  0  0  0  0  0  0  0  0  0  0  0
   -9.2051    2.2098  -12.6252 H   0  0  0  0  0  0  0  0  0  0  0  0
   -9.5912   -2.8685  -12.3587 H   0  0  0  0  0  0  0  0  0  0  0  0
   -8.3620   -2.7663  -13.6016 H   0  0  0  0  0  0  0  0  0  0  0  0
  -10.6624    1.3156  -11.0256 H   0  0  0  0  0  0  0  0  0  0  0  0
  -11.2161    0.0448  -12.1242 H   0  0  0  0  0  0  0  0  0  0  0  0
   -7.9347   -2.7482  -16.0403 H   0  0  0  0  0  0  0  0  0  0  0  0
   -9.4352   -3.6273  -16.2615 H   0  0  0  0  0  0  0  0  0  0  0  0
   -9.5791   -0.4711  -18.5795 H   0  0  0  0  0  0  0  0  0  0  0  0
   -7.6485   -0.8045  -14.9818 H   0  0  0  0  0  0  0  0  0  0  0  0
  -10.5865   -0.1106  -15.3254 H   0  0  0  0  0  0  0  0  0  0  0  0
   -7.5225    0.8203  -13.1829 H   0  0  0  0  0  0  0  0  0  0  0  0
   -6.5999   -0.5421  -11.4841 H   0  0  0  0  0  0  0  0  0  0  0  0
   -6.5285   -1.6395  -12.8762 H   0  0  0  0  0  0  0  0  0  0  0  0
   -7.1428   -2.2230  -11.3173 H   0  0  0  0  0  0  0  0  0  0  0  0
  -11.6295   -0.8974  -17.2277 H   0  0  0  0  0  0  0  0  0  0  0  0
  -11.5219   -2.5373  -16.5598 H   0  0  0  0  0  0  0  0  0  0  0  0
  -10.9571   -2.2129  -18.2101 H   0  0  0  0  0  0  0  0  0  0  0  0
   -9.2217   -2.1187   -9.8600 H   0  0  0  0  0  0  0  0  0  0  0  0
  -10.6949   -2.0215  -10.8437 H   0  0  0  0  0  0  0  0  0  0  0  0
  -10.4913   -0.9517   -9.4430 H   0  0  0  0  0  0  0  0  0  0  0  0
   -9.0209    0.7405   -9.6166 H   0  0  0  0  0  0  0  0  0  0  0  0
  1  2  1  0  0  0  0
  1 20  2  0  0  0  0
  1 21  1  0  0  0  0
  2 10  1  0  0  0  0
  3  4  1  0  0  0  0
  3 10  1  1  0  0  0
  4 11  1  0  0  0  0
  5  7  1  0  0  0  0
  5 12  1  0  0  0  0
  6  8  1  0  0  0  0
  6 13  1  0  0  0  0
  7 14  1  0  0  0  0
  8 16  1  0  0  0  0
  9 15  1  0  0  0  0
  9 21  1  0  0  0  0
 10 15  1  0  0  0  0
 11 12  1  0  0  0  0
 11 13  1  0  0  0  0
 12 15  1  0  0  0  0
 13 14  1  0  0  0  0
 14 16  1  0  0  0  0
 14 17  1  0  0  0  0
 15 18  1  0  0  0  0
 16 19  1  6  0  0  0
 16 22  1  0  0  0  0
  2 23  1  0  0  0  0
  2 24  1  0  0  0  0
  3 25  1  0  0  0  0
  3 26  1  0  0  0  0
  4 27  1  0  0  0  0
  4 28  1  0  0  0  0
  5 29  1  0  0  0  0
  5 30  1  0  0  0  0
  6 31  1  0  0  0  0
  6 32  1  0  0  0  0
  7 33  1  0  0  0  0
  7 34  1  0  0  0  0
  8 35  1  0  0  0  0
  8 36  1  0  0  0  0
  9 37  1  0  0  0  0
  9 38  1  0  0  0  0
 10 39  1  0  0  0  0
 11 40  1  0  0  0  0
 12 41  1  0  0  0  0
 13 42  1  0  0  0  0
 17 43  1  0  0  0  0
 17 44  1  0  0  0  0
 17 45  1  0  0  0  0
 18 46  1  0  0  0  0
 18 47  1  0  0  0  0
 18 48  1  0  0  0  0
 19 49  1  0  0  0  0
 19 50  1  0  0  0  0
 19 51  1  0  0  0  0
 22 52  1  0  0  0  0
M  END
> <id>
EN300-27122305

> <smiles>
C[C@]1(O)CCC2C3CC[C@H]4CC(=O)OCC4(C)C3CCC21C

> <IUPAC Name>
(7S,14S)-14-hydroxy-2,14,15-trimethyl-4-oxatetracyclo[8.7.0.0^{2,7}.0^{11,15}]heptadecan-5-one

> <URL>
https://www.enaminestore.com/catalog/EN300-27122305

> <ROCS_ShapeQuery>
amalgated

> <ROCS_TanimotoCombo>
0.829 

> <ROCS_ShapeTanimoto>
0.619 

> <ROCS_ColorTanimoto>
0.209 

> <ROCS_RefTversky>
0.617 

> <ROCS_RefColorTversky>
0.347 

> <ROCS_RefTverskyCombo>
0.964 

> <ROCS_FitTversky>
1.000 

> <ROCS_FitColorTversky>
0.345 

> <ROCS_FitTverskyCombo>
1.345 

> <ROCS_ColorScore>
-2.429

> <ROCS_Overlap>
1020.454

> <ROCS_Rank>
328                 

$$$$
untitled-dbase-45724_249
  -OEChem-10092318153D

 41 42  0     0  0  0  0  0  0999 V2000
   -8.9654    0.1102  -13.2523 C   0  0  0  0  0  0  0  0  0  0  0  0
   -8.4657    0.8136  -16.4898 C   0  0  0  0  0  0  0  0  0  0  0  0
   -8.6897   -0.1523  -17.6510 C   0  0  0  0  0  0  0  0  0  0  0  0
   -9.5927   -1.9525  -16.0024 C   0  0  0  0  0  0  0  0  0  0  0  0
   -7.5907    0.3002  -15.3560 C   0  0  0  0  0  0  0  0  0  0  0  0
   -8.7133   -1.8426  -14.7539 C   0  0  0  0  0  0  0  0  0  0  0  0
   -9.3926   -2.4533  -18.5173 C   0  0  0  0  0  0  0  0  0  0  0  0
   -7.5537   -2.5182  -17.5564 C   0  0  0  0  0  0  0  0  0  0  0  0
   -8.8282   -1.6482  -17.2976 C   0  0  0  0  0  0  0  0  0  0  0  0
  -11.0525    0.2376  -11.2973 C   0  0  0  0  0  0  0  0  0  0  0  0
   -9.6823   -1.4175   -9.9963 C   0  0  0  0  0  0  0  0  0  0  0  0
   -8.7510    0.8618  -10.4921 C   0  0  0  0  0  0  0  0  0  0  0  0
   -9.6416   -0.2699  -11.0031 C   0  0  0  0  0  0  0  0  0  0  0  0
   -8.0054   -2.7107  -18.9472 N   0  0  0  0  0  0  0  0  0  0  0  0
   -8.3970   -0.4636  -14.3993 N   0  0  0  0  0  0  0  0  0  0  0  0
   -9.3204    1.2844  -13.1658 O   0  0  0  0  0  0  0  0  0  0  0  0
   -9.0786   -0.7805  -12.2170 O   0  0  0  0  0  0  0  0  0  0  0  0
   -7.9817    1.7249  -16.8872 H   0  0  0  0  0  0  0  0  0  0  0  0
   -9.4325    1.1639  -16.0847 H   0  0  0  0  0  0  0  0  0  0  0  0
   -9.6218    0.1760  -18.1732 H   0  0  0  0  0  0  0  0  0  0  0  0
   -7.8962   -0.0182  -18.4288 H   0  0  0  0  0  0  0  0  0  0  0  0
  -10.0414   -2.9525  -16.0551 H   0  0  0  0  0  0  0  0  0  0  0  0
  -10.4310   -1.2552  -15.8804 H   0  0  0  0  0  0  0  0  0  0  0  0
   -6.8180   -0.3290  -15.7522 H   0  0  0  0  0  0  0  0  0  0  0  0
   -7.1540    1.1235  -14.8229 H   0  0  0  0  0  0  0  0  0  0  0  0
   -9.1680   -2.3459  -13.8823 H   0  0  0  0  0  0  0  0  0  0  0  0
   -7.7715   -2.3859  -14.9445 H   0  0  0  0  0  0  0  0  0  0  0  0
   -9.9699   -3.3501  -18.2788 H   0  0  0  0  0  0  0  0  0  0  0  0
   -9.9619   -1.8585  -19.2401 H   0  0  0  0  0  0  0  0  0  0  0  0
   -6.5981   -1.9851  -17.4891 H   0  0  0  0  0  0  0  0  0  0  0  0
   -7.4685   -3.4392  -16.9717 H   0  0  0  0  0  0  0  0  0  0  0  0
  -11.0276    1.0614  -12.0196 H   0  0  0  0  0  0  0  0  0  0  0  0
  -11.6915   -0.5564  -11.6974 H   0  0  0  0  0  0  0  0  0  0  0  0
  -11.5219    0.6357  -10.3904 H   0  0  0  0  0  0  0  0  0  0  0  0
   -8.6721   -1.7847   -9.7823 H   0  0  0  0  0  0  0  0  0  0  0  0
  -10.2418   -2.2698  -10.3985 H   0  0  0  0  0  0  0  0  0  0  0  0
  -10.1470   -1.1115   -9.0535 H   0  0  0  0  0  0  0  0  0  0  0  0
   -7.7389    0.4981  -10.2810 H   0  0  0  0  0  0  0  0  0  0  0  0
   -8.6804    1.6784  -11.2179 H   0  0  0  0  0  0  0  0  0  0  0  0
   -9.1372    1.2662   -9.5495 H   0  0  0  0  0  0  0  0  0  0  0  0
   -7.8606   -3.6598  -19.2890 H   0  0  0  0  0  0  0  0  0  0  0  0
  1 15  1  0  0  0  0
  1 16  2  0  0  0  0
  1 17  1  0  0  0  0
  2  3  1  0  0  0  0
  2  5  1  0  0  0  0
  3  9  1  0  0  0  0
  4  6  1  0  0  0  0
  4  9  1  0  0  0  0
  5 15  1  0  0  0  0
  6 15  1  0  0  0  0
  7  9  1  0  0  0  0
  7 14  1  0  0  0  0
  8  9  1  0  0  0  0
  8 14  1  0  0  0  0
 10 13  1  0  0  0  0
 11 13  1  0  0  0  0
 12 13  1  0  0  0  0
 13 17  1  0  0  0  0
  2 18  1  0  0  0  0
  2 19  1  0  0  0  0
  3 20  1  0  0  0  0
  3 21  1  0  0  0  0
  4 22  1  0  0  0  0
  4 23  1  0  0  0  0
  5 24  1  0  0  0  0
  5 25  1  0  0  0  0
  6 26  1  0  0  0  0
  6 27  1  0  0  0  0
  7 28  1  0  0  0  0
  7 29  1  0  0  0  0
  8 30  1  0  0  0  0
  8 31  1  0  0  0  0
 10 32  1  0  0  0  0
 10 33  1  0  0  0  0
 10 34  1  0  0  0  0
 11 35  1  0  0  0  0
 11 36  1  0  0  0  0
 11 37  1  0  0  0  0
 12 38  1  0  0  0  0
 12 39  1  0  0  0  0
 12 40  1  0  0  0  0
 14 41  1  0  0  0  0
M  END
> <id>
EN300-3145077

> <smiles>
CC(C)(C)OC(=O)N1CCCC2(CNC2)CC1

> <MDLNUMBER>
MFCD14581207

> <IUPAC Name>
tert-butyl 2,7-diazaspiro[3.6]decane-7-carboxylate

> <URL>
https://www.enaminestore.com/catalog/EN300-3145077

> <ROCS_ShapeQuery>
amalgated

> <ROCS_TanimotoCombo>
0.828 

> <ROCS_ShapeTanimoto>
0.607 

> <ROCS_ColorTanimoto>
0.221 

> <ROCS_RefTversky>
0.558 

> <ROCS_RefColorTversky>
0.339 

> <ROCS_RefTverskyCombo>
0.896 

> <ROCS_FitTversky>
1.171 

> <ROCS_FitColorTversky>
0.389 

> <ROCS_FitTverskyCombo>
1.560 

> <ROCS_ColorScore>
-2.355

> <ROCS_Overlap>
915.707

> <ROCS_Rank>
329                 

$$$$
untitled-dbase-43495_249
  -OEChem-10092318153D

 41 42  0     0  0  0  0  0  0999 V2000
   -8.9654    0.1102  -13.2523 C   0  0  0  0  0  0  0  0  0  0  0  0
   -8.4657    0.8136  -16.4898 C   0  0  0  0  0  0  0  0  0  0  0  0
   -8.6897   -0.1523  -17.6510 C   0  0  0  0  0  0  0  0  0  0  0  0
   -9.5927   -1.9525  -16.0024 C   0  0  0  0  0  0  0  0  0  0  0  0
   -7.5907    0.3002  -15.3560 C   0  0  0  0  0  0  0  0  0  0  0  0
   -8.7133   -1.8426  -14.7539 C   0  0  0  0  0  0  0  0  0  0  0  0
   -9.3926   -2.4533  -18.5173 C   0  0  0  0  0  0  0  0  0  0  0  0
   -7.5537   -2.5182  -17.5564 C   0  0  0  0  0  0  0  0  0  0  0  0
   -8.8282   -1.6482  -17.2976 C   0  0  0  0  0  0  0  0  0  0  0  0
  -11.0525    0.2376  -11.2973 C   0  0  0  0  0  0  0  0  0  0  0  0
   -9.6823   -1.4175   -9.9963 C   0  0  0  0  0  0  0  0  0  0  0  0
   -8.7510    0.8618  -10.4921 C   0  0  0  0  0  0  0  0  0  0  0  0
   -9.6416   -0.2699  -11.0031 C   0  0  0  0  0  0  0  0  0  0  0  0
   -8.0054   -2.7107  -18.9472 N   0  0  0  0  0  0  0  0  0  0  0  0
   -8.3970   -0.4636  -14.3993 N   0  0  0  0  0  0  0  0  0  0  0  0
   -9.3204    1.2844  -13.1658 O   0  0  0  0  0  0  0  0  0  0  0  0
   -9.0786   -0.7805  -12.2170 O   0  0  0  0  0  0  0  0  0  0  0  0
   -7.9817    1.7249  -16.8872 H   0  0  0  0  0  0  0  0  0  0  0  0
   -9.4325    1.1639  -16.0847 H   0  0  0  0  0  0  0  0  0  0  0  0
   -9.6218    0.1760  -18.1732 H   0  0  0  0  0  0  0  0  0  0  0  0
   -7.8962   -0.0182  -18.4288 H   0  0  0  0  0  0  0  0  0  0  0  0
  -10.0414   -2.9525  -16.0551 H   0  0  0  0  0  0  0  0  0  0  0  0
  -10.4310   -1.2552  -15.8804 H   0  0  0  0  0  0  0  0  0  0  0  0
   -6.8180   -0.3290  -15.7522 H   0  0  0  0  0  0  0  0  0  0  0  0
   -7.1540    1.1235  -14.8229 H   0  0  0  0  0  0  0  0  0  0  0  0
   -9.1680   -2.3459  -13.8823 H   0  0  0  0  0  0  0  0  0  0  0  0
   -7.7715   -2.3859  -14.9445 H   0  0  0  0  0  0  0  0  0  0  0  0
   -9.9699   -3.3501  -18.2788 H   0  0  0  0  0  0  0  0  0  0  0  0
   -9.9619   -1.8585  -19.2401 H   0  0  0  0  0  0  0  0  0  0  0  0
   -6.5981   -1.9851  -17.4891 H   0  0  0  0  0  0  0  0  0  0  0  0
   -7.4685   -3.4392  -16.9717 H   0  0  0  0  0  0  0  0  0  0  0  0
  -11.0276    1.0614  -12.0196 H   0  0  0  0  0  0  0  0  0  0  0  0
  -11.6915   -0.5564  -11.6974 H   0  0  0  0  0  0  0  0  0  0  0  0
  -11.5219    0.6357  -10.3904 H   0  0  0  0  0  0  0  0  0  0  0  0
   -8.6721   -1.7847   -9.7823 H   0  0  0  0  0  0  0  0  0  0  0  0
  -10.2418   -2.2698  -10.3985 H   0  0  0  0  0  0  0  0  0  0  0  0
  -10.1470   -1.1115   -9.0535 H   0  0  0  0  0  0  0  0  0  0  0  0
   -7.7389    0.4981  -10.2810 H   0  0  0  0  0  0  0  0  0  0  0  0
   -8.6804    1.6784  -11.2179 H   0  0  0  0  0  0  0  0  0  0  0  0
   -9.1372    1.2662   -9.5495 H   0  0  0  0  0  0  0  0  0  0  0  0
   -7.8606   -3.6598  -19.2890 H   0  0  0  0  0  0  0  0  0  0  0  0
  1 15  1  0  0  0  0
  1 16  2  0  0  0  0
  1 17  1  0  0  0  0
  2  3  1  0  0  0  0
  2  5  1  0  0  0  0
  3  9  1  0  0  0  0
  4  6  1  0  0  0  0
  4  9  1  0  0  0  0
  5 15  1  0  0  0  0
  6 15  1  0  0  0  0
  7  9  1  0  0  0  0
  7 14  1  0  0  0  0
  8  9  1  0  0  0  0
  8 14  1  0  0  0  0
 10 13  1  0  0  0  0
 11 13  1  0  0  0  0
 12 13  1  0  0  0  0
 13 17  1  0  0  0  0
  2 18  1  0  0  0  0
  2 19  1  0  0  0  0
  3 20  1  0  0  0  0
  3 21  1  0  0  0  0
  4 22  1  0  0  0  0
  4 23  1  0  0  0  0
  5 24  1  0  0  0  0
  5 25  1  0  0  0  0
  6 26  1  0  0  0  0
  6 27  1  0  0  0  0
  7 28  1  0  0  0  0
  7 29  1  0  0  0  0
  8 30  1  0  0  0  0
  8 31  1  0  0  0  0
 10 32  1  0  0  0  0
 10 33  1  0  0  0  0
 10 34  1  0  0  0  0
 11 35  1  0  0  0  0
 11 36  1  0  0  0  0
 11 37  1  0  0  0  0
 12 38  1  0  0  0  0
 12 39  1  0  0  0  0
 12 40  1  0  0  0  0
 14 41  1  0  0  0  0
M  END
> <id>
EN300-20985203

> <smiles>
Cl.CC(C)(C)OC(=O)N1CCCC2(CNC2)CC1

> <MDLNUMBER>
MFCD28992043

> <IUPAC Name>
tert-butyl 2,7-diazaspiro[3.6]decane-7-carboxylate hydrochloride

> <CAS>
2177264-53-6

> <Purity>
95

> <URL>
https://www.enaminestore.com/catalog/EN300-20985203

> <Saltdate>
Cl

> <ROCS_ShapeQuery>
amalgated

> <ROCS_TanimotoCombo>
0.828 

> <ROCS_ShapeTanimoto>
0.607 

> <ROCS_ColorTanimoto>
0.221 

> <ROCS_RefTversky>
0.558 

> <ROCS_RefColorTversky>
0.339 

> <ROCS_RefTverskyCombo>
0.896 

> <ROCS_FitTversky>
1.171 

> <ROCS_FitColorTversky>
0.389 

> <ROCS_FitTverskyCombo>
1.560 

> <ROCS_ColorScore>
-2.355

> <ROCS_Overlap>
915.707

> <ROCS_Rank>
330                 

$$$$
untitled-dbase-21184_5
  -OEChem-10092318153D

 32 34  0     0  0  0  0  0  0999 V2000
   -9.3077   -0.9556  -11.4693 C   0  0  0  0  0  0  0  0  0  0  0  0
   -8.4993    0.1767  -11.3744 C   0  0  0  0  0  0  0  0  0  0  0  0
   -9.7466   -1.3995  -12.7173 C   0  0  0  0  0  0  0  0  0  0  0  0
   -8.1245    0.8665  -12.5270 C   0  0  0  0  0  0  0  0  0  0  0  0
   -9.3636   -0.7216  -13.8798 C   0  0  0  0  0  0  0  0  0  0  0  0
   -8.5499    0.4103  -13.7770 C   0  0  0  0  0  0  0  0  0  0  0  0
   -8.4418    0.6931  -16.2219 C   0  0  0  0  0  0  0  0  0  0  0  0
   -9.8869   -1.1328  -15.2271 C   0  0  0  0  0  0  0  0  0  0  0  0
   -7.6536   -1.6721  -16.3607 C   0  0  0  0  0  0  0  0  0  0  0  0
   -9.6763   -0.9399  -17.7197 C   0  0  0  0  0  0  0  0  0  0  0  0
   -7.8296   -2.9192  -17.2251 C   0  0  0  0  0  0  0  0  0  0  0  0
   -8.7402   -1.3347  -18.8617 C   0  0  0  0  0  0  0  0  0  0  0  0
   -8.9184   -0.7678  -16.3751 C   0  0  0  0  0  0  0  0  0  0  0  0
   -8.1822    1.1180  -14.9322 N   0  0  0  0  0  0  0  0  0  0  0  0
   -8.0844   -2.6219  -18.6331 N   0  0  0  0  0  0  0  0  0  0  0  0
   -8.2078    1.4126  -17.1949 O   0  0  0  0  0  0  0  0  0  0  0  0
   -9.5870   -1.4993  -10.5716 H   0  0  0  0  0  0  0  0  0  0  0  0
   -8.1570    0.5188  -10.4021 H   0  0  0  0  0  0  0  0  0  0  0  0
  -10.3814   -2.2798  -12.7770 H   0  0  0  0  0  0  0  0  0  0  0  0
   -7.5087    1.7580  -12.4391 H   0  0  0  0  0  0  0  0  0  0  0  0
  -10.0441   -2.2207  -15.1990 H   0  0  0  0  0  0  0  0  0  0  0  0
  -10.8682   -0.6711  -15.4031 H   0  0  0  0  0  0  0  0  0  0  0  0
   -7.4565   -1.9921  -15.3387 H   0  0  0  0  0  0  0  0  0  0  0  0
   -6.7876   -1.1140  -16.7068 H   0  0  0  0  0  0  0  0  0  0  0  0
  -10.1970   -0.0224  -18.0036 H   0  0  0  0  0  0  0  0  0  0  0  0
  -10.4382   -1.7185  -17.6117 H   0  0  0  0  0  0  0  0  0  0  0  0
   -6.9571   -3.5884  -17.1377 H   0  0  0  0  0  0  0  0  0  0  0  0
   -8.6809   -3.5014  -16.8340 H   0  0  0  0  0  0  0  0  0  0  0  0
   -9.3269   -1.4041  -19.7917 H   0  0  0  0  0  0  0  0  0  0  0  0
   -7.9873   -0.5482  -19.0383 H   0  0  0  0  0  0  0  0  0  0  0  0
   -7.6926    2.0013  -14.8120 H   0  0  0  0  0  0  0  0  0  0  0  0
   -7.1889   -2.6369  -19.1453 H   0  0  0  0  0  0  0  0  0  0  0  0
  1  2  2  0  0  0  0
  1  3  1  0  0  0  0
  2  4  1  0  0  0  0
  3  5  2  0  0  0  0
  4  6  2  0  0  0  0
  5  6  1  0  0  0  0
  5  8  1  0  0  0  0
  6 14  1  0  0  0  0
  7 13  1  0  0  0  0
  7 14  1  0  0  0  0
  7 16  2  0  0  0  0
  8 13  1  0  0  0  0
  9 11  1  0  0  0  0
  9 13  1  0  0  0  0
 10 12  1  0  0  0  0
 10 13  1  0  0  0  0
 11 15  1  0  0  0  0
 12 15  1  0  0  0  0
  1 17  1  0  0  0  0
  2 18  1  0  0  0  0
  3 19  1  0  0  0  0
  4 20  1  0  0  0  0
  8 21  1  0  0  0  0
  8 22  1  0  0  0  0
  9 23  1  0  0  0  0
  9 24  1  0  0  0  0
 10 25  1  0  0  0  0
 10 26  1  0  0  0  0
 11 27  1  0  0  0  0
 11 28  1  0  0  0  0
 12 29  1  0  0  0  0
 12 30  1  0  0  0  0
 14 31  1  0  0  0  0
 15 32  1  0  0  0  0
M  END
> <id>
EN300-2007634

> <smiles>
Cl.O=C1NC=2C=CC=CC2CC31CCNCC3

> <MDLNUMBER>
MFCD20922007

> <IUPAC Name>
2',4'-dihydro-1'H-spiro[piperidine-4,3'-quinoline]-2'-one hydrochloride

> <CAS>
1175358-24-3

> <Purity>
95

> <URL>
https://www.enaminestore.com/catalog/EN300-2007634

> <Saltdate>
Cl

> <ROCS_ShapeQuery>
amalgated

> <ROCS_TanimotoCombo>
0.828 

> <ROCS_ShapeTanimoto>
0.502 

> <ROCS_ColorTanimoto>
0.326 

> <ROCS_RefTversky>
0.491 

> <ROCS_RefColorTversky>
0.492 

> <ROCS_RefTverskyCombo>
0.983 

> <ROCS_FitTversky>
1.044 

> <ROCS_FitColorTversky>
0.491 

> <ROCS_FitTverskyCombo>
1.536 

> <ROCS_ColorScore>
-3.442

> <ROCS_Overlap>
806.881

> <ROCS_Rank>
331                 

$$$$
untitled-dbase-49368_5
  -OEChem-10092318153D

 32 34  0     0  0  0  0  0  0999 V2000
   -9.3077   -0.9556  -11.4693 C   0  0  0  0  0  0  0  0  0  0  0  0
   -8.4993    0.1767  -11.3744 C   0  0  0  0  0  0  0  0  0  0  0  0
   -9.7466   -1.3995  -12.7173 C   0  0  0  0  0  0  0  0  0  0  0  0
   -8.1245    0.8665  -12.5270 C   0  0  0  0  0  0  0  0  0  0  0  0
   -9.3636   -0.7216  -13.8798 C   0  0  0  0  0  0  0  0  0  0  0  0
   -8.5499    0.4103  -13.7770 C   0  0  0  0  0  0  0  0  0  0  0  0
   -8.4418    0.6931  -16.2219 C   0  0  0  0  0  0  0  0  0  0  0  0
   -9.8869   -1.1328  -15.2271 C   0  0  0  0  0  0  0  0  0  0  0  0
   -7.6536   -1.6721  -16.3607 C   0  0  0  0  0  0  0  0  0  0  0  0
   -9.6763   -0.9399  -17.7197 C   0  0  0  0  0  0  0  0  0  0  0  0
   -7.8296   -2.9192  -17.2251 C   0  0  0  0  0  0  0  0  0  0  0  0
   -8.7402   -1.3347  -18.8617 C   0  0  0  0  0  0  0  0  0  0  0  0
   -8.9184   -0.7678  -16.3751 C   0  0  0  0  0  0  0  0  0  0  0  0
   -8.1822    1.1180  -14.9322 N   0  0  0  0  0  0  0  0  0  0  0  0
   -8.0844   -2.6219  -18.6331 N   0  0  0  0  0  0  0  0  0  0  0  0
   -8.2078    1.4126  -17.1949 O   0  0  0  0  0  0  0  0  0  0  0  0
   -9.5870   -1.4993  -10.5716 H   0  0  0  0  0  0  0  0  0  0  0  0
   -8.1570    0.5188  -10.4021 H   0  0  0  0  0  0  0  0  0  0  0  0
  -10.3814   -2.2798  -12.7770 H   0  0  0  0  0  0  0  0  0  0  0  0
   -7.5087    1.7580  -12.4391 H   0  0  0  0  0  0  0  0  0  0  0  0
  -10.0441   -2.2207  -15.1990 H   0  0  0  0  0  0  0  0  0  0  0  0
  -10.8682   -0.6711  -15.4031 H   0  0  0  0  0  0  0  0  0  0  0  0
   -7.4565   -1.9921  -15.3387 H   0  0  0  0  0  0  0  0  0  0  0  0
   -6.7876   -1.1140  -16.7068 H   0  0  0  0  0  0  0  0  0  0  0  0
  -10.1970   -0.0224  -18.0036 H   0  0  0  0  0  0  0  0  0  0  0  0
  -10.4382   -1.7185  -17.6117 H   0  0  0  0  0  0  0  0  0  0  0  0
   -6.9571   -3.5884  -17.1377 H   0  0  0  0  0  0  0  0  0  0  0  0
   -8.6809   -3.5014  -16.8340 H   0  0  0  0  0  0  0  0  0  0  0  0
   -9.3269   -1.4041  -19.7917 H   0  0  0  0  0  0  0  0  0  0  0  0
   -7.9873   -0.5482  -19.0383 H   0  0  0  0  0  0  0  0  0  0  0  0
   -7.6926    2.0013  -14.8120 H   0  0  0  0  0  0  0  0  0  0  0  0
   -7.1889   -2.6369  -19.1453 H   0  0  0  0  0  0  0  0  0  0  0  0
  1  2  2  0  0  0  0
  1  3  1  0  0  0  0
  2  4  1  0  0  0  0
  3  5  2  0  0  0  0
  4  6  2  0  0  0  0
  5  6  1  0  0  0  0
  5  8  1  0  0  0  0
  6 14  1  0  0  0  0
  7 13  1  0  0  0  0
  7 14  1  0  0  0  0
  7 16  2  0  0  0  0
  8 13  1  0  0  0  0
  9 11  1  0  0  0  0
  9 13  1  0  0  0  0
 10 12  1  0  0  0  0
 10 13  1  0  0  0  0
 11 15  1  0  0  0  0
 12 15  1  0  0  0  0
  1 17  1  0  0  0  0
  2 18  1  0  0  0  0
  3 19  1  0  0  0  0
  4 20  1  0  0  0  0
  8 21  1  0  0  0  0
  8 22  1  0  0  0  0
  9 23  1  0  0  0  0
  9 24  1  0  0  0  0
 10 25  1  0  0  0  0
 10 26  1  0  0  0  0
 11 27  1  0  0  0  0
 11 28  1  0  0  0  0
 12 29  1  0  0  0  0
 12 30  1  0  0  0  0
 14 31  1  0  0  0  0
 15 32  1  0  0  0  0
M  END
> <id>
EN300-2007635

> <smiles>
O=C1NC=2C=CC=CC2CC31CCNCC3

> <MDLNUMBER>
MFCD11045515

> <IUPAC Name>
2',4'-dihydro-1'H-spiro[piperidine-4,3'-quinoline]-2'-one

> <CAS>
625829-51-8

> <URL>
https://www.enaminestore.com/catalog/EN300-2007635

> <ROCS_ShapeQuery>
amalgated

> <ROCS_TanimotoCombo>
0.828 

> <ROCS_ShapeTanimoto>
0.502 

> <ROCS_ColorTanimoto>
0.326 

> <ROCS_RefTversky>
0.491 

> <ROCS_RefColorTversky>
0.492 

> <ROCS_RefTverskyCombo>
0.983 

> <ROCS_FitTversky>
1.044 

> <ROCS_FitColorTversky>
0.491 

> <ROCS_FitTverskyCombo>
1.536 

> <ROCS_ColorScore>
-3.442

> <ROCS_Overlap>
806.881

> <ROCS_Rank>
332                 

$$$$
untitled-dbase-11723_23
  -OEChem-10092318153D

 35 36  0     0  0  0  0  0  0999 V2000
   -8.7207    0.1007  -13.4171 C   0  0  0  0  0  0  0  0  0  0  0  0
   -8.9049    0.0077  -12.2342 C   0  0  0  0  0  0  0  0  0  0  0  0
   -8.3456   -0.9862  -18.2208 C   0  0  0  0  0  0  0  0  0  0  0  0
   -8.7029   -2.3359  -18.1373 C   0  0  0  0  0  0  0  0  0  0  0  0
   -8.9834   -2.1612  -15.7429 C   0  0  0  0  0  0  0  0  0  0  0  0
   -8.1178    1.3661  -15.4570 C   0  0  0  0  0  0  0  0  0  0  0  0
   -8.5007    0.2123  -14.8201 C   0  0  0  0  0  0  0  0  0  0  0  0
   -8.6259   -0.7979  -15.8024 C   0  0  0  0  0  0  0  0  0  0  0  0
   -8.3094   -0.2205  -17.0397 C   0  0  0  0  0  0  0  0  0  0  0  0
   -9.0178   -2.9179  -16.9159 C   0  0  0  0  0  0  0  0  0  0  0  0
   -7.6195    2.0685  -17.7843 C   0  0  0  0  0  0  0  0  0  0  0  0
   -5.0392    2.3602  -17.7084 C   0  0  0  0  0  0  0  0  0  0  0  0
   -4.8457    0.7197  -19.6007 C   0  0  0  0  0  0  0  0  0  0  0  0
   -5.6708    3.0500  -20.0451 C   0  0  0  0  0  0  0  0  0  0  0  0
   -5.6341    1.9007  -19.0388 C   0  0  0  0  0  0  0  0  0  0  0  0
   -7.9948    1.1239  -16.8142 N   0  0  0  0  0  0  0  0  0  0  0  0
   -9.1256   -0.1031  -10.8182 N   0  0  0  0  0  0  0  0  0  0  0  0
   -7.8734    3.2546  -17.6538 O   0  0  0  0  0  0  0  0  0  0  0  0
   -6.9737    1.4541  -18.8083 O   0  0  0  0  0  0  0  0  0  0  0  0
   -9.3570   -4.2128  -16.8617 F   0  0  0  0  0  0  0  0  0  0  0  0
   -8.1054   -0.5613  -19.1891 H   0  0  0  0  0  0  0  0  0  0  0  0
   -8.7340   -2.9366  -19.0425 H   0  0  0  0  0  0  0  0  0  0  0  0
   -9.2333   -2.6294  -14.7949 H   0  0  0  0  0  0  0  0  0  0  0  0
   -7.9213    2.3485  -15.0464 H   0  0  0  0  0  0  0  0  0  0  0  0
   -5.6023    3.2078  -17.3017 H   0  0  0  0  0  0  0  0  0  0  0  0
   -5.0393    1.5547  -16.9669 H   0  0  0  0  0  0  0  0  0  0  0  0
   -4.0085    2.7087  -17.8406 H   0  0  0  0  0  0  0  0  0  0  0  0
   -5.2691    0.3868  -20.5553 H   0  0  0  0  0  0  0  0  0  0  0  0
   -4.8961   -0.1408  -18.9238 H   0  0  0  0  0  0  0  0  0  0  0  0
   -3.7929    0.9753  -19.7588 H   0  0  0  0  0  0  0  0  0  0  0  0
   -6.0975    2.7206  -20.9994 H   0  0  0  0  0  0  0  0  0  0  0  0
   -6.2634    3.8923  -19.6739 H   0  0  0  0  0  0  0  0  0  0  0  0
   -4.6583    3.4070  -20.2659 H   0  0  0  0  0  0  0  0  0  0  0  0
   -8.8732   -0.9542  -10.3363 H   0  0  0  0  0  0  0  0  0  0  0  0
   -9.5330    0.6704  -10.3121 H   0  0  0  0  0  0  0  0  0  0  0  0
  1  2  3  0  0  0  0
  1  7  1  0  0  0  0
  2 17  1  0  0  0  0
  3  4  1  0  0  0  0
  3  9  2  0  0  0  0
  4 10  2  0  0  0  0
  5  8  2  0  0  0  0
  5 10  1  0  0  0  0
  6  7  2  0  0  0  0
  6 16  1  0  0  0  0
  7  8  1  0  0  0  0
  8  9  1  0  0  0  0
  9 16  1  0  0  0  0
 10 20  1  0  0  0  0
 11 16  1  0  0  0  0
 11 18  2  0  0  0  0
 11 19  1  0  0  0  0
 12 15  1  0  0  0  0
 13 15  1  0  0  0  0
 14 15  1  0  0  0  0
 15 19  1  0  0  0  0
  3 21  1  0  0  0  0
  4 22  1  0  0  0  0
  5 23  1  0  0  0  0
  6 24  1  0  0  0  0
 12 25  1  0  0  0  0
 12 26  1  0  0  0  0
 12 27  1  0  0  0  0
 13 28  1  0  0  0  0
 13 29  1  0  0  0  0
 13 30  1  0  0  0  0
 14 31  1  0  0  0  0
 14 32  1  0  0  0  0
 14 33  1  0  0  0  0
 17 34  1  0  0  0  0
 17 35  1  0  0  0  0
M  END
> <id>
EN300-624595

> <smiles>
CC(C)(C)OC(=O)N1C=C(C#CN)C=2C=C(F)C=CC12

> <MDLNUMBER>
MFCD30752588

> <IUPAC Name>
tert-butyl 3-(2-aminoethynyl)-5-fluoro-1H-indole-1-carboxylate

> <CAS>
2137804-90-9

> <URL>
https://www.enaminestore.com/catalog/EN300-624595

> <ROCS_ShapeQuery>
amalgated

> <ROCS_TanimotoCombo>
0.828 

> <ROCS_ShapeTanimoto>
0.617 

> <ROCS_ColorTanimoto>
0.210 

> <ROCS_RefTversky>
0.600 

> <ROCS_RefColorTversky>
0.326 

> <ROCS_RefTverskyCombo>
0.926 

> <ROCS_FitTversky>
1.049 

> <ROCS_FitColorTversky>
0.373 

> <ROCS_FitTverskyCombo>
1.422 

> <ROCS_ColorScore>
-2.263

> <ROCS_Overlap>
990.509

> <ROCS_Rank>
333                 

$$$$
untitled-dbase-34883_46
  -OEChem-10092318153D

 40 40  0     1  0  0  0  0  0999 V2000
   -8.1280   -0.8490  -14.2658 C   0  0  0  0  0  0  0  0  0  0  0  0
   -9.3204   -2.8442  -17.0705 C   0  0  0  0  0  0  0  0  0  0  0  0
   -8.5649   -0.6303  -18.0795 C   0  0  0  0  0  0  0  0  0  0  0  0
   -9.6853   -1.8929  -15.9386 C   0  0  0  0  0  0  0  0  0  0  0  0
   -8.9656   -2.0873  -18.3539 C   0  0  1  0  0  0  0  0  0  0  0  0
   -7.8107   -0.3865  -16.7397 C   0  0  0  0  0  0  0  0  0  0  0  0
   -7.7394    1.1453  -16.5510 C   0  0  0  0  0  0  0  0  0  0  0  0
   -6.3784   -0.9465  -16.8409 C   0  0  0  0  0  0  0  0  0  0  0  0
   -8.9403    1.3114  -12.5680 C   0  0  0  0  0  0  0  0  0  0  0  0
  -10.2976   -0.4087  -11.3399 C   0  0  0  0  0  0  0  0  0  0  0  0
   -7.7960   -0.6159  -11.4232 C   0  0  0  0  0  0  0  0  0  0  0  0
   -9.0448   -0.1622  -12.1777 C   0  0  0  0  0  0  0  0  0  0  0  0
   -8.5399   -1.0304  -15.5997 N   0  0  0  0  0  0  0  0  0  0  0  0
   -7.9258   -2.8112  -19.0845 N   0  0  0  0  0  0  0  0  0  0  0  0
   -6.9729   -0.6236  -13.9113 O   0  0  0  0  0  0  0  0  0  0  0  0
   -9.1644   -0.9429  -13.3728 O   0  0  0  0  0  0  0  0  0  0  0  0
   -8.4789   -3.4788  -16.7525 H   0  0  0  0  0  0  0  0  0  0  0  0
  -10.1660   -3.5221  -17.2565 H   0  0  0  0  0  0  0  0  0  0  0  0
   -7.9307   -0.2803  -18.9140 H   0  0  0  0  0  0  0  0  0  0  0  0
   -9.4685    0.0028  -18.1159 H   0  0  0  0  0  0  0  0  0  0  0  0
  -10.4909   -1.2434  -16.2408 H   0  0  0  0  0  0  0  0  0  0  0  0
   -9.9941   -2.4765  -15.0906 H   0  0  0  0  0  0  0  0  0  0  0  0
   -9.8711   -2.0950  -19.0247 H   0  0  0  0  0  0  0  0  0  0  0  0
   -7.2195    1.3649  -15.6255 H   0  0  0  0  0  0  0  0  0  0  0  0
   -8.7461    1.5450  -16.5111 H   0  0  0  0  0  0  0  0  0  0  0  0
   -7.2033    1.5810  -17.3864 H   0  0  0  0  0  0  0  0  0  0  0  0
   -5.8690   -0.7693  -15.9034 H   0  0  0  0  0  0  0  0  0  0  0  0
   -5.8638   -0.4410  -17.6468 H   0  0  0  0  0  0  0  0  0  0  0  0
   -6.4337   -2.0081  -17.0409 H   0  0  0  0  0  0  0  0  0  0  0  0
   -8.0423    1.4925  -13.1694 H   0  0  0  0  0  0  0  0  0  0  0  0
   -9.8141    1.6402  -13.1400 H   0  0  0  0  0  0  0  0  0  0  0  0
   -8.8499    1.9459  -11.6789 H   0  0  0  0  0  0  0  0  0  0  0  0
  -10.3766   -1.4648  -11.0576 H   0  0  0  0  0  0  0  0  0  0  0  0
  -11.2023   -0.1736  -11.9122 H   0  0  0  0  0  0  0  0  0  0  0  0
  -10.2983    0.1952  -10.4267 H   0  0  0  0  0  0  0  0  0  0  0  0
   -7.8707   -1.6729  -11.1431 H   0  0  0  0  0  0  0  0  0  0  0  0
   -6.8905   -0.4807  -12.0237 H   0  0  0  0  0  0  0  0  0  0  0  0
   -7.6806   -0.0557  -10.4882 H   0  0  0  0  0  0  0  0  0  0  0  0
   -8.2531   -3.7316  -19.2551 H   0  0  0  0  0  0  0  0  0  0  0  0
   -7.7590   -2.3326  -19.9369 H   0  0  0  0  0  0  0  0  0  0  0  0
  1 13  1  0  0  0  0
  1 15  2  0  0  0  0
  1 16  1  0  0  0  0
  2  4  1  0  0  0  0
  2  5  1  0  0  0  0
  3  5  1  0  0  0  0
  3  6  1  0  0  0  0
  4 13  1  0  0  0  0
  5 14  1  0  0  0  0
  6  7  1  0  0  0  0
  6  8  1  0  0  0  0
  6 13  1  0  0  0  0
  9 12  1  0  0  0  0
 10 12  1  0  0  0  0
 11 12  1  0  0  0  0
 12 16  1  0  0  0  0
  2 17  1  0  0  0  0
  2 18  1  0  0  0  0
  3 19  1  0  0  0  0
  3 20  1  0  0  0  0
  4 21  1  0  0  0  0
  4 22  1  0  0  0  0
  5 23  1  0  0  0  0
  7 24  1  0  0  0  0
  7 25  1  0  0  0  0
  7 26  1  0  0  0  0
  8 27  1  0  0  0  0
  8 28  1  0  0  0  0
  8 29  1  0  0  0  0
  9 30  1  0  0  0  0
  9 31  1  0  0  0  0
  9 32  1  0  0  0  0
 10 33  1  0  0  0  0
 10 34  1  0  0  0  0
 10 35  1  0  0  0  0
 11 36  1  0  0  0  0
 11 37  1  0  0  0  0
 11 38  1  0  0  0  0
 14 39  1  0  0  0  0
 14 40  1  0  0  0  0
M  END
> <id>
EN300-3052605

> <smiles>
CC(C)(C)OC(=O)N1CCC(N)CC1(C)C

> <MDLNUMBER>
MFCD22394504

> <IUPAC Name>
tert-butyl 4-amino-2,2-dimethylpiperidine-1-carboxylate

> <CAS>
1361396-89-5

> <Purity>
95

> <URL>
https://www.enaminestore.com/catalog/EN300-3052605

> <ROCS_ShapeQuery>
amalgated

> <ROCS_TanimotoCombo>
0.828 

> <ROCS_ShapeTanimoto>
0.544 

> <ROCS_ColorTanimoto>
0.284 

> <ROCS_RefTversky>
0.509 

> <ROCS_RefColorTversky>
0.413 

> <ROCS_RefTverskyCombo>
0.922 

> <ROCS_FitTversky>
1.144 

> <ROCS_FitColorTversky>
0.475 

> <ROCS_FitTverskyCombo>
1.619 

> <ROCS_ColorScore>
-2.873

> <ROCS_Overlap>
834.421

> <ROCS_Rank>
334                 

$$$$
untitled-dbase-34732_31
  -OEChem-10092318153D

 45 46  0     1  0  0  0  0  0999 V2000
   -8.6019    0.3519  -13.1354 C   0  0  0  0  0  0  0  0  0  0  0  0
   -7.0001   -1.5927  -15.9911 C   0  0  0  0  0  0  0  0  0  0  0  0
   -8.0021    0.6058  -16.7165 C   0  0  0  0  0  0  0  0  0  0  0  0
   -7.4075   -1.3533  -14.5347 C   0  0  0  0  0  0  0  0  0  0  0  0
   -7.5804    1.0080  -15.2980 C   0  0  0  0  0  0  0  0  0  0  0  0
   -9.3916   -2.9614  -18.4613 C   0  0  0  0  0  0  0  0  0  0  0  0
   -9.6335   -2.7064  -16.9848 C   0  0  0  0  0  0  0  0  0  0  0  0
   -7.7176   -1.2331  -18.4741 C   0  0  1  0  0  0  0  0  0  0  0  0
   -7.9961   -0.9290  -16.9700 C   0  0  0  0  0  0  0  0  0  0  0  0
   -6.2790   -0.9546  -18.9224 C   0  0  0  0  0  0  0  0  0  0  0  0
  -10.8214    0.0315  -11.3588 C   0  0  0  0  0  0  0  0  0  0  0  0
   -9.4232   -1.7191  -10.2231 C   0  0  0  0  0  0  0  0  0  0  0  0
   -8.6348    0.6647  -10.2855 C   0  0  0  0  0  0  0  0  0  0  0  0
   -9.3999   -0.4254  -11.0343 C   0  0  0  0  0  0  0  0  0  0  0  0
   -8.0117   -2.6368  -18.8131 N   0  0  0  0  0  0  0  0  0  0  0  0
   -7.9203   -0.0013  -14.3036 N   0  0  0  0  0  0  0  0  0  0  0  0
   -9.0480    1.4732  -12.9016 O   0  0  0  0  0  0  0  0  0  0  0  0
   -9.3478   -1.3489  -16.6585 O   0  0  0  0  0  0  0  0  0  0  0  0
   -8.7176   -0.6992  -12.2633 O   0  0  0  0  0  0  0  0  0  0  0  0
   -5.9950   -1.1852  -16.1356 H   0  0  0  0  0  0  0  0  0  0  0  0
   -6.9314   -2.6709  -16.1488 H   0  0  0  0  0  0  0  0  0  0  0  0
   -9.0156    1.0048  -16.8951 H   0  0  0  0  0  0  0  0  0  0  0  0
   -7.3357    1.1162  -17.4314 H   0  0  0  0  0  0  0  0  0  0  0  0
   -8.1989   -2.0572  -14.2293 H   0  0  0  0  0  0  0  0  0  0  0  0
   -6.5469   -1.5525  -13.8770 H   0  0  0  0  0  0  0  0  0  0  0  0
   -6.5021    1.2265  -15.2959 H   0  0  0  0  0  0  0  0  0  0  0  0
   -8.0825    1.9418  -14.9970 H   0  0  0  0  0  0  0  0  0  0  0  0
   -9.5951   -4.0109  -18.7018 H   0  0  0  0  0  0  0  0  0  0  0  0
  -10.0728   -2.3532  -19.0697 H   0  0  0  0  0  0  0  0  0  0  0  0
  -10.6871   -2.8830  -16.7506 H   0  0  0  0  0  0  0  0  0  0  0  0
   -9.0495   -3.3799  -16.3517 H   0  0  0  0  0  0  0  0  0  0  0  0
   -8.3703   -0.5985  -19.0899 H   0  0  0  0  0  0  0  0  0  0  0  0
   -5.5897   -1.5619  -18.3398 H   0  0  0  0  0  0  0  0  0  0  0  0
   -6.0456    0.0971  -18.7721 H   0  0  0  0  0  0  0  0  0  0  0  0
   -6.1700   -1.1994  -19.9768 H   0  0  0  0  0  0  0  0  0  0  0  0
  -10.8090    0.9598  -11.9410 H   0  0  0  0  0  0  0  0  0  0  0  0
  -11.3695   -0.7277  -11.9263 H   0  0  0  0  0  0  0  0  0  0  0  0
  -11.3810    0.2492  -10.4419 H   0  0  0  0  0  0  0  0  0  0  0  0
   -8.4053   -2.0506   -9.9880 H   0  0  0  0  0  0  0  0  0  0  0  0
   -9.8876   -2.5303  -10.7953 H   0  0  0  0  0  0  0  0  0  0  0  0
   -9.9736   -1.5975   -9.2845 H   0  0  0  0  0  0  0  0  0  0  0  0
   -7.6151    0.3372  -10.0526 H   0  0  0  0  0  0  0  0  0  0  0  0
   -8.5760    1.5894  -10.8687 H   0  0  0  0  0  0  0  0  0  0  0  0
   -9.1145    0.8882   -9.3257 H   0  0  0  0  0  0  0  0  0  0  0  0
   -7.3749   -3.2541  -18.3104 H   0  0  0  0  0  0  0  0  0  0  0  0
  1 16  1  0  0  0  0
  1 17  2  0  0  0  0
  1 19  1  0  0  0  0
  2  4  1  0  0  0  0
  2  9  1  0  0  0  0
  3  5  1  0  0  0  0
  3  9  1  0  0  0  0
  4 16  1  0  0  0  0
  5 16  1  0  0  0  0
  6  7  1  0  0  0  0
  6 15  1  0  0  0  0
  7 18  1  0  0  0  0
  8  9  1  0  0  0  0
  8 10  1  0  0  0  0
  8 15  1  0  0  0  0
  9 18  1  0  0  0  0
 11 14  1  0  0  0  0
 12 14  1  0  0  0  0
 13 14  1  0  0  0  0
 14 19  1  0  0  0  0
  2 20  1  0  0  0  0
  2 21  1  0  0  0  0
  3 22  1  0  0  0  0
  3 23  1  0  0  0  0
  4 24  1  0  0  0  0
  4 25  1  0  0  0  0
  5 26  1  0  0  0  0
  5 27  1  0  0  0  0
  6 28  1  0  0  0  0
  6 29  1  0  0  0  0
  7 30  1  0  0  0  0
  7 31  1  0  0  0  0
  8 32  1  0  0  0  0
 10 33  1  0  0  0  0
 10 34  1  0  0  0  0
 10 35  1  0  0  0  0
 11 36  1  0  0  0  0
 11 37  1  0  0  0  0
 11 38  1  0  0  0  0
 12 39  1  0  0  0  0
 12 40  1  0  0  0  0
 12 41  1  0  0  0  0
 13 42  1  0  0  0  0
 13 43  1  0  0  0  0
 13 44  1  0  0  0  0
 15 45  1  0  0  0  0
M  END
> <id>
EN300-1643935

> <smiles>
CC1NCCOC21CCN(CC2)C(=O)OC(C)(C)C

> <IUPAC Name>
tert-butyl 5-methyl-1-oxa-4,9-diazaspiro[5.5]undecane-9-carboxylate

> <CAS>
2171698-26-1

> <URL>
https://www.enaminestore.com/catalog/EN300-1643935

> <ROCS_ShapeQuery>
amalgated

> <ROCS_TanimotoCombo>
0.827 

> <ROCS_ShapeTanimoto>
0.603 

> <ROCS_ColorTanimoto>
0.224 

> <ROCS_RefTversky>
0.576 

> <ROCS_RefColorTversky>
0.366 

> <ROCS_RefTverskyCombo>
0.942 

> <ROCS_FitTversky>
1.086 

> <ROCS_FitColorTversky>
0.366 

> <ROCS_FitTverskyCombo>
1.453 

> <ROCS_ColorScore>
-2.564

> <ROCS_Overlap>
948.128

> <ROCS_Rank>
335                 

$$$$
untitled-dbase-44405_262
  -OEChem-10092318153D

 44 45  0     0  0  0  0  0  0999 V2000
   -9.1630    0.8085  -13.3927 C   0  0  0  0  0  0  0  0  0  0  0  0
   -7.9426   -1.8873  -14.5944 C   0  0  0  0  0  0  0  0  0  0  0  0
   -7.8288    0.8527  -16.9470 C   0  0  0  0  0  0  0  0  0  0  0  0
   -9.0442   -1.9774  -15.6518 C   0  0  0  0  0  0  0  0  0  0  0  0
   -8.8720   -0.1363  -17.4600 C   0  0  0  0  0  0  0  0  0  0  0  0
   -7.3199   -0.5167  -14.3473 C   0  0  0  0  0  0  0  0  0  0  0  0
   -8.1561    1.4931  -15.5960 C   0  0  0  0  0  0  0  0  0  0  0  0
   -9.3198   -2.5482  -18.1220 C   0  0  0  0  0  0  0  0  0  0  0  0
   -7.3181   -2.2904  -17.6348 C   0  0  0  0  0  0  0  0  0  0  0  0
   -8.6121   -1.6145  -17.0818 C   0  0  0  0  0  0  0  0  0  0  0  0
  -10.9908    0.7558  -11.1916 C   0  0  0  0  0  0  0  0  0  0  0  0
  -10.1190   -1.5606  -10.7629 C   0  0  0  0  0  0  0  0  0  0  0  0
   -8.5654    0.4075  -10.6168 C   0  0  0  0  0  0  0  0  0  0  0  0
   -9.7884   -0.1781  -11.3212 C   0  0  0  0  0  0  0  0  0  0  0  0
   -8.0478   -2.6493  -18.8667 N   0  0  0  0  0  0  0  0  0  0  0  0
   -8.2755    0.5802  -14.4567 N   0  0  0  0  0  0  0  0  0  0  0  0
   -9.6148    1.9137  -13.0970 O   0  0  0  0  0  0  0  0  0  0  0  0
   -9.4818   -0.3361  -12.7112 O   0  0  0  0  0  0  0  0  0  0  0  0
   -8.3813   -2.2309  -13.6463 H   0  0  0  0  0  0  0  0  0  0  0  0
   -7.1426   -2.6041  -14.8249 H   0  0  0  0  0  0  0  0  0  0  0  0
   -6.8878    0.2966  -16.8041 H   0  0  0  0  0  0  0  0  0  0  0  0
   -7.5938    1.6276  -17.6929 H   0  0  0  0  0  0  0  0  0  0  0  0
   -9.4022   -3.0193  -15.6447 H   0  0  0  0  0  0  0  0  0  0  0  0
   -9.9231   -1.3906  -15.3529 H   0  0  0  0  0  0  0  0  0  0  0  0
   -9.8501    0.1684  -17.0471 H   0  0  0  0  0  0  0  0  0  0  0  0
   -9.0078   -0.0419  -18.5485 H   0  0  0  0  0  0  0  0  0  0  0  0
   -6.8908   -0.5012  -13.3413 H   0  0  0  0  0  0  0  0  0  0  0  0
   -6.4868   -0.3406  -15.0296 H   0  0  0  0  0  0  0  0  0  0  0  0
   -7.4049    2.2616  -15.3375 H   0  0  0  0  0  0  0  0  0  0  0  0
   -9.1064    2.0453  -15.7045 H   0  0  0  0  0  0  0  0  0  0  0  0
   -9.6630   -3.5116  -17.7242 H   0  0  0  0  0  0  0  0  0  0  0  0
  -10.1427   -2.1034  -18.6904 H   0  0  0  0  0  0  0  0  0  0  0  0
   -6.4585   -1.6296  -17.7943 H   0  0  0  0  0  0  0  0  0  0  0  0
   -6.9728   -3.1657  -17.0678 H   0  0  0  0  0  0  0  0  0  0  0  0
  -10.7576    1.7492  -11.5912 H   0  0  0  0  0  0  0  0  0  0  0  0
  -11.8648    0.3640  -11.7220 H   0  0  0  0  0  0  0  0  0  0  0  0
  -11.2611    0.9015  -10.1395 H   0  0  0  0  0  0  0  0  0  0  0  0
   -9.2590   -2.2339  -10.8538 H   0  0  0  0  0  0  0  0  0  0  0  0
  -10.9354   -2.0246  -11.3279 H   0  0  0  0  0  0  0  0  0  0  0  0
  -10.4109   -1.5114   -9.7089 H   0  0  0  0  0  0  0  0  0  0  0  0
   -7.7027   -0.2622  -10.7096 H   0  0  0  0  0  0  0  0  0  0  0  0
   -8.2910    1.3836  -11.0297 H   0  0  0  0  0  0  0  0  0  0  0  0
   -8.7525    0.5236   -9.5431 H   0  0  0  0  0  0  0  0  0  0  0  0
   -7.8397   -3.5725  -19.2356 H   0  0  0  0  0  0  0  0  0  0  0  0
  1 16  1  0  0  0  0
  1 17  2  0  0  0  0
  1 18  1  0  0  0  0
  2  4  1  0  0  0  0
  2  6  1  0  0  0  0
  3  5  1  0  0  0  0
  3  7  1  0  0  0  0
  4 10  1  0  0  0  0
  5 10  1  0  0  0  0
  6 16  1  0  0  0  0
  7 16  1  0  0  0  0
  8 10  1  0  0  0  0
  8 15  1  0  0  0  0
  9 10  1  0  0  0  0
  9 15  1  0  0  0  0
 11 14  1  0  0  0  0
 12 14  1  0  0  0  0
 13 14  1  0  0  0  0
 14 18  1  0  0  0  0
  2 19  1  0  0  0  0
  2 20  1  0  0  0  0
  3 21  1  0  0  0  0
  3 22  1  0  0  0  0
  4 23  1  0  0  0  0
  4 24  1  0  0  0  0
  5 25  1  0  0  0  0
  5 26  1  0  0  0  0
  6 27  1  0  0  0  0
  6 28  1  0  0  0  0
  7 29  1  0  0  0  0
  7 30  1  0  0  0  0
  8 31  1  0  0  0  0
  8 32  1  0  0  0  0
  9 33  1  0  0  0  0
  9 34  1  0  0  0  0
 11 35  1  0  0  0  0
 11 36  1  0  0  0  0
 11 37  1  0  0  0  0
 12 38  1  0  0  0  0
 12 39  1  0  0  0  0
 12 40  1  0  0  0  0
 13 41  1  0  0  0  0
 13 42  1  0  0  0  0
 13 43  1  0  0  0  0
 15 44  1  0  0  0  0
M  END
> <id>
EN300-27147404

> <smiles>
CC(C)(C)OC(=O)N1CCCC2(CNC2)CCC1

> <IUPAC Name>
tert-butyl 2,8-diazaspiro[3.7]undecane-8-carboxylate

> <URL>
https://www.enaminestore.com/catalog/EN300-27147404

> <ROCS_ShapeQuery>
amalgated

> <ROCS_TanimotoCombo>
0.827 

> <ROCS_ShapeTanimoto>
0.593 

> <ROCS_ColorTanimoto>
0.234 

> <ROCS_RefTversky>
0.558 

> <ROCS_RefColorTversky>
0.330 

> <ROCS_RefTverskyCombo>
0.888 

> <ROCS_FitTversky>
1.120 

> <ROCS_FitColorTversky>
0.446 

> <ROCS_FitTverskyCombo>
1.566 

> <ROCS_ColorScore>
-2.276

> <ROCS_Overlap>
917.460

> <ROCS_Rank>
336                 

$$$$
untitled-dbase-1417_82
  -OEChem-10092318153D

 39 40  0     1  0  0  0  0  0999 V2000
   -7.4461    1.2874  -16.4641 C   0  0  0  0  0  0  0  0  0  0  0  0
   -9.3269   -0.4401  -14.0572 C   0  0  0  0  0  0  0  0  0  0  0  0
   -7.3501    0.2400  -15.3816 C   0  0  0  0  0  0  0  0  0  0  0  0
   -8.8128   -2.6135  -16.4411 C   0  0  0  0  0  0  0  0  0  0  0  0
   -8.9614   -3.2344  -17.8270 C   0  0  0  0  0  0  0  0  0  0  0  0
   -7.5848   -1.3117  -18.5009 C   0  0  0  0  0  0  0  0  0  0  0  0
   -9.1410   -1.1118  -16.4862 C   0  0  2  0  0  0  0  0  0  0  0  0
   -8.6437   -0.4568  -17.7935 C   0  0  1  0  0  0  0  0  0  0  0  0
   -9.9290   -1.6697  -11.5436 C   0  0  0  0  0  0  0  0  0  0  0  0
   -7.9999   -0.3387  -10.6401 C   0  0  0  0  0  0  0  0  0  0  0  0
  -10.0034    0.8458  -11.5840 C   0  0  0  0  0  0  0  0  0  0  0  0
   -9.1089   -0.3886  -11.6888 C   0  0  0  0  0  0  0  0  0  0  0  0
   -8.1498    0.8973  -17.5838 N   0  0  0  0  0  0  0  0  0  0  0  0
   -8.0503   -2.6620  -18.8189 N   0  0  0  0  0  0  0  0  0  0  0  0
   -8.6377   -0.4347  -15.2777 N   0  0  0  0  0  0  0  0  0  0  0  0
   -6.8371    2.3535  -16.3895 O   0  0  0  0  0  0  0  0  0  0  0  0
  -10.5512   -0.4804  -13.9505 O   0  0  0  0  0  0  0  0  0  0  0  0
   -8.4843   -0.3910  -12.9774 O   0  0  0  0  0  0  0  0  0  0  0  0
   -6.6285   -0.4809  -15.6723 H   0  0  0  0  0  0  0  0  0  0  0  0
   -7.1242    0.7198  -14.4657 H   0  0  0  0  0  0  0  0  0  0  0  0
   -9.4840   -3.1215  -15.7419 H   0  0  0  0  0  0  0  0  0  0  0  0
   -7.7905   -2.7744  -16.0830 H   0  0  0  0  0  0  0  0  0  0  0  0
   -8.7752   -4.3200  -17.7623 H   0  0  0  0  0  0  0  0  0  0  0  0
  -10.0035   -3.1345  -18.1802 H   0  0  0  0  0  0  0  0  0  0  0  0
   -7.2622   -0.8110  -19.4280 H   0  0  0  0  0  0  0  0  0  0  0  0
   -6.6793   -1.3833  -17.8787 H   0  0  0  0  0  0  0  0  0  0  0  0
  -10.2460   -1.0313  -16.4763 H   0  0  0  0  0  0  0  0  0  0  0  0
   -9.5066   -0.3420  -18.4824 H   0  0  0  0  0  0  0  0  0  0  0  0
  -10.7261   -1.7093  -12.2946 H   0  0  0  0  0  0  0  0  0  0  0  0
   -9.3048   -2.5627  -11.6516 H   0  0  0  0  0  0  0  0  0  0  0  0
  -10.4231   -1.7090  -10.5660 H   0  0  0  0  0  0  0  0  0  0  0  0
   -7.4089    0.5788  -10.7406 H   0  0  0  0  0  0  0  0  0  0  0  0
   -7.3005   -1.1723  -10.7717 H   0  0  0  0  0  0  0  0  0  0  0  0
   -8.4031   -0.3817   -9.6232 H   0  0  0  0  0  0  0  0  0  0  0  0
   -9.4153    1.7648  -11.6881 H   0  0  0  0  0  0  0  0  0  0  0  0
  -10.7829    0.8454  -12.3527 H   0  0  0  0  0  0  0  0  0  0  0  0
  -10.4843    0.8962  -10.6004 H   0  0  0  0  0  0  0  0  0  0  0  0
   -8.3318    1.5886  -18.2959 H   0  0  0  0  0  0  0  0  0  0  0  0
   -7.2274   -3.2803  -18.9051 H   0  0  0  0  0  0  0  0  0  0  0  0
  1  3  1  0  0  0  0
  1 13  1  0  0  0  0
  1 16  2  0  0  0  0
  2 15  1  0  0  0  0
  2 17  2  0  0  0  0
  2 18  1  0  0  0  0
  3 15  1  0  0  0  0
  4  5  1  0  0  0  0
  4  7  1  0  0  0  0
  5 14  1  0  0  0  0
  6  8  1  0  0  0  0
  6 14  1  0  0  0  0
  7  8  1  0  0  0  0
  7 15  1  0  0  0  0
  8 13  1  0  0  0  0
  9 12  1  0  0  0  0
 10 12  1  0  0  0  0
 11 12  1  0  0  0  0
 12 18  1  0  0  0  0
  3 19  1  0  0  0  0
  3 20  1  0  0  0  0
  4 21  1  0  0  0  0
  4 22  1  0  0  0  0
  5 23  1  0  0  0  0
  5 24  1  0  0  0  0
  6 25  1  0  0  0  0
  6 26  1  0  0  0  0
  7 27  1  0  0  0  0
  8 28  1  0  0  0  0
  9 29  1  0  0  0  0
  9 30  1  0  0  0  0
  9 31  1  0  0  0  0
 10 32  1  0  0  0  0
 10 33  1  0  0  0  0
 10 34  1  0  0  0  0
 11 35  1  0  0  0  0
 11 36  1  0  0  0  0
 11 37  1  0  0  0  0
 13 38  1  0  0  0  0
 14 39  1  0  0  0  0
M  END
> <id>
EN300-89885

> <smiles>
CC(C)(C)OC(=O)N1CC(=O)NC2CNCCC21

> <MDLNUMBER>
MFCD17977227

> <IUPAC Name>
tert-butyl 3-oxo-decahydropyrido[3,4-b]piperazine-1-carboxylate

> <CAS>
1258639-26-7

> <URL>
https://www.enaminestore.com/catalog/EN300-89885

> <ROCS_ShapeQuery>
amalgated

> <ROCS_TanimotoCombo>
0.827 

> <ROCS_ShapeTanimoto>
0.610 

> <ROCS_ColorTanimoto>
0.218 

> <ROCS_RefTversky>
0.572 

> <ROCS_RefColorTversky>
0.381 

> <ROCS_RefTverskyCombo>
0.953 

> <ROCS_FitTversky>
1.121 

> <ROCS_FitColorTversky>
0.337 

> <ROCS_FitTverskyCombo>
1.458 

> <ROCS_ColorScore>
-2.683

> <ROCS_Overlap>
941.528

> <ROCS_Rank>
337                 

$$$$
untitled-dbase-18488_561
  -OEChem-10092318153D

 47 48  0     0  0  0  0  0  0999 V2000
   -8.5638    0.1168  -14.5543 C   0  0  0  0  0  0  0  0  0  0  0  0
  -10.3144   -4.9958  -19.2243 C   0  0  0  0  0  0  0  0  0  0  0  0
  -11.1064   -3.7304  -18.9268 C   0  0  0  0  0  0  0  0  0  0  0  0
   -9.0783   -4.8129  -20.0884 C   0  0  0  0  0  0  0  0  0  0  0  0
  -10.3775   -2.3873  -18.9445 C   0  0  0  0  0  0  0  0  0  0  0  0
   -8.6954   -0.7182  -18.1436 C   0  0  0  0  0  0  0  0  0  0  0  0
   -8.9733   -2.8775  -16.8165 C   0  0  0  0  0  0  0  0  0  0  0  0
   -7.8942   -4.2469  -19.3107 C   0  0  0  0  0  0  0  0  0  0  0  0
   -7.8977   -0.3435  -16.8988 C   0  0  0  0  0  0  0  0  0  0  0  0
   -9.4568   -1.9150  -15.7360 C   0  0  0  0  0  0  0  0  0  0  0  0
   -9.0036   -2.2533  -18.2373 C   0  0  0  0  0  0  0  0  0  0  0  0
   -8.8097    1.4705  -12.0462 C   0  0  0  0  0  0  0  0  0  0  0  0
   -9.8335   -0.6632  -11.2044 C   0  0  0  0  0  0  0  0  0  0  0  0
   -7.4591   -0.6533  -12.0233 C   0  0  0  0  0  0  0  0  0  0  0  0
   -8.8515   -0.0492  -12.1999 C   0  0  0  0  0  0  0  0  0  0  0  0
   -7.9296   -2.8102  -19.0827 N   0  0  0  0  0  0  0  0  0  0  0  0
   -8.6364   -0.6999  -15.6866 N   0  0  0  0  0  0  0  0  0  0  0  0
   -7.9044    1.1523  -14.4875 O   0  0  0  0  0  0  0  0  0  0  0  0
   -9.3203   -0.3613  -13.5166 O   0  0  0  0  0  0  0  0  0  0  0  0
  -10.0217   -5.4716  -18.2753 H   0  0  0  0  0  0  0  0  0  0  0  0
  -10.9800   -5.7167  -19.7228 H   0  0  0  0  0  0  0  0  0  0  0  0
  -12.0229   -3.6936  -19.5826 H   0  0  0  0  0  0  0  0  0  0  0  0
  -11.5481   -3.8573  -17.9002 H   0  0  0  0  0  0  0  0  0  0  0  0
   -8.7978   -5.7803  -20.5000 H   0  0  0  0  0  0  0  0  0  0  0  0
   -9.3127   -4.1599  -20.9268 H   0  0  0  0  0  0  0  0  0  0  0  0
  -10.2446   -2.0938  -20.0145 H   0  0  0  0  0  0  0  0  0  0  0  0
  -11.0754   -1.6011  -18.5622 H   0  0  0  0  0  0  0  0  0  0  0  0
   -9.6376   -0.1586  -18.1346 H   0  0  0  0  0  0  0  0  0  0  0  0
   -8.1458   -0.3909  -19.0316 H   0  0  0  0  0  0  0  0  0  0  0  0
   -7.9639   -3.2194  -16.5641 H   0  0  0  0  0  0  0  0  0  0  0  0
   -9.6127   -3.7687  -16.7983 H   0  0  0  0  0  0  0  0  0  0  0  0
   -7.7178   -4.8177  -18.3734 H   0  0  0  0  0  0  0  0  0  0  0  0
   -6.9882   -4.4518  -19.9177 H   0  0  0  0  0  0  0  0  0  0  0  0
   -6.9405   -0.8719  -16.8639 H   0  0  0  0  0  0  0  0  0  0  0  0
   -7.6731    0.7244  -16.9249 H   0  0  0  0  0  0  0  0  0  0  0  0
  -10.5028   -1.6518  -15.9316 H   0  0  0  0  0  0  0  0  0  0  0  0
   -9.4368   -2.3666  -14.7377 H   0  0  0  0  0  0  0  0  0  0  0  0
   -8.1059    1.9150  -12.7590 H   0  0  0  0  0  0  0  0  0  0  0  0
   -9.7956    1.9193  -12.2050 H   0  0  0  0  0  0  0  0  0  0  0  0
   -8.4577    1.7529  -11.0474 H   0  0  0  0  0  0  0  0  0  0  0  0
   -9.8667   -1.7535  -11.3112 H   0  0  0  0  0  0  0  0  0  0  0  0
  -10.8523   -0.3038  -11.3889 H   0  0  0  0  0  0  0  0  0  0  0  0
   -9.5634   -0.4242  -10.1707 H   0  0  0  0  0  0  0  0  0  0  0  0
   -7.4889   -1.7433  -12.1336 H   0  0  0  0  0  0  0  0  0  0  0  0
   -6.7495   -0.2513  -12.7538 H   0  0  0  0  0  0  0  0  0  0  0  0
   -7.0730   -0.4547  -11.0170 H   0  0  0  0  0  0  0  0  0  0  0  0
   -7.0114   -2.4916  -18.7537 H   0  0  0  0  0  0  0  0  0  0  0  0
  1 17  1  0  0  0  0
  1 18  2  0  0  0  0
  1 19  1  0  0  0  0
  2  3  1  0  0  0  0
  2  4  1  0  0  0  0
  3  5  1  0  0  0  0
  4  8  1  0  0  0  0
  5 11  1  0  0  0  0
  6  9  1  0  0  0  0
  6 11  1  0  0  0  0
  7 10  1  0  0  0  0
  7 11  1  0  0  0  0
  8 16  1  0  0  0  0
  9 17  1  0  0  0  0
 10 17  1  0  0  0  0
 11 16  1  0  0  0  0
 12 15  1  0  0  0  0
 13 15  1  0  0  0  0
 14 15  1  0  0  0  0
 15 19  1  0  0  0  0
  2 20  1  0  0  0  0
  2 21  1  0  0  0  0
  3 22  1  0  0  0  0
  3 23  1  0  0  0  0
  4 24  1  0  0  0  0
  4 25  1  0  0  0  0
  5 26  1  0  0  0  0
  5 27  1  0  0  0  0
  6 28  1  0  0  0  0
  6 29  1  0  0  0  0
  7 30  1  0  0  0  0
  7 31  1  0  0  0  0
  8 32  1  0  0  0  0
  8 33  1  0  0  0  0
  9 34  1  0  0  0  0
  9 35  1  0  0  0  0
 10 36  1  0  0  0  0
 10 37  1  0  0  0  0
 12 38  1  0  0  0  0
 12 39  1  0  0  0  0
 12 40  1  0  0  0  0
 13 41  1  0  0  0  0
 13 42  1  0  0  0  0
 13 43  1  0  0  0  0
 14 44  1  0  0  0  0
 14 45  1  0  0  0  0
 14 46  1  0  0  0  0
 16 47  1  0  0  0  0
M  END
> <id>
EN300-1629118

> <smiles>
CC(C)(C)OC(=O)N1CCC2(CC1)CCCCCN2

> <MDLNUMBER>
MFCD12406526

> <IUPAC Name>
tert-butyl 3,7-diazaspiro[5.6]dodecane-3-carboxylate

> <CAS>
1100748-75-1

> <Purity>
95

> <URL>
https://www.enaminestore.com/catalog/EN300-1629118

> <ROCS_ShapeQuery>
amalgated

> <ROCS_TanimotoCombo>
0.827 

> <ROCS_ShapeTanimoto>
0.544 

> <ROCS_ColorTanimoto>
0.283 

> <ROCS_RefTversky>
0.537 

> <ROCS_RefColorTversky>
0.412 

> <ROCS_RefTverskyCombo>
0.949 

> <ROCS_FitTversky>
1.028 

> <ROCS_FitColorTversky>
0.474 

> <ROCS_FitTverskyCombo>
1.502 

> <ROCS_ColorScore>
-2.867

> <ROCS_Overlap>
883.380

> <ROCS_Rank>
338                 

$$$$
untitled-dbase-12365_17
  -OEChem-10092318153D

 33 35  0     1  0  0  0  0  0999 V2000
   -8.0932   -2.0038  -18.2750 C   0  0  0  0  0  0  0  0  0  0  0  0
   -9.0312   -2.8078  -17.6340 C   0  0  0  0  0  0  0  0  0  0  0  0
   -7.6898   -0.8032  -17.6901 C   0  0  0  0  0  0  0  0  0  0  0  0
   -9.5621   -2.4127  -16.4075 C   0  0  0  0  0  0  0  0  0  0  0  0
   -8.2153   -0.3954  -16.4541 C   0  0  0  0  0  0  0  0  0  0  0  0
   -9.1494   -1.2157  -15.8133 C   0  0  0  0  0  0  0  0  0  0  0  0
  -10.2241    0.6122  -12.8414 C   0  0  0  0  0  0  0  0  0  0  0  0
   -7.9766   -0.5483  -13.0041 C   0  0  0  0  0  0  0  0  0  0  0  0
   -8.6905    1.3094  -14.6888 C   0  0  0  0  0  0  0  0  0  0  0  0
  -10.2644   -0.2140  -11.5570 C   0  0  0  0  0  0  0  0  0  0  0  0
   -7.8282    0.0673  -11.6161 C   0  0  0  0  0  0  0  0  0  0  0  0
   -7.7856    0.9131  -15.8523 C   0  0  1  0  0  0  0  0  0  0  0  0
   -9.1208    0.1118  -13.8135 C   0  0  0  0  0  0  0  0  0  0  0  0
   -9.0233   -0.1002  -10.7884 N   0  0  0  0  0  0  0  0  0  0  0  0
   -9.7427   -0.9128  -14.6180 O   0  0  0  0  0  0  0  0  0  0  0  0
   -6.4314    0.8751  -15.4112 O   0  0  0  0  0  0  0  0  0  0  0  0
   -7.6784   -2.3080  -19.2314 H   0  0  0  0  0  0  0  0  0  0  0  0
   -9.3486   -3.7416  -18.0881 H   0  0  0  0  0  0  0  0  0  0  0  0
   -6.9635   -0.1801  -18.2077 H   0  0  0  0  0  0  0  0  0  0  0  0
  -10.2949   -3.0465  -15.9140 H   0  0  0  0  0  0  0  0  0  0  0  0
  -11.2029    0.5417  -13.3246 H   0  0  0  0  0  0  0  0  0  0  0  0
  -10.0500    1.6630  -12.5914 H   0  0  0  0  0  0  0  0  0  0  0  0
   -7.0321   -0.4473  -13.5526 H   0  0  0  0  0  0  0  0  0  0  0  0
   -8.1624   -1.6182  -12.8672 H   0  0  0  0  0  0  0  0  0  0  0  0
   -8.2042    2.0779  -14.0695 H   0  0  0  0  0  0  0  0  0  0  0  0
   -9.5986    1.7661  -15.1150 H   0  0  0  0  0  0  0  0  0  0  0  0
  -11.0987    0.1295  -10.9291 H   0  0  0  0  0  0  0  0  0  0  0  0
  -10.4693   -1.2718  -11.7795 H   0  0  0  0  0  0  0  0  0  0  0  0
   -6.9539   -0.3565  -11.0945 H   0  0  0  0  0  0  0  0  0  0  0  0
   -7.6204    1.1445  -11.7153 H   0  0  0  0  0  0  0  0  0  0  0  0
   -7.8520    1.7131  -16.6193 H   0  0  0  0  0  0  0  0  0  0  0  0
   -9.1015    0.7087  -10.1552 H   0  0  0  0  0  0  0  0  0  0  0  0
   -6.2349    1.7496  -15.0395 H   0  0  0  0  0  0  0  0  0  0  0  0
  1  2  2  0  0  0  0
  1  3  1  0  0  0  0
  2  4  1  0  0  0  0
  3  5  2  0  0  0  0
  4  6  2  0  0  0  0
  5  6  1  0  0  0  0
  5 12  1  0  0  0  0
  6 15  1  0  0  0  0
  7 10  1  0  0  0  0
  7 13  1  0  0  0  0
  8 11  1  0  0  0  0
  8 13  1  0  0  0  0
  9 12  1  0  0  0  0
  9 13  1  0  0  0  0
 10 14  1  0  0  0  0
 11 14  1  0  0  0  0
 12 16  1  0  0  0  0
 13 15  1  0  0  0  0
  1 17  1  0  0  0  0
  2 18  1  0  0  0  0
  3 19  1  0  0  0  0
  4 20  1  0  0  0  0
  7 21  1  0  0  0  0
  7 22  1  0  0  0  0
  8 23  1  0  0  0  0
  8 24  1  0  0  0  0
  9 25  1  0  0  0  0
  9 26  1  0  0  0  0
 10 27  1  0  0  0  0
 10 28  1  0  0  0  0
 11 29  1  0  0  0  0
 11 30  1  0  0  0  0
 12 31  1  0  0  0  0
 14 32  1  0  0  0  0
 16 33  1  0  0  0  0
M  END
> <id>
EN300-305168

> <smiles>
Cl.OC1CC2(CCNCC2)OC=3C=CC=CC13

> <MDLNUMBER>
MFCD31421053

> <IUPAC Name>
3,4-dihydrospiro[1-benzopyran-2,4'-piperidine]-4-ol hydrochloride

> <CAS>
2138166-98-8

> <URL>
https://www.enaminestore.com/catalog/EN300-305168

> <Saltdate>
Cl

> <ROCS_ShapeQuery>
amalgated

> <ROCS_TanimotoCombo>
0.827 

> <ROCS_ShapeTanimoto>
0.549 

> <ROCS_ColorTanimoto>
0.278 

> <ROCS_RefTversky>
0.521 

> <ROCS_RefColorTversky>
0.463 

> <ROCS_RefTverskyCombo>
0.984 

> <ROCS_FitTversky>
1.109 

> <ROCS_FitColorTversky>
0.411 

> <ROCS_FitTverskyCombo>
1.520 

> <ROCS_ColorScore>
-3.267

> <ROCS_Overlap>
854.858

> <ROCS_Rank>
339                 

$$$$
untitled-dbase-12366_17
  -OEChem-10092318153D

 33 35  0     1  0  0  0  0  0999 V2000
   -8.0932   -2.0038  -18.2750 C   0  0  0  0  0  0  0  0  0  0  0  0
   -9.0312   -2.8078  -17.6340 C   0  0  0  0  0  0  0  0  0  0  0  0
   -7.6898   -0.8032  -17.6901 C   0  0  0  0  0  0  0  0  0  0  0  0
   -9.5621   -2.4127  -16.4075 C   0  0  0  0  0  0  0  0  0  0  0  0
   -8.2153   -0.3954  -16.4541 C   0  0  0  0  0  0  0  0  0  0  0  0
   -9.1494   -1.2157  -15.8133 C   0  0  0  0  0  0  0  0  0  0  0  0
  -10.2241    0.6122  -12.8414 C   0  0  0  0  0  0  0  0  0  0  0  0
   -7.9766   -0.5483  -13.0041 C   0  0  0  0  0  0  0  0  0  0  0  0
   -8.6905    1.3094  -14.6888 C   0  0  0  0  0  0  0  0  0  0  0  0
  -10.2644   -0.2140  -11.5570 C   0  0  0  0  0  0  0  0  0  0  0  0
   -7.8282    0.0673  -11.6161 C   0  0  0  0  0  0  0  0  0  0  0  0
   -7.7856    0.9131  -15.8523 C   0  0  1  0  0  0  0  0  0  0  0  0
   -9.1208    0.1118  -13.8135 C   0  0  0  0  0  0  0  0  0  0  0  0
   -9.0233   -0.1002  -10.7884 N   0  0  0  0  0  0  0  0  0  0  0  0
   -9.7427   -0.9128  -14.6180 O   0  0  0  0  0  0  0  0  0  0  0  0
   -6.4314    0.8751  -15.4112 O   0  0  0  0  0  0  0  0  0  0  0  0
   -7.6784   -2.3080  -19.2314 H   0  0  0  0  0  0  0  0  0  0  0  0
   -9.3486   -3.7416  -18.0881 H   0  0  0  0  0  0  0  0  0  0  0  0
   -6.9635   -0.1801  -18.2077 H   0  0  0  0  0  0  0  0  0  0  0  0
  -10.2949   -3.0465  -15.9140 H   0  0  0  0  0  0  0  0  0  0  0  0
  -11.2029    0.5417  -13.3246 H   0  0  0  0  0  0  0  0  0  0  0  0
  -10.0500    1.6630  -12.5914 H   0  0  0  0  0  0  0  0  0  0  0  0
   -7.0321   -0.4473  -13.5526 H   0  0  0  0  0  0  0  0  0  0  0  0
   -8.1624   -1.6182  -12.8672 H   0  0  0  0  0  0  0  0  0  0  0  0
   -8.2042    2.0779  -14.0695 H   0  0  0  0  0  0  0  0  0  0  0  0
   -9.5986    1.7661  -15.1150 H   0  0  0  0  0  0  0  0  0  0  0  0
  -11.0987    0.1295  -10.9291 H   0  0  0  0  0  0  0  0  0  0  0  0
  -10.4693   -1.2718  -11.7795 H   0  0  0  0  0  0  0  0  0  0  0  0
   -6.9539   -0.3565  -11.0945 H   0  0  0  0  0  0  0  0  0  0  0  0
   -7.6204    1.1445  -11.7153 H   0  0  0  0  0  0  0  0  0  0  0  0
   -7.8520    1.7131  -16.6193 H   0  0  0  0  0  0  0  0  0  0  0  0
   -9.1015    0.7087  -10.1552 H   0  0  0  0  0  0  0  0  0  0  0  0
   -6.2349    1.7496  -15.0395 H   0  0  0  0  0  0  0  0  0  0  0  0
  1  2  2  0  0  0  0
  1  3  1  0  0  0  0
  2  4  1  0  0  0  0
  3  5  2  0  0  0  0
  4  6  2  0  0  0  0
  5  6  1  0  0  0  0
  5 12  1  0  0  0  0
  6 15  1  0  0  0  0
  7 10  1  0  0  0  0
  7 13  1  0  0  0  0
  8 11  1  0  0  0  0
  8 13  1  0  0  0  0
  9 12  1  0  0  0  0
  9 13  1  0  0  0  0
 10 14  1  0  0  0  0
 11 14  1  0  0  0  0
 12 16  1  0  0  0  0
 13 15  1  0  0  0  0
  1 17  1  0  0  0  0
  2 18  1  0  0  0  0
  3 19  1  0  0  0  0
  4 20  1  0  0  0  0
  7 21  1  0  0  0  0
  7 22  1  0  0  0  0
  8 23  1  0  0  0  0
  8 24  1  0  0  0  0
  9 25  1  0  0  0  0
  9 26  1  0  0  0  0
 10 27  1  0  0  0  0
 10 28  1  0  0  0  0
 11 29  1  0  0  0  0
 11 30  1  0  0  0  0
 12 31  1  0  0  0  0
 14 32  1  0  0  0  0
 16 33  1  0  0  0  0
M  END
> <id>
EN300-305169

> <smiles>
OC1CC2(CCNCC2)OC=3C=CC=CC13

> <MDLNUMBER>
MFCD09264180

> <IUPAC Name>
3,4-dihydrospiro[1-benzopyran-2,4'-piperidine]-4-ol

> <CAS>
935534-37-5

> <Purity>
95

> <URL>
https://www.enaminestore.com/catalog/EN300-305169

> <ROCS_ShapeQuery>
amalgated

> <ROCS_TanimotoCombo>
0.827 

> <ROCS_ShapeTanimoto>
0.549 

> <ROCS_ColorTanimoto>
0.278 

> <ROCS_RefTversky>
0.521 

> <ROCS_RefColorTversky>
0.463 

> <ROCS_RefTverskyCombo>
0.984 

> <ROCS_FitTversky>
1.109 

> <ROCS_FitColorTversky>
0.411 

> <ROCS_FitTverskyCombo>
1.520 

> <ROCS_ColorScore>
-3.267

> <ROCS_Overlap>
854.858

> <ROCS_Rank>
340                 

$$$$
untitled-dbase-51902_120
  -OEChem-10092318153D

 42 43  0     0  0  0  0  0  0999 V2000
   -8.8475    0.4808  -13.3627 C   0  0  0  0  0  0  0  0  0  0  0  0
   -7.3066   -1.3212  -16.9228 C   0  0  0  0  0  0  0  0  0  0  0  0
   -7.4169   -1.3921  -18.4380 C   0  0  0  0  0  0  0  0  0  0  0  0
   -9.1408    0.1766  -15.8902 C   0  0  0  0  0  0  0  0  0  0  0  0
   -8.7771   -1.6464  -14.8196 C   0  0  0  0  0  0  0  0  0  0  0  0
   -8.7132   -1.2545  -16.3175 C   0  0  0  0  0  0  0  0  0  0  0  0
   -9.2667   -2.9509  -18.0523 C   0  0  0  0  0  0  0  0  0  0  0  0
   -9.0326   -4.2346  -17.2479 C   0  0  0  0  0  0  0  0  0  0  0  0
  -10.4383   -3.1786  -19.0174 C   0  0  0  0  0  0  0  0  0  0  0  0
  -10.9520   -0.0681  -11.9077 C   0  0  0  0  0  0  0  0  0  0  0  0
   -9.5711   -1.7209  -10.6152 C   0  0  0  0  0  0  0  0  0  0  0  0
   -9.2488    0.7416  -10.2409 C   0  0  0  0  0  0  0  0  0  0  0  0
   -9.5924   -0.3391  -11.2650 C   0  0  0  0  0  0  0  0  0  0  0  0
   -8.0597   -2.6425  -18.8357 N   0  0  0  0  0  0  0  0  0  0  0  0
   -8.9026   -0.2362  -14.5255 N   0  0  0  0  0  0  0  0  0  0  0  0
   -9.0064    1.6963  -13.2926 O   0  0  0  0  0  0  0  0  0  0  0  0
   -9.6944   -1.9082  -17.1634 O   0  0  0  0  0  0  0  0  0  0  0  0
   -8.5935   -0.3292  -12.2907 O   0  0  0  0  0  0  0  0  0  0  0  0
   -6.7831   -2.2075  -16.5482 H   0  0  0  0  0  0  0  0  0  0  0  0
   -6.7122   -0.4489  -16.6349 H   0  0  0  0  0  0  0  0  0  0  0  0
   -7.9668   -0.5314  -18.8337 H   0  0  0  0  0  0  0  0  0  0  0  0
   -6.4134   -1.3583  -18.8754 H   0  0  0  0  0  0  0  0  0  0  0  0
   -8.4931    0.9897  -16.2268 H   0  0  0  0  0  0  0  0  0  0  0  0
  -10.1889    0.4321  -16.0693 H   0  0  0  0  0  0  0  0  0  0  0  0
   -9.6597   -2.2200  -14.5192 H   0  0  0  0  0  0  0  0  0  0  0  0
   -7.8773   -2.1033  -14.3977 H   0  0  0  0  0  0  0  0  0  0  0  0
   -8.2047   -4.0850  -16.5607 H   0  0  0  0  0  0  0  0  0  0  0  0
   -8.7971   -5.0491  -17.9271 H   0  0  0  0  0  0  0  0  0  0  0  0
   -9.9301   -4.4786  -16.6866 H   0  0  0  0  0  0  0  0  0  0  0  0
  -10.6137   -2.2745  -19.5936 H   0  0  0  0  0  0  0  0  0  0  0  0
  -11.3315   -3.4259  -18.4506 H   0  0  0  0  0  0  0  0  0  0  0  0
  -10.1986   -3.9966  -19.6911 H   0  0  0  0  0  0  0  0  0  0  0  0
  -10.9714    0.9229  -12.3752 H   0  0  0  0  0  0  0  0  0  0  0  0
  -11.1946   -0.8166  -12.6690 H   0  0  0  0  0  0  0  0  0  0  0  0
  -11.7480   -0.0701  -11.1543 H   0  0  0  0  0  0  0  0  0  0  0  0
   -8.5974   -1.9196  -10.1528 H   0  0  0  0  0  0  0  0  0  0  0  0
   -9.7233   -2.5067  -11.3639 H   0  0  0  0  0  0  0  0  0  0  0  0
  -10.3457   -1.8185   -9.8477 H   0  0  0  0  0  0  0  0  0  0  0  0
   -8.2737    0.5475   -9.7797 H   0  0  0  0  0  0  0  0  0  0  0  0
   -9.2232    1.7364  -10.6974 H   0  0  0  0  0  0  0  0  0  0  0  0
   -9.9803    0.7518   -9.4247 H   0  0  0  0  0  0  0  0  0  0  0  0
   -8.2852   -2.6133  -19.8308 H   0  0  0  0  0  0  0  0  0  0  0  0
  1 15  1  0  0  0  0
  1 16  2  0  0  0  0
  1 18  1  0  0  0  0
  2  3  1  0  0  0  0
  2  6  1  0  0  0  0
  3 14  1  0  0  0  0
  4  6  1  0  0  0  0
  4 15  1  0  0  0  0
  5  6  1  0  0  0  0
  5 15  1  0  0  0  0
  6 17  1  0  0  0  0
  7  8  1  0  0  0  0
  7  9  1  0  0  0  0
  7 14  1  0  0  0  0
  7 17  1  0  0  0  0
 10 13  1  0  0  0  0
 11 13  1  0  0  0  0
 12 13  1  0  0  0  0
 13 18  1  0  0  0  0
  2 19  1  0  0  0  0
  2 20  1  0  0  0  0
  3 21  1  0  0  0  0
  3 22  1  0  0  0  0
  4 23  1  0  0  0  0
  4 24  1  0  0  0  0
  5 25  1  0  0  0  0
  5 26  1  0  0  0  0
  8 27  1  0  0  0  0
  8 28  1  0  0  0  0
  8 29  1  0  0  0  0
  9 30  1  0  0  0  0
  9 31  1  0  0  0  0
  9 32  1  0  0  0  0
 10 33  1  0  0  0  0
 10 34  1  0  0  0  0
 10 35  1  0  0  0  0
 11 36  1  0  0  0  0
 11 37  1  0  0  0  0
 11 38  1  0  0  0  0
 12 39  1  0  0  0  0
 12 40  1  0  0  0  0
 12 41  1  0  0  0  0
 14 42  1  0  0  0  0
M  END
> <id>
EN300-1279958

> <smiles>
CC(C)(C)OC(=O)N1CC2(C1)CCNC(C)(C)O2

> <IUPAC Name>
tert-butyl 6,6-dimethyl-5-oxa-2,7-diazaspiro[3.5]nonane-2-carboxylate

> <CAS>
2166682-76-2

> <URL>
https://www.enaminestore.com/catalog/EN300-1279958

> <ROCS_ShapeQuery>
amalgated

> <ROCS_TanimotoCombo>
0.827 

> <ROCS_ShapeTanimoto>
0.612 

> <ROCS_ColorTanimoto>
0.215 

> <ROCS_RefTversky>
0.573 

> <ROCS_RefColorTversky>
0.376 

> <ROCS_RefTverskyCombo>
0.949 

> <ROCS_FitTversky>
1.125 

> <ROCS_FitColorTversky>
0.333 

> <ROCS_FitTverskyCombo>
1.459 

> <ROCS_ColorScore>
-2.652

> <ROCS_Overlap>
942.604

> <ROCS_Rank>
341                 

$$$$
untitled-dbase-27960_36
  -OEChem-10092318153D

 44 46  0     1  0  0  0  0  0999 V2000
   -8.6459    0.3458  -14.8769 C   0  0  0  0  0  0  0  0  0  0  0  0
   -6.4090    1.9844  -18.8909 C   0  0  0  0  0  0  0  0  0  0  0  0
   -5.9934    1.8711  -17.4317 C   0  0  0  0  0  0  0  0  0  0  0  0
   -7.9040    1.7456  -19.0948 C   0  0  0  0  0  0  0  0  0  0  0  0
   -6.3106    0.4855  -16.8653 C   0  0  0  0  0  0  0  0  0  0  0  0
   -8.5886    1.0760  -17.9002 C   0  0  0  0  0  0  0  0  0  0  0  0
   -7.5526   -1.2232  -18.2415 C   0  0  0  0  0  0  0  0  0  0  0  0
   -8.9388   -1.9149  -15.9288 C   0  0  0  0  0  0  0  0  0  0  0  0
   -8.8400   -1.9469  -18.4611 C   0  0  2  0  0  0  0  0  0  0  0  0
   -9.5850   -2.2982  -17.2165 C   0  0  1  0  0  0  0  0  0  0  0  0
   -7.7373   -0.0404  -17.2273 C   0  0  0  0  0  0  0  0  0  0  0  0
   -9.2813    1.6982  -12.4327 C   0  0  0  0  0  0  0  0  0  0  0  0
   -9.7473   -0.5889  -11.5045 C   0  0  0  0  0  0  0  0  0  0  0  0
   -7.4360   -0.0081  -12.2976 C   0  0  0  0  0  0  0  0  0  0  0  0
   -8.9320    0.2130  -12.5167 C   0  0  0  0  0  0  0  0  0  0  0  0
   -8.4609   -0.5173  -15.9785 N   0  0  0  0  0  0  0  0  0  0  0  0
   -8.2797    1.5189  -14.8362 O   0  0  0  0  0  0  0  0  0  0  0  0
   -8.8902   -3.2929  -17.9772 O   0  0  0  0  0  0  0  0  0  0  0  0
   -9.2769   -0.2632  -13.8229 O   0  0  0  0  0  0  0  0  0  0  0  0
   -6.1499    2.9843  -19.2669 H   0  0  0  0  0  0  0  0  0  0  0  0
   -5.8385    1.2668  -19.4952 H   0  0  0  0  0  0  0  0  0  0  0  0
   -4.9244    2.0887  -17.3293 H   0  0  0  0  0  0  0  0  0  0  0  0
   -6.5211    2.6309  -16.8432 H   0  0  0  0  0  0  0  0  0  0  0  0
   -8.3974    2.7123  -19.2968 H   0  0  0  0  0  0  0  0  0  0  0  0
   -8.0601    1.1475  -20.0084 H   0  0  0  0  0  0  0  0  0  0  0  0
   -5.5502   -0.2302  -17.2118 H   0  0  0  0  0  0  0  0  0  0  0  0
   -6.1854    0.5499  -15.7771 H   0  0  0  0  0  0  0  0  0  0  0  0
   -8.8153    1.8726  -17.1830 H   0  0  0  0  0  0  0  0  0  0  0  0
   -9.5593    0.6775  -18.2216 H   0  0  0  0  0  0  0  0  0  0  0  0
   -6.8000   -1.9241  -17.8563 H   0  0  0  0  0  0  0  0  0  0  0  0
   -7.1721   -0.8854  -19.2093 H   0  0  0  0  0  0  0  0  0  0  0  0
   -9.6529   -2.0753  -15.1151 H   0  0  0  0  0  0  0  0  0  0  0  0
   -8.0641   -2.5423  -15.7113 H   0  0  0  0  0  0  0  0  0  0  0  0
   -9.3868   -1.6770  -19.3511 H   0  0  0  0  0  0  0  0  0  0  0  0
  -10.6644   -2.2772  -17.2219 H   0  0  0  0  0  0  0  0  0  0  0  0
   -8.6981    2.2772  -13.1577 H   0  0  0  0  0  0  0  0  0  0  0  0
  -10.3452    1.8737  -12.6226 H   0  0  0  0  0  0  0  0  0  0  0  0
   -9.0349    2.1025  -11.4443 H   0  0  0  0  0  0  0  0  0  0  0  0
   -9.4999   -1.6551  -11.5613 H   0  0  0  0  0  0  0  0  0  0  0  0
  -10.8197   -0.5092  -11.7163 H   0  0  0  0  0  0  0  0  0  0  0  0
   -9.5698   -0.2458  -10.4802 H   0  0  0  0  0  0  0  0  0  0  0  0
   -7.1852   -1.0733  -12.3578 H   0  0  0  0  0  0  0  0  0  0  0  0
   -6.8360    0.5306  -13.0381 H   0  0  0  0  0  0  0  0  0  0  0  0
   -7.1354    0.3243  -11.2974 H   0  0  0  0  0  0  0  0  0  0  0  0
  1 16  1  0  0  0  0
  1 17  2  0  0  0  0
  1 19  1  0  0  0  0
  2  3  1  0  0  0  0
  2  4  1  0  0  0  0
  3  5  1  0  0  0  0
  4  6  1  0  0  0  0
  5 11  1  0  0  0  0
  6 11  1  0  0  0  0
  7  9  1  0  0  0  0
  7 11  1  0  0  0  0
  8 10  1  0  0  0  0
  8 16  1  0  0  0  0
  9 10  1  0  0  0  0
  9 18  1  0  0  0  0
 10 18  1  0  0  0  0
 11 16  1  0  0  0  0
 12 15  1  0  0  0  0
 13 15  1  0  0  0  0
 14 15  1  0  0  0  0
 15 19  1  0  0  0  0
  2 20  1  0  0  0  0
  2 21  1  0  0  0  0
  3 22  1  0  0  0  0
  3 23  1  0  0  0  0
  4 24  1  0  0  0  0
  4 25  1  0  0  0  0
  5 26  1  0  0  0  0
  5 27  1  0  0  0  0
  6 28  1  0  0  0  0
  6 29  1  0  0  0  0
  7 30  1  0  0  0  0
  7 31  1  0  0  0  0
  8 32  1  0  0  0  0
  8 33  1  0  0  0  0
  9 34  1  0  0  0  0
 10 35  1  0  0  0  0
 12 36  1  0  0  0  0
 12 37  1  0  0  0  0
 12 38  1  0  0  0  0
 13 39  1  0  0  0  0
 13 40  1  0  0  0  0
 13 41  1  0  0  0  0
 14 42  1  0  0  0  0
 14 43  1  0  0  0  0
 14 44  1  0  0  0  0
M  END
> <id>
EN300-1708443

> <smiles>
CC(C)(C)OC(=O)N1CC2OC2CC31CCCCC3

> <IUPAC Name>
tert-butyl 7-oxa-4-azaspiro[bicyclo[4.1.0]heptane-3,1'-cyclohexane]-4-carboxylate

> <CAS>
2219372-17-3

> <URL>
https://www.enaminestore.com/catalog/EN300-1708443

> <ROCS_ShapeQuery>
amalgated

> <ROCS_TanimotoCombo>
0.827 

> <ROCS_ShapeTanimoto>
0.649 

> <ROCS_ColorTanimoto>
0.178 

> <ROCS_RefTversky>
0.603 

> <ROCS_RefColorTversky>
0.318 

> <ROCS_RefTverskyCombo>
0.921 

> <ROCS_FitTversky>
1.131 

> <ROCS_FitColorTversky>
0.288 

> <ROCS_FitTverskyCombo>
1.418 

> <ROCS_ColorScore>
-2.238

> <ROCS_Overlap>
994.087

> <ROCS_Rank>
342                 

$$$$
untitled-dbase-34851_111
  -OEChem-10092318153D

 42 43  0     0  0  0  0  0  0999 V2000
   -8.6969   -0.5845  -14.0122 C   0  0  0  0  0  0  0  0  0  0  0  0
   -8.1970   -2.4051  -16.3200 C   0  0  0  0  0  0  0  0  0  0  0  0
   -9.2539   -0.6697  -17.7667 C   0  0  0  0  0  0  0  0  0  0  0  0
   -8.4919   -3.2674  -17.5575 C   0  0  0  0  0  0  0  0  0  0  0  0
   -8.7534   -1.3855  -19.0335 C   0  0  0  0  0  0  0  0  0  0  0  0
   -8.9669    1.3358  -15.5586 C   0  0  0  0  0  0  0  0  0  0  0  0
   -7.6076    1.8924  -15.9778 C   0  0  0  0  0  0  0  0  0  0  0  0
   -6.9273   -0.2306  -16.8189 C   0  0  0  0  0  0  0  0  0  0  0  0
   -8.3137   -0.8660  -16.5404 C   0  0  0  0  0  0  0  0  0  0  0  0
   -7.8008   -0.2139  -11.3133 C   0  0  0  0  0  0  0  0  0  0  0  0
  -10.0454    0.8382  -10.9081 C   0  0  0  0  0  0  0  0  0  0  0  0
   -9.9003   -1.5728  -11.5967 C   0  0  0  0  0  0  0  0  0  0  0  0
   -9.2701   -0.1875  -11.7322 C   0  0  0  0  0  0  0  0  0  0  0  0
   -8.0556   -2.6494  -18.7987 N   0  0  0  0  0  0  0  0  0  0  0  0
   -8.8265   -0.1124  -15.3378 N   0  0  0  0  0  0  0  0  0  0  0  0
   -8.0845   -1.5919  -13.6675 O   0  0  0  0  0  0  0  0  0  0  0  0
   -7.0652    1.1728  -17.0892 O   0  0  0  0  0  0  0  0  0  0  0  0
   -9.3456    0.2157  -13.1048 O   0  0  0  0  0  0  0  0  0  0  0  0
   -8.8921   -2.7604  -15.5418 H   0  0  0  0  0  0  0  0  0  0  0  0
   -7.1893   -2.6579  -15.9341 H   0  0  0  0  0  0  0  0  0  0  0  0
   -9.3783    0.3949  -17.9871 H   0  0  0  0  0  0  0  0  0  0  0  0
  -10.2491   -1.0640  -17.5342 H   0  0  0  0  0  0  0  0  0  0  0  0
   -8.0522   -4.2756  -17.4501 H   0  0  0  0  0  0  0  0  0  0  0  0
   -9.5826   -3.4334  -17.6124 H   0  0  0  0  0  0  0  0  0  0  0  0
   -9.6275   -1.5888  -19.6838 H   0  0  0  0  0  0  0  0  0  0  0  0
   -8.1127   -0.7077  -19.6339 H   0  0  0  0  0  0  0  0  0  0  0  0
   -9.2999    1.8443  -14.6819 H   0  0  0  0  0  0  0  0  0  0  0  0
   -9.6661    1.4527  -16.3636 H   0  0  0  0  0  0  0  0  0  0  0  0
   -7.7186    2.9428  -16.2846 H   0  0  0  0  0  0  0  0  0  0  0  0
   -6.8945    1.8838  -15.1372 H   0  0  0  0  0  0  0  0  0  0  0  0
   -6.2489   -0.3601  -15.9764 H   0  0  0  0  0  0  0  0  0  0  0  0
   -6.4436   -0.6580  -17.6906 H   0  0  0  0  0  0  0  0  0  0  0  0
   -7.2408   -0.9489  -11.9025 H   0  0  0  0  0  0  0  0  0  0  0  0
   -7.3279    0.7655  -11.4388 H   0  0  0  0  0  0  0  0  0  0  0  0
   -7.6986   -0.5158  -10.2647 H   0  0  0  0  0  0  0  0  0  0  0  0
  -11.1001    0.8605  -11.2053 H   0  0  0  0  0  0  0  0  0  0  0  0
   -9.6559    1.8488  -11.0761 H   0  0  0  0  0  0  0  0  0  0  0  0
   -9.9917    0.6195   -9.8367 H   0  0  0  0  0  0  0  0  0  0  0  0
  -10.9542   -1.5541  -11.8971 H   0  0  0  0  0  0  0  0  0  0  0  0
   -9.3791   -2.3147  -12.2104 H   0  0  0  0  0  0  0  0  0  0  0  0
   -9.8820   -1.9089  -10.5537 H   0  0  0  0  0  0  0  0  0  0  0  0
   -7.0534   -2.4764  -18.7607 H   0  0  0  0  0  0  0  0  0  0  0  0
  1 15  1  0  0  0  0
  1 16  2  0  0  0  0
  1 18  1  0  0  0  0
  2  4  1  0  0  0  0
  2  9  1  0  0  0  0
  3  5  1  0  0  0  0
  3  9  1  0  0  0  0
  4 14  1  0  0  0  0
  5 14  1  0  0  0  0
  6  7  1  0  0  0  0
  6 15  1  0  0  0  0
  7 17  1  0  0  0  0
  8  9  1  0  0  0  0
  8 17  1  0  0  0  0
  9 15  1  0  0  0  0
 10 13  1  0  0  0  0
 11 13  1  0  0  0  0
 12 13  1  0  0  0  0
 13 18  1  0  0  0  0
  2 19  1  0  0  0  0
  2 20  1  0  0  0  0
  3 21  1  0  0  0  0
  3 22  1  0  0  0  0
  4 23  1  0  0  0  0
  4 24  1  0  0  0  0
  5 25  1  0  0  0  0
  5 26  1  0  0  0  0
  6 27  1  0  0  0  0
  6 28  1  0  0  0  0
  7 29  1  0  0  0  0
  7 30  1  0  0  0  0
  8 31  1  0  0  0  0
  8 32  1  0  0  0  0
 10 33  1  0  0  0  0
 10 34  1  0  0  0  0
 10 35  1  0  0  0  0
 11 36  1  0  0  0  0
 11 37  1  0  0  0  0
 11 38  1  0  0  0  0
 12 39  1  0  0  0  0
 12 40  1  0  0  0  0
 12 41  1  0  0  0  0
 14 42  1  0  0  0  0
M  END
> <id>
EN300-4354092

> <smiles>
CC(C)(C)OC(=O)N1CCOCC21CCNCC2

> <MDLNUMBER>
MFCD22033425

> <IUPAC Name>
tert-butyl 4-oxa-1,9-diazaspiro[5.5]undecane-1-carboxylate

> <CAS>
1368040-61-2

> <Purity>
95

> <URL>
https://www.enaminestore.com/catalog/EN300-4354092

> <ROCS_ShapeQuery>
amalgated

> <ROCS_TanimotoCombo>
0.826 

> <ROCS_ShapeTanimoto>
0.596 

> <ROCS_ColorTanimoto>
0.231 

> <ROCS_RefTversky>
0.562 

> <ROCS_RefColorTversky>
0.375 

> <ROCS_RefTverskyCombo>
0.937 

> <ROCS_FitTversky>
1.112 

> <ROCS_FitColorTversky>
0.375 

> <ROCS_FitTverskyCombo>
1.487 

> <ROCS_ColorScore>
-2.623

> <ROCS_Overlap>
924.508

> <ROCS_Rank>
343                 

$$$$
untitled-dbase-34240_13
  -OEChem-10092318153D

 35 36  0     1  0  0  0  0  0999 V2000
   -8.4178   -0.0721  -14.0168 C   0  0  0  0  0  0  0  0  0  0  0  0
   -9.2541   -2.8215  -17.1108 C   0  0  0  0  0  0  0  0  0  0  0  0
   -9.9260   -0.5751  -15.9669 C   0  0  0  0  0  0  0  0  0  0  0  0
   -7.5238   -0.3738  -16.3068 C   0  0  0  0  0  0  0  0  0  0  0  0
   -9.5932   -1.3137  -17.2429 C   0  0  1  0  0  0  0  0  0  0  0  0
   -8.1089   -1.0286  -17.5488 C   0  0  2  0  0  0  0  0  0  0  0  0
   -7.8730   -2.5480  -17.7274 C   0  0  2  0  0  0  0  0  0  0  0  0
   -9.2880    1.1846  -11.6010 C   0  0  0  0  0  0  0  0  0  0  0  0
  -10.4493   -0.9871  -11.1068 C   0  0  0  0  0  0  0  0  0  0  0  0
   -7.9477   -0.9275  -11.3233 C   0  0  0  0  0  0  0  0  0  0  0  0
   -9.2657   -0.3285  -11.8122 C   0  0  0  0  0  0  0  0  0  0  0  0
   -8.6221   -0.3743  -15.3580 N   0  0  0  0  0  0  0  0  0  0  0  0
   -7.9189   -2.8628  -19.1566 N   0  0  0  0  0  0  0  0  0  0  0  0
   -7.4719    0.5905  -13.5957 O   0  0  0  0  0  0  0  0  0  0  0  0
   -9.3956   -0.5950  -13.2132 O   0  0  0  0  0  0  0  0  0  0  0  0
   -9.2410   -3.2143  -16.0857 H   0  0  0  0  0  0  0  0  0  0  0  0
   -9.9278   -3.4586  -17.7046 H   0  0  0  0  0  0  0  0  0  0  0  0
  -10.3664    0.4047  -16.1637 H   0  0  0  0  0  0  0  0  0  0  0  0
  -10.5726   -1.1376  -15.2911 H   0  0  0  0  0  0  0  0  0  0  0  0
   -6.6515   -0.9022  -15.9068 H   0  0  0  0  0  0  0  0  0  0  0  0
   -7.2492    0.6703  -16.4982 H   0  0  0  0  0  0  0  0  0  0  0  0
  -10.2877   -1.0876  -18.0509 H   0  0  0  0  0  0  0  0  0  0  0  0
   -7.9563   -0.4230  -18.4643 H   0  0  0  0  0  0  0  0  0  0  0  0
   -7.0223   -2.9808  -17.1855 H   0  0  0  0  0  0  0  0  0  0  0  0
   -8.4400    1.6611  -12.1058 H   0  0  0  0  0  0  0  0  0  0  0  0
  -10.2134    1.6311  -11.9793 H   0  0  0  0  0  0  0  0  0  0  0  0
   -9.1937    1.4325  -10.5375 H   0  0  0  0  0  0  0  0  0  0  0  0
  -10.4372   -2.0729  -11.2557 H   0  0  0  0  0  0  0  0  0  0  0  0
  -11.3988   -0.6293  -11.5211 H   0  0  0  0  0  0  0  0  0  0  0  0
  -10.4421   -0.7846  -10.0310 H   0  0  0  0  0  0  0  0  0  0  0  0
   -7.9314   -2.0129  -11.4746 H   0  0  0  0  0  0  0  0  0  0  0  0
   -7.0890   -0.4928  -11.8451 H   0  0  0  0  0  0  0  0  0  0  0  0
   -7.8207   -0.7634  -10.2470 H   0  0  0  0  0  0  0  0  0  0  0  0
   -7.0904   -2.5157  -19.5813 H   0  0  0  0  0  0  0  0  0  0  0  0
   -7.9754   -3.8496  -19.2585 H   0  0  0  0  0  0  0  0  0  0  0  0
  1 12  1  0  0  0  0
  1 14  2  0  0  0  0
  1 15  1  0  0  0  0
  2  5  1  0  0  0  0
  2  7  1  0  0  0  0
  3  5  1  0  0  0  0
  3 12  1  0  0  0  0
  4  6  1  0  0  0  0
  4 12  1  0  0  0  0
  5  6  1  0  0  0  0
  6  7  1  0  0  0  0
  7 13  1  0  0  0  0
  8 11  1  0  0  0  0
  9 11  1  0  0  0  0
 10 11  1  0  0  0  0
 11 15  1  0  0  0  0
  2 16  1  0  0  0  0
  2 17  1  0  0  0  0
  3 18  1  0  0  0  0
  3 19  1  0  0  0  0
  4 20  1  0  0  0  0
  4 21  1  0  0  0  0
  5 22  1  0  0  0  0
  6 23  1  0  0  0  0
  7 24  1  0  0  0  0
  8 25  1  0  0  0  0
  8 26  1  0  0  0  0
  8 27  1  0  0  0  0
  9 28  1  0  0  0  0
  9 29  1  0  0  0  0
  9 30  1  0  0  0  0
 10 31  1  0  0  0  0
 10 32  1  0  0  0  0
 10 33  1  0  0  0  0
 13 34  1  0  0  0  0
 13 35  1  0  0  0  0
M  END
> <id>
EN300-295790

> <smiles>
CC(C)(C)OC(=O)N1CC2CC(N)C2C1

> <MDLNUMBER>
MFCD19686113

> <IUPAC Name>
tert-butyl 6-amino-3-azabicyclo[3.2.0]heptane-3-carboxylate

> <CAS>
1427453-91-5

> <Purity>
95

> <URL>
https://www.enaminestore.com/catalog/EN300-295790

> <ROCS_ShapeQuery>
amalgated

> <ROCS_TanimotoCombo>
0.826 

> <ROCS_ShapeTanimoto>
0.526 

> <ROCS_ColorTanimoto>
0.301 

> <ROCS_RefTversky>
0.494 

> <ROCS_RefColorTversky>
0.533 

> <ROCS_RefTverskyCombo>
1.027 

> <ROCS_FitTversky>
1.139 

> <ROCS_FitColorTversky>
0.408 

> <ROCS_FitTverskyCombo>
1.547 

> <ROCS_ColorScore>
-3.796

> <ROCS_Overlap>
809.793

> <ROCS_Rank>
344                 

$$$$
untitled-dbase-36268_18
  -OEChem-10092318153D

 43 45  0     0  0  0  0  0  0999 V2000
   -8.3316   -2.3212  -18.3833 C   0  0  0  0  0  0  0  0  0  0  0  0
   -7.2973   -1.4029  -17.7422 C   0  0  0  0  0  0  0  0  0  0  0  0
   -9.7552   -1.9287  -18.0049 C   0  0  0  0  0  0  0  0  0  0  0  0
   -7.4826   -1.3143  -16.2265 C   0  0  0  0  0  0  0  0  0  0  0  0
   -9.9292   -1.8309  -16.4888 C   0  0  0  0  0  0  0  0  0  0  0  0
   -9.7208    0.8728  -12.8564 C   0  0  0  0  0  0  0  0  0  0  0  0
   -7.6589   -0.4648  -12.4463 C   0  0  0  0  0  0  0  0  0  0  0  0
   -9.2227    0.5867  -16.1930 C   0  0  0  0  0  0  0  0  0  0  0  0
  -10.4226    0.0571  -11.7649 C   0  0  0  0  0  0  0  0  0  0  0  0
   -8.4236   -1.2609  -11.3862 C   0  0  0  0  0  0  0  0  0  0  0  0
   -8.3601    1.5925  -15.4376 C   0  0  0  0  0  0  0  0  0  0  0  0
   -8.9108   -0.8749  -15.8149 C   0  0  0  0  0  0  0  0  0  0  0  0
   -8.5677    0.1121  -13.5520 C   0  0  0  0  0  0  0  0  0  0  0  0
  -10.1549   -1.1770   -9.7138 C   0  0  0  0  0  0  0  0  0  0  0  0
   -9.0593   -1.0269  -14.3537 N   0  0  0  0  0  0  0  0  0  0  0  0
   -9.4645   -0.4321  -10.7662 N   0  0  0  0  0  0  0  0  0  0  0  0
   -7.7445    1.0310  -14.2844 O   0  0  0  0  0  0  0  0  0  0  0  0
   -8.2242   -2.2801  -19.4746 H   0  0  0  0  0  0  0  0  0  0  0  0
   -8.1419   -3.3590  -18.0857 H   0  0  0  0  0  0  0  0  0  0  0  0
   -6.2862   -1.7594  -17.9783 H   0  0  0  0  0  0  0  0  0  0  0  0
   -7.3837   -0.3998  -18.1792 H   0  0  0  0  0  0  0  0  0  0  0  0
  -10.0014   -0.9643  -18.4638 H   0  0  0  0  0  0  0  0  0  0  0  0
  -10.4594   -2.6604  -18.4180 H   0  0  0  0  0  0  0  0  0  0  0  0
   -7.1952   -2.2649  -15.7751 H   0  0  0  0  0  0  0  0  0  0  0  0
   -6.7594   -0.5841  -15.8362 H   0  0  0  0  0  0  0  0  0  0  0  0
  -10.9511   -1.4849  -16.2766 H   0  0  0  0  0  0  0  0  0  0  0  0
   -9.8591   -2.8397  -16.0584 H   0  0  0  0  0  0  0  0  0  0  0  0
  -10.4738    1.1885  -13.5989 H   0  0  0  0  0  0  0  0  0  0  0  0
   -9.3364    1.7939  -12.3874 H   0  0  0  0  0  0  0  0  0  0  0  0
   -7.1223    0.3265  -11.9098 H   0  0  0  0  0  0  0  0  0  0  0  0
   -6.8873   -1.1127  -12.8962 H   0  0  0  0  0  0  0  0  0  0  0  0
  -10.2773    0.8036  -15.9550 H   0  0  0  0  0  0  0  0  0  0  0  0
   -9.1095    0.7449  -17.2762 H   0  0  0  0  0  0  0  0  0  0  0  0
  -11.2114    0.6601  -11.2925 H   0  0  0  0  0  0  0  0  0  0  0  0
  -10.9201   -0.7961  -12.2463 H   0  0  0  0  0  0  0  0  0  0  0  0
   -8.8865   -2.1231  -11.8773 H   0  0  0  0  0  0  0  0  0  0  0  0
   -7.7282   -1.6475  -10.6333 H   0  0  0  0  0  0  0  0  0  0  0  0
   -7.5939    2.0542  -16.0922 H   0  0  0  0  0  0  0  0  0  0  0  0
   -8.9928    2.4342  -15.0948 H   0  0  0  0  0  0  0  0  0  0  0  0
   -9.4219   -1.5350   -8.9759 H   0  0  0  0  0  0  0  0  0  0  0  0
  -10.8837   -0.5195   -9.2172 H   0  0  0  0  0  0  0  0  0  0  0  0
  -10.6790   -2.0367  -10.1568 H   0  0  0  0  0  0  0  0  0  0  0  0
  -10.0439   -1.1528  -14.1506 H   0  0  0  0  0  0  0  0  0  0  0  0
  1  2  1  0  0  0  0
  1  3  1  0  0  0  0
  2  4  1  0  0  0  0
  3  5  1  0  0  0  0
  4 12  1  0  0  0  0
  5 12  1  0  0  0  0
  6  9  1  0  0  0  0
  6 13  1  0  0  0  0
  7 10  1  0  0  0  0
  7 13  1  0  0  0  0
  8 11  1  0  0  0  0
  8 12  1  0  0  0  0
  9 16  1  0  0  0  0
 10 16  1  0  0  0  0
 11 17  1  0  0  0  0
 12 15  1  0  0  0  0
 13 15  1  0  0  0  0
 13 17  1  0  0  0  0
 14 16  1  0  0  0  0
  1 18  1  0  0  0  0
  1 19  1  0  0  0  0
  2 20  1  0  0  0  0
  2 21  1  0  0  0  0
  3 22  1  0  0  0  0
  3 23  1  0  0  0  0
  4 24  1  0  0  0  0
  4 25  1  0  0  0  0
  5 26  1  0  0  0  0
  5 27  1  0  0  0  0
  6 28  1  0  0  0  0
  6 29  1  0  0  0  0
  7 30  1  0  0  0  0
  7 31  1  0  0  0  0
  8 32  1  0  0  0  0
  8 33  1  0  0  0  0
  9 34  1  0  0  0  0
  9 35  1  0  0  0  0
 10 36  1  0  0  0  0
 10 37  1  0  0  0  0
 11 38  1  0  0  0  0
 11 39  1  0  0  0  0
 14 40  1  0  0  0  0
 14 41  1  0  0  0  0
 14 42  1  0  0  0  0
 15 43  1  0  0  0  0
M  END
> <id>
EN300-1279187

> <smiles>
CN1CCC2(CC1)NC3(CCCCC3)CCO2

> <IUPAC Name>
3-methyl-16-oxa-3,7-diazadispiro[5.1.5^{8}.3^{6}]hexadecane

> <CAS>
2172116-22-0

> <URL>
https://www.enaminestore.com/catalog/EN300-1279187

> <ROCS_ShapeQuery>
amalgated

> <ROCS_TanimotoCombo>
0.826 

> <ROCS_ShapeTanimoto>
0.567 

> <ROCS_ColorTanimoto>
0.260 

> <ROCS_RefTversky>
0.536 

> <ROCS_RefColorTversky>
0.412 

> <ROCS_RefTverskyCombo>
0.948 

> <ROCS_FitTversky>
1.115 

> <ROCS_FitColorTversky>
0.412 

> <ROCS_FitTverskyCombo>
1.527 

> <ROCS_ColorScore>
-2.885

> <ROCS_Overlap>
879.715

> <ROCS_Rank>
345                 

$$$$
untitled-dbase-43392_1268
  -OEChem-10092318153D

 47 48  0     1  0  0  0  0  0999 V2000
   -8.0427   -0.0069  -14.2421 C   0  0  0  0  0  0  0  0  0  0  0  0
   -5.6824    1.5106  -18.2802 C   0  0  0  0  0  0  0  0  0  0  0  0
   -6.7330    2.2710  -19.0865 C   0  0  0  0  0  0  0  0  0  0  0  0
   -6.4355    0.8476  -17.1292 C   0  0  0  0  0  0  0  0  0  0  0  0
   -8.0699    2.0017  -18.3981 C   0  0  0  0  0  0  0  0  0  0  0  0
   -8.0161   -0.5085  -18.6265 C   0  0  0  0  0  0  0  0  0  0  0  0
   -8.9459   -1.8368  -15.6879 C   0  0  0  0  0  0  0  0  0  0  0  0
   -8.9096    0.5714  -16.4879 C   0  0  0  0  0  0  0  0  0  0  0  0
   -7.9037   -1.9195  -18.0408 C   0  0  1  0  0  0  0  0  0  0  0  0
   -9.0584   -2.3412  -17.1267 C   0  0  2  0  0  0  0  0  0  0  0  0
   -7.8812    0.6704  -17.6326 C   0  0  0  0  0  0  0  0  0  0  0  0
  -10.4432    0.6364  -12.8216 C   0  0  0  0  0  0  0  0  0  0  0  0
   -9.6513   -1.0169  -11.1044 C   0  0  0  0  0  0  0  0  0  0  0  0
   -8.2899    1.0389  -11.5823 C   0  0  0  0  0  0  0  0  0  0  0  0
   -9.2221   -0.0165  -12.1755 C   0  0  0  0  0  0  0  0  0  0  0  0
   -8.5762   -0.4333  -15.4747 N   0  0  0  0  0  0  0  0  0  0  0  0
   -7.2517    0.9256  -14.1105 O   0  0  0  0  0  0  0  0  0  0  0  0
   -7.8916   -2.8107  -19.1666 O   0  0  0  0  0  0  0  0  0  0  0  0
  -10.3105   -1.9627  -17.6956 O   0  0  0  0  0  0  0  0  0  0  0  0
   -8.5073   -0.7424  -13.1821 O   0  0  0  0  0  0  0  0  0  0  0  0
   -5.1917    0.7624  -18.9107 H   0  0  0  0  0  0  0  0  0  0  0  0
   -4.9044    2.1805  -17.9025 H   0  0  0  0  0  0  0  0  0  0  0  0
   -6.5152    3.3436  -19.1333 H   0  0  0  0  0  0  0  0  0  0  0  0
   -6.7538    1.8994  -20.1183 H   0  0  0  0  0  0  0  0  0  0  0  0
   -5.9666   -0.0928  -16.8293 H   0  0  0  0  0  0  0  0  0  0  0  0
   -6.4099    1.5179  -16.2622 H   0  0  0  0  0  0  0  0  0  0  0  0
   -8.2769    2.8248  -17.7014 H   0  0  0  0  0  0  0  0  0  0  0  0
   -8.8928    1.9697  -19.1203 H   0  0  0  0  0  0  0  0  0  0  0  0
   -7.2610   -0.4068  -19.4256 H   0  0  0  0  0  0  0  0  0  0  0  0
   -8.9721   -0.4201  -19.1711 H   0  0  0  0  0  0  0  0  0  0  0  0
   -9.9173   -2.0206  -15.1704 H   0  0  0  0  0  0  0  0  0  0  0  0
   -8.2118   -2.4611  -15.1251 H   0  0  0  0  0  0  0  0  0  0  0  0
   -9.0021    1.5365  -15.9779 H   0  0  0  0  0  0  0  0  0  0  0  0
   -9.9054    0.3515  -16.8856 H   0  0  0  0  0  0  0  0  0  0  0  0
   -6.9381   -2.0502  -17.5365 H   0  0  0  0  0  0  0  0  0  0  0  0
   -9.0774   -3.4506  -17.0880 H   0  0  0  0  0  0  0  0  0  0  0  0
  -10.1393    1.3552  -13.5910 H   0  0  0  0  0  0  0  0  0  0  0  0
  -11.1023   -0.1072  -13.2813 H   0  0  0  0  0  0  0  0  0  0  0  0
  -11.0217    1.2015  -12.0819 H   0  0  0  0  0  0  0  0  0  0  0  0
   -8.7784   -1.4878  -10.6381 H   0  0  0  0  0  0  0  0  0  0  0  0
  -10.2425   -1.8289  -11.5431 H   0  0  0  0  0  0  0  0  0  0  0  0
  -10.2473   -0.5386  -10.3204 H   0  0  0  0  0  0  0  0  0  0  0  0
   -7.4139    0.5708  -11.1188 H   0  0  0  0  0  0  0  0  0  0  0  0
   -7.9422    1.7440  -12.3442 H   0  0  0  0  0  0  0  0  0  0  0  0
   -8.7944    1.6033  -10.7898 H   0  0  0  0  0  0  0  0  0  0  0  0
   -7.1208   -2.5626  -19.6958 H   0  0  0  0  0  0  0  0  0  0  0  0
  -10.3153   -2.3111  -18.5994 H   0  0  0  0  0  0  0  0  0  0  0  0
  1 16  1  0  0  0  0
  1 17  2  0  0  0  0
  1 20  1  0  0  0  0
  2  3  1  0  0  0  0
  2  4  1  0  0  0  0
  3  5  1  0  0  0  0
  4 11  1  0  0  0  0
  5 11  1  0  0  0  0
  6  9  1  0  0  0  0
  6 11  1  0  0  0  0
  7 10  1  0  0  0  0
  7 16  1  0  0  0  0
  8 11  1  0  0  0  0
  8 16  1  0  0  0  0
  9 10  1  0  0  0  0
  9 18  1  1  0  0  0
 10 19  1  1  0  0  0
 12 15  1  0  0  0  0
 13 15  1  0  0  0  0
 14 15  1  0  0  0  0
 15 20  1  0  0  0  0
  2 21  1  0  0  0  0
  2 22  1  0  0  0  0
  3 23  1  0  0  0  0
  3 24  1  0  0  0  0
  4 25  1  0  0  0  0
  4 26  1  0  0  0  0
  5 27  1  0  0  0  0
  5 28  1  0  0  0  0
  6 29  1  0  0  0  0
  6 30  1  0  0  0  0
  7 31  1  0  0  0  0
  7 32  1  0  0  0  0
  8 33  1  0  0  0  0
  8 34  1  0  0  0  0
  9 35  1  0  0  0  0
 10 36  1  0  0  0  0
 12 37  1  0  0  0  0
 12 38  1  0  0  0  0
 12 39  1  0  0  0  0
 13 40  1  0  0  0  0
 13 41  1  0  0  0  0
 13 42  1  0  0  0  0
 14 43  1  0  0  0  0
 14 44  1  0  0  0  0
 14 45  1  0  0  0  0
 18 46  1  0  0  0  0
 19 47  1  0  0  0  0
M  END
> <id>
EN300-28229131

> <smiles>
CC(C)(C)OC(=O)N1C[C@@H](O)[C@@H](O)CC2(CCCC2)C1 |&1:9,11,r|

> <IUPAC Name>
rac-tert-butyl (9R,10S)-9,10-dihydroxy-7-azaspiro[4.6]undecane-7-carboxylate

> <CAS>
2639377-87-8

> <URL>
https://www.enaminestore.com/catalog/EN300-28229131

> <ROCS_ShapeQuery>
amalgated

> <ROCS_TanimotoCombo>
0.826 

> <ROCS_ShapeTanimoto>
0.661 

> <ROCS_ColorTanimoto>
0.165 

> <ROCS_RefTversky>
0.617 

> <ROCS_RefColorTversky>
0.302 

> <ROCS_RefTverskyCombo>
0.919 

> <ROCS_FitTversky>
1.120 

> <ROCS_FitColorTversky>
0.268 

> <ROCS_FitTverskyCombo>
1.388 

> <ROCS_ColorScore>
-2.127

> <ROCS_Overlap>
1017.943

> <ROCS_Rank>
346                 

$$$$
untitled-dbase-11724_24
  -OEChem-10092318153D

 38 39  0     0  0  0  0  0  0999 V2000
   -8.7247    0.0962  -13.4079 C   0  0  0  0  0  0  0  0  0  0  0  0
   -8.9119   -0.0002  -12.2257 C   0  0  0  0  0  0  0  0  0  0  0  0
   -8.6885   -2.3285  -18.1343 C   0  0  0  0  0  0  0  0  0  0  0  0
   -8.3342   -0.9777  -18.2134 C   0  0  0  0  0  0  0  0  0  0  0  0
   -8.9758   -2.1606  -15.7402 C   0  0  0  0  0  0  0  0  0  0  0  0
   -8.1194    1.3680  -15.4430 C   0  0  0  0  0  0  0  0  0  0  0  0
   -8.5012    0.2117  -14.8101 C   0  0  0  0  0  0  0  0  0  0  0  0
   -8.6214   -0.7963  -15.7952 C   0  0  0  0  0  0  0  0  0  0  0  0
   -9.0052   -2.9144  -16.9152 C   0  0  0  0  0  0  0  0  0  0  0  0
   -8.3030   -0.2150  -17.0302 C   0  0  0  0  0  0  0  0  0  0  0  0
   -7.6167    2.0777  -17.7672 C   0  0  0  0  0  0  0  0  0  0  0  0
   -9.3798   -4.3576  -16.8589 C   0  0  0  0  0  0  0  0  0  0  0  0
   -5.0373    2.3753  -17.6838 C   0  0  0  0  0  0  0  0  0  0  0  0
   -4.8348    0.7402  -19.5797 C   0  0  0  0  0  0  0  0  0  0  0  0
   -5.6644    3.0696  -20.0203 C   0  0  0  0  0  0  0  0  0  0  0  0
   -5.6276    1.9178  -19.0168 C   0  0  0  0  0  0  0  0  0  0  0  0
   -7.9923    1.1296  -16.8005 N   0  0  0  0  0  0  0  0  0  0  0  0
   -9.1362   -0.1149  -10.8106 N   0  0  0  0  0  0  0  0  0  0  0  0
   -7.8738    3.2627  -17.6343 O   0  0  0  0  0  0  0  0  0  0  0  0
   -6.9668    1.4674  -18.7910 O   0  0  0  0  0  0  0  0  0  0  0  0
   -8.7130   -2.9192  -19.0474 H   0  0  0  0  0  0  0  0  0  0  0  0
   -8.0924   -0.5497  -19.1798 H   0  0  0  0  0  0  0  0  0  0  0  0
   -9.2257   -2.6232  -14.7885 H   0  0  0  0  0  0  0  0  0  0  0  0
   -7.9272    2.3499  -15.0296 H   0  0  0  0  0  0  0  0  0  0  0  0
   -8.4877   -4.9774  -16.7085 H   0  0  0  0  0  0  0  0  0  0  0  0
  -10.0829   -4.5543  -16.0395 H   0  0  0  0  0  0  0  0  0  0  0  0
   -9.8738   -4.6767  -17.7856 H   0  0  0  0  0  0  0  0  0  0  0  0
   -5.6036    3.2205  -17.2764 H   0  0  0  0  0  0  0  0  0  0  0  0
   -5.0374    1.5679  -16.9442 H   0  0  0  0  0  0  0  0  0  0  0  0
   -4.0071    2.7267  -17.8123 H   0  0  0  0  0  0  0  0  0  0  0  0
   -5.2549    0.4087  -20.5362 H   0  0  0  0  0  0  0  0  0  0  0  0
   -4.8849   -0.1222  -18.9051 H   0  0  0  0  0  0  0  0  0  0  0  0
   -3.7823    0.9987  -19.7343 H   0  0  0  0  0  0  0  0  0  0  0  0
   -6.0878    2.7417  -20.9766 H   0  0  0  0  0  0  0  0  0  0  0  0
   -6.2601    3.9095  -19.6485 H   0  0  0  0  0  0  0  0  0  0  0  0
   -4.6522    3.4296  -20.2375 H   0  0  0  0  0  0  0  0  0  0  0  0
   -8.8831   -0.9666  -10.3301 H   0  0  0  0  0  0  0  0  0  0  0  0
   -9.5468    0.6564  -10.3037 H   0  0  0  0  0  0  0  0  0  0  0  0
  1  2  3  0  0  0  0
  1  7  1  0  0  0  0
  2 18  1  0  0  0  0
  3  4  1  0  0  0  0
  3  9  2  0  0  0  0
  4 10  2  0  0  0  0
  5  8  2  0  0  0  0
  5  9  1  0  0  0  0
  6  7  2  0  0  0  0
  6 17  1  0  0  0  0
  7  8  1  0  0  0  0
  8 10  1  0  0  0  0
  9 12  1  0  0  0  0
 10 17  1  0  0  0  0
 11 17  1  0  0  0  0
 11 19  2  0  0  0  0
 11 20  1  0  0  0  0
 13 16  1  0  0  0  0
 14 16  1  0  0  0  0
 15 16  1  0  0  0  0
 16 20  1  0  0  0  0
  3 21  1  0  0  0  0
  4 22  1  0  0  0  0
  5 23  1  0  0  0  0
  6 24  1  0  0  0  0
 12 25  1  0  0  0  0
 12 26  1  0  0  0  0
 12 27  1  0  0  0  0
 13 28  1  0  0  0  0
 13 29  1  0  0  0  0
 13 30  1  0  0  0  0
 14 31  1  0  0  0  0
 14 32  1  0  0  0  0
 14 33  1  0  0  0  0
 15 34  1  0  0  0  0
 15 35  1  0  0  0  0
 15 36  1  0  0  0  0
 18 37  1  0  0  0  0
 18 38  1  0  0  0  0
M  END
> <id>
EN300-624597

> <smiles>
CC=1C=CC=2N(C=C(C#CN)C2C1)C(=O)OC(C)(C)C

> <MDLNUMBER>
MFCD30752590

> <IUPAC Name>
tert-butyl 3-(2-aminoethynyl)-5-methyl-1H-indole-1-carboxylate

> <CAS>
2137743-24-7

> <URL>
https://www.enaminestore.com/catalog/EN300-624597

> <ROCS_ShapeQuery>
amalgated

> <ROCS_TanimotoCombo>
0.826 

> <ROCS_ShapeTanimoto>
0.616 

> <ROCS_ColorTanimoto>
0.210 

> <ROCS_RefTversky>
0.598 

> <ROCS_RefColorTversky>
0.325 

> <ROCS_RefTverskyCombo>
0.924 

> <ROCS_FitTversky>
1.051 

> <ROCS_FitColorTversky>
0.373 

> <ROCS_FitTverskyCombo>
1.424 

> <ROCS_ColorScore>
-2.262

> <ROCS_Overlap>
987.115

> <ROCS_Rank>
347                 

$$$$
untitled-dbase-15862_9
  -OEChem-10092318153D

 37 39  0     1  0  0  0  0  0999 V2000
   -8.0332    0.2382  -15.6374 C   0  0  0  0  0  0  0  0  0  0  0  0
   -9.3294   -1.6961  -15.0199 C   0  0  0  0  0  0  0  0  0  0  0  0
   -8.0604   -0.1235  -17.0021 C   0  0  0  0  0  0  0  0  0  0  0  0
   -8.7708   -1.2903  -17.3609 C   0  0  0  0  0  0  0  0  0  0  0  0
   -8.6533   -0.5400  -14.6587 C   0  0  0  0  0  0  0  0  0  0  0  0
   -9.3907   -2.0662  -16.3601 C   0  0  0  0  0  0  0  0  0  0  0  0
   -6.0642    3.2762  -18.9132 C   0  0  0  0  0  0  0  0  0  0  0  0
   -7.3096    3.3844  -18.0448 C   0  0  0  0  0  0  0  0  0  0  0  0
   -5.1958    2.0726  -18.5493 C   0  0  0  0  0  0  0  0  0  0  0  0
   -8.6364   -0.6239  -19.7821 C   0  0  0  0  0  0  0  0  0  0  0  0
   -8.1800    2.1280  -18.1427 C   0  0  0  0  0  0  0  0  0  0  0  0
   -5.9023    1.0670  -17.6368 C   0  0  0  0  0  0  0  0  0  0  0  0
   -7.3433    0.1108  -19.4505 C   0  0  0  0  0  0  0  0  0  0  0  0
   -8.8913   -1.7629  -18.7945 C   0  0  1  0  0  0  0  0  0  0  0  0
   -7.3800    0.7861  -18.0461 C   0  0  0  0  0  0  0  0  0  0  0  0
   -7.9926   -2.8901  -19.0677 N   0  0  0  0  0  0  0  0  0  0  0  0
   -8.6026   -0.1660  -13.3741 F   0  0  0  0  0  0  0  0  0  0  0  0
  -10.0596   -3.1814  -16.6900 F   0  0  0  0  0  0  0  0  0  0  0  0
   -7.5390    1.1489  -15.3118 H   0  0  0  0  0  0  0  0  0  0  0  0
   -9.8140   -2.3052  -14.2630 H   0  0  0  0  0  0  0  0  0  0  0  0
   -6.3545    3.2126  -19.9703 H   0  0  0  0  0  0  0  0  0  0  0  0
   -5.4680    4.1940  -18.8084 H   0  0  0  0  0  0  0  0  0  0  0  0
   -7.0118    3.5344  -17.0014 H   0  0  0  0  0  0  0  0  0  0  0  0
   -7.8865    4.2697  -18.3290 H   0  0  0  0  0  0  0  0  0  0  0  0
   -4.8489    1.5736  -19.4714 H   0  0  0  0  0  0  0  0  0  0  0  0
   -4.2774    2.4301  -18.0502 H   0  0  0  0  0  0  0  0  0  0  0  0
   -9.4799    0.0772  -19.7642 H   0  0  0  0  0  0  0  0  0  0  0  0
   -8.5909   -1.0102  -20.8084 H   0  0  0  0  0  0  0  0  0  0  0  0
   -8.9163    2.1785  -17.3301 H   0  0  0  0  0  0  0  0  0  0  0  0
   -8.7632    2.1653  -19.0694 H   0  0  0  0  0  0  0  0  0  0  0  0
   -5.3297    0.1294  -17.6159 H   0  0  0  0  0  0  0  0  0  0  0  0
   -5.8435    1.4692  -16.6180 H   0  0  0  0  0  0  0  0  0  0  0  0
   -6.5084   -0.5994  -19.5003 H   0  0  0  0  0  0  0  0  0  0  0  0
   -7.1491    0.8407  -20.2417 H   0  0  0  0  0  0  0  0  0  0  0  0
   -9.9173   -2.1074  -18.9653 H   0  0  0  0  0  0  0  0  0  0  0  0
   -7.3828   -2.6210  -19.7999 H   0  0  0  0  0  0  0  0  0  0  0  0
   -7.4888   -3.0834  -18.2374 H   0  0  0  0  0  0  0  0  0  0  0  0
  1  3  2  0  0  0  0
  1  5  1  0  0  0  0
  2  5  2  0  0  0  0
  2  6  1  0  0  0  0
  3  4  1  0  0  0  0
  3 15  1  0  0  0  0
  4  6  2  0  0  0  0
  4 14  1  0  0  0  0
  5 17  1  0  0  0  0
  6 18  1  0  0  0  0
  7  8  1  0  0  0  0
  7  9  1  0  0  0  0
  8 11  1  0  0  0  0
  9 12  1  0  0  0  0
 10 13  1  0  0  0  0
 10 14  1  0  0  0  0
 11 15  1  0  0  0  0
 12 15  1  0  0  0  0
 13 15  1  0  0  0  0
 14 16  1  0  0  0  0
  1 19  1  0  0  0  0
  2 20  1  0  0  0  0
  7 21  1  0  0  0  0
  7 22  1  0  0  0  0
  8 23  1  0  0  0  0
  8 24  1  0  0  0  0
  9 25  1  0  0  0  0
  9 26  1  0  0  0  0
 10 27  1  0  0  0  0
 10 28  1  0  0  0  0
 11 29  1  0  0  0  0
 11 30  1  0  0  0  0
 12 31  1  0  0  0  0
 12 32  1  0  0  0  0
 13 33  1  0  0  0  0
 13 34  1  0  0  0  0
 14 35  1  0  0  0  0
 16 36  1  0  0  0  0
 16 37  1  0  0  0  0
M  END
> <id>
EN300-1458047

> <smiles>
NC1CCC2(CCCCC2)C=3C=C(F)C=C(F)C13

> <IUPAC Name>
5',7'-difluoro-3',4'-dihydro-2'H-spiro[cyclohexane-1,1'-naphthalene]-4'-amine

> <CAS>
2171924-27-7

> <URL>
https://www.enaminestore.com/catalog/EN300-1458047

> <ROCS_ShapeQuery>
amalgated

> <ROCS_TanimotoCombo>
0.826 

> <ROCS_ShapeTanimoto>
0.472 

> <ROCS_ColorTanimoto>
0.355 

> <ROCS_RefTversky>
0.485 

> <ROCS_RefColorTversky>
0.455 

> <ROCS_RefTverskyCombo>
0.940 

> <ROCS_FitTversky>
0.946 

> <ROCS_FitColorTversky>
0.616 

> <ROCS_FitTverskyCombo>
1.562 

> <ROCS_ColorScore>
-3.143

> <ROCS_Overlap>
797.321

> <ROCS_Rank>
348                 

$$$$
untitled-dbase-16490_8
  -OEChem-10092318153D

 37 39  0     1  0  0  0  0  0999 V2000
   -7.8361   -1.9609  -18.4010 C   0  0  0  0  0  0  0  0  0  0  0  0
   -9.2013   -2.5861  -18.1281 C   0  0  0  0  0  0  0  0  0  0  0  0
   -7.7041   -0.5873  -17.7472 C   0  0  0  0  0  0  0  0  0  0  0  0
   -9.5009   -2.6569  -16.6319 C   0  0  0  0  0  0  0  0  0  0  0  0
   -7.9187   -0.5623  -12.9118 C   0  0  0  0  0  0  0  0  0  0  0  0
  -10.3397    0.1826  -12.8216 C   0  0  0  0  0  0  0  0  0  0  0  0
   -8.2798   -1.0027  -11.4957 C   0  0  0  0  0  0  0  0  0  0  0  0
   -9.8238    0.9048  -11.5771 C   0  0  0  0  0  0  0  0  0  0  0  0
   -7.9213    0.7343  -15.5943 C   0  0  0  0  0  0  0  0  0  0  0  0
   -8.0091   -0.6493  -16.2457 C   0  0  1  0  0  0  0  0  0  0  0  0
   -9.3795   -1.2790  -15.9711 C   0  0  2  0  0  0  0  0  0  0  0  0
   -9.1734   -0.2273  -13.7591 C   0  0  0  0  0  0  0  0  0  0  0  0
   -8.9587    0.0603  -10.7503 N   0  0  0  0  0  0  0  0  0  0  0  0
   -9.6042   -1.4108  -14.5281 N   0  0  0  0  0  0  0  0  0  0  0  0
   -8.9072    0.9261  -14.5790 O   0  0  0  0  0  0  0  0  0  0  0  0
   -7.0514   -2.6226  -18.0170 H   0  0  0  0  0  0  0  0  0  0  0  0
   -7.6805   -1.8721  -19.4809 H   0  0  0  0  0  0  0  0  0  0  0  0
   -9.9778   -1.9944  -18.6267 H   0  0  0  0  0  0  0  0  0  0  0  0
   -9.2382   -3.5920  -18.5591 H   0  0  0  0  0  0  0  0  0  0  0  0
   -6.6881   -0.2035  -17.9072 H   0  0  0  0  0  0  0  0  0  0  0  0
   -8.3891    0.1174  -18.2387 H   0  0  0  0  0  0  0  0  0  0  0  0
  -10.5128   -3.0602  -16.4850 H   0  0  0  0  0  0  0  0  0  0  0  0
   -8.8075   -3.3679  -16.1583 H   0  0  0  0  0  0  0  0  0  0  0  0
   -7.2684    0.3209  -12.8429 H   0  0  0  0  0  0  0  0  0  0  0  0
   -7.3331   -1.3569  -13.3968 H   0  0  0  0  0  0  0  0  0  0  0  0
  -10.9011   -0.7079  -12.5145 H   0  0  0  0  0  0  0  0  0  0  0  0
  -11.0459    0.8443  -13.3296 H   0  0  0  0  0  0  0  0  0  0  0  0
   -8.9434   -1.8758  -11.5428 H   0  0  0  0  0  0  0  0  0  0  0  0
   -7.3859   -1.3278  -10.9460 H   0  0  0  0  0  0  0  0  0  0  0  0
   -9.2873    1.8268  -11.8561 H   0  0  0  0  0  0  0  0  0  0  0  0
  -10.6796    1.2318  -10.9656 H   0  0  0  0  0  0  0  0  0  0  0  0
   -6.9331    0.8641  -15.1172 H   0  0  0  0  0  0  0  0  0  0  0  0
   -7.9982    1.5446  -16.3433 H   0  0  0  0  0  0  0  0  0  0  0  0
   -7.2355   -1.2826  -15.7683 H   0  0  0  0  0  0  0  0  0  0  0  0
  -10.1746   -0.6431  -16.3965 H   0  0  0  0  0  0  0  0  0  0  0  0
   -9.5300   -0.3721  -10.0115 H   0  0  0  0  0  0  0  0  0  0  0  0
  -10.5910   -1.6080  -14.3469 H   0  0  0  0  0  0  0  0  0  0  0  0
  1  2  1  0  0  0  0
  1  3  1  0  0  0  0
  2  4  1  0  0  0  0
  3 10  1  0  0  0  0
  4 11  1  0  0  0  0
  5  7  1  0  0  0  0
  5 12  1  0  0  0  0
  6  8  1  0  0  0  0
  6 12  1  0  0  0  0
  7 13  1  0  0  0  0
  8 13  1  0  0  0  0
  9 10  1  0  0  0  0
  9 15  1  0  0  0  0
 10 11  1  0  0  0  0
 11 14  1  0  0  0  0
 12 14  1  0  0  0  0
 12 15  1  0  0  0  0
  1 16  1  0  0  0  0
  1 17  1  0  0  0  0
  2 18  1  0  0  0  0
  2 19  1  0  0  0  0
  3 20  1  0  0  0  0
  3 21  1  0  0  0  0
  4 22  1  0  0  0  0
  4 23  1  0  0  0  0
  5 24  1  0  0  0  0
  5 25  1  0  0  0  0
  6 26  1  0  0  0  0
  6 27  1  0  0  0  0
  7 28  1  0  0  0  0
  7 29  1  0  0  0  0
  8 30  1  0  0  0  0
  8 31  1  0  0  0  0
  9 32  1  0  0  0  0
  9 33  1  0  0  0  0
 10 34  1  0  0  0  0
 11 35  1  0  0  0  0
 13 36  1  0  0  0  0
 14 37  1  0  0  0  0
M  END
> <id>
EN300-1278615

> <smiles>
C1CCC2NC3(CCNCC3)OCC2C1

> <IUPAC Name>
octahydrospiro[3,1-benzoxazine-2,4'-piperidine]

> <CAS>
2172467-65-9

> <URL>
https://www.enaminestore.com/catalog/EN300-1278615

> <ROCS_ShapeQuery>
amalgated

> <ROCS_TanimotoCombo>
0.826 

> <ROCS_ShapeTanimoto>
0.544 

> <ROCS_ColorTanimoto>
0.282 

> <ROCS_RefTversky>
0.504 

> <ROCS_RefColorTversky>
0.468 

> <ROCS_RefTverskyCombo>
0.973 

> <ROCS_FitTversky>
1.167 

> <ROCS_FitColorTversky>
0.415 

> <ROCS_FitTverskyCombo>
1.583 

> <ROCS_ColorScore>
-3.303

> <ROCS_Overlap>
826.575

> <ROCS_Rank>
349                 

$$$$
untitled-dbase-25236_146
  -OEChem-10092318153D

 44 45  0     0  0  0  0  0  0999 V2000
   -9.6949    0.1460  -12.0336 C   0  0  0  0  0  0  0  0  0  0  0  0
   -7.8497   -0.7047  -17.9243 C   0  0  0  0  0  0  0  0  0  0  0  0
   -9.4097   -2.5486  -17.1706 C   0  0  0  0  0  0  0  0  0  0  0  0
   -8.6237    0.1041  -16.8786 C   0  0  0  0  0  0  0  0  0  0  0  0
   -9.5211   -1.9828  -15.7476 C   0  0  0  0  0  0  0  0  0  0  0  0
   -7.4391   -0.8171  -14.8102 C   0  0  0  0  0  0  0  0  0  0  0  0
   -7.8153   -0.9194  -13.3368 C   0  0  0  0  0  0  0  0  0  0  0  0
   -9.5516    0.2479  -14.5223 C   0  0  0  0  0  0  0  0  0  0  0  0
   -8.0641   -2.2213  -17.8118 C   0  0  0  0  0  0  0  0  0  0  0  0
   -8.7921   -0.6262  -15.5400 C   0  0  0  0  0  0  0  0  0  0  0  0
  -10.7374   -2.0262  -11.0048 C   0  0  0  0  0  0  0  0  0  0  0  0
   -8.7316   -2.2251   -9.5059 C   0  0  0  0  0  0  0  0  0  0  0  0
  -10.4764   -0.4809   -9.0354 C   0  0  0  0  0  0  0  0  0  0  0  0
   -9.7466   -1.2661  -10.1242 C   0  0  0  0  0  0  0  0  0  0  0  0
   -9.0543   -0.1667  -13.2203 N   0  0  0  0  0  0  0  0  0  0  0  0
   -7.9525   -2.8572  -19.1244 N   0  0  0  0  0  0  0  0  0  0  0  0
  -10.7425    0.7842  -11.9613 O   0  0  0  0  0  0  0  0  0  0  0  0
   -9.0230   -0.3425  -10.9451 O   0  0  0  0  0  0  0  0  0  0  0  0
   -8.1323   -0.3540  -18.9366 H   0  0  0  0  0  0  0  0  0  0  0  0
   -6.7713   -0.4731  -17.8262 H   0  0  0  0  0  0  0  0  0  0  0  0
   -9.5516   -3.6373  -17.1280 H   0  0  0  0  0  0  0  0  0  0  0  0
  -10.2330   -2.1579  -17.7840 H   0  0  0  0  0  0  0  0  0  0  0  0
   -8.0963    1.0575  -16.7116 H   0  0  0  0  0  0  0  0  0  0  0  0
   -9.6058    0.3761  -17.2966 H   0  0  0  0  0  0  0  0  0  0  0  0
  -10.5870   -1.8978  -15.4871 H   0  0  0  0  0  0  0  0  0  0  0  0
   -9.1005   -2.7248  -15.0502 H   0  0  0  0  0  0  0  0  0  0  0  0
   -6.7970    0.0604  -14.9585 H   0  0  0  0  0  0  0  0  0  0  0  0
   -6.8879   -1.6977  -15.1545 H   0  0  0  0  0  0  0  0  0  0  0  0
   -8.0196   -1.9531  -13.0389 H   0  0  0  0  0  0  0  0  0  0  0  0
   -7.0504   -0.5089  -12.6712 H   0  0  0  0  0  0  0  0  0  0  0  0
   -9.3066    1.3120  -14.6325 H   0  0  0  0  0  0  0  0  0  0  0  0
  -10.6407    0.1466  -14.5637 H   0  0  0  0  0  0  0  0  0  0  0  0
   -7.2632   -2.6369  -17.1744 H   0  0  0  0  0  0  0  0  0  0  0  0
  -11.4677   -1.3413  -11.4505 H   0  0  0  0  0  0  0  0  0  0  0  0
  -10.2293   -2.5655  -11.8109 H   0  0  0  0  0  0  0  0  0  0  0  0
  -11.3118   -2.7485  -10.4135 H   0  0  0  0  0  0  0  0  0  0  0  0
   -8.0187   -1.6840   -8.8733 H   0  0  0  0  0  0  0  0  0  0  0  0
   -8.1395   -2.7213  -10.2834 H   0  0  0  0  0  0  0  0  0  0  0  0
   -9.2201   -2.9939   -8.8985 H   0  0  0  0  0  0  0  0  0  0  0  0
   -9.7660    0.0645   -8.4036 H   0  0  0  0  0  0  0  0  0  0  0  0
  -11.1827    0.2388   -9.4618 H   0  0  0  0  0  0  0  0  0  0  0  0
  -11.0265   -1.1563   -8.3702 H   0  0  0  0  0  0  0  0  0  0  0  0
   -7.0561   -2.6476  -19.4934 H   0  0  0  0  0  0  0  0  0  0  0  0
   -8.0636   -3.8353  -19.0030 H   0  0  0  0  0  0  0  0  0  0  0  0
  1 15  1  0  0  0  0
  1 17  2  0  0  0  0
  1 18  1  0  0  0  0
  2  4  1  0  0  0  0
  2  9  1  0  0  0  0
  3  5  1  0  0  0  0
  3  9  1  0  0  0  0
  4 10  1  0  0  0  0
  5 10  1  0  0  0  0
  6  7  1  0  0  0  0
  6 10  1  0  0  0  0
  7 15  1  0  0  0  0
  8 10  1  0  0  0  0
  8 15  1  0  0  0  0
  9 16  1  0  0  0  0
 11 14  1  0  0  0  0
 12 14  1  0  0  0  0
 13 14  1  0  0  0  0
 14 18  1  0  0  0  0
  2 19  1  0  0  0  0
  2 20  1  0  0  0  0
  3 21  1  0  0  0  0
  3 22  1  0  0  0  0
  4 23  1  0  0  0  0
  4 24  1  0  0  0  0
  5 25  1  0  0  0  0
  5 26  1  0  0  0  0
  6 27  1  0  0  0  0
  6 28  1  0  0  0  0
  7 29  1  0  0  0  0
  7 30  1  0  0  0  0
  8 31  1  0  0  0  0
  8 32  1  0  0  0  0
  9 33  1  0  0  0  0
 11 34  1  0  0  0  0
 11 35  1  0  0  0  0
 11 36  1  0  0  0  0
 12 37  1  0  0  0  0
 12 38  1  0  0  0  0
 12 39  1  0  0  0  0
 13 40  1  0  0  0  0
 13 41  1  0  0  0  0
 13 42  1  0  0  0  0
 16 43  1  0  0  0  0
 16 44  1  0  0  0  0
M  END
> <id>
EN300-6495049

> <smiles>
CC(C)(C)OC(=O)N1CCC2(C1)CCC(N)CC2

> <MDLNUMBER>
MFCD22033481

> <IUPAC Name>
tert-butyl 8-amino-2-azaspiro[4.5]decane-2-carboxylate

> <CAS>
1363381-61-6

> <Purity>
95

> <URL>
https://www.enaminestore.com/catalog/EN300-6495049

> <ROCS_ShapeQuery>
amalgated

> <ROCS_TanimotoCombo>
0.826 

> <ROCS_ShapeTanimoto>
0.554 

> <ROCS_ColorTanimoto>
0.272 

> <ROCS_RefTversky>
0.535 

> <ROCS_RefColorTversky>
0.400 

> <ROCS_RefTverskyCombo>
0.935 

> <ROCS_FitTversky>
1.068 

> <ROCS_FitColorTversky>
0.459 

> <ROCS_FitTverskyCombo>
1.527 

> <ROCS_ColorScore>
-2.778

> <ROCS_Overlap>
880.405

> <ROCS_Rank>
350                 

$$$$
untitled-dbase-7694_8
  -OEChem-10092318153D

 38 39  0     1  0  0  0  0  0999 V2000
   -9.0369   -1.4201  -13.8204 C   0  0  0  0  0  0  0  0  0  0  0  0
   -8.7022    0.2090  -16.9542 C   0  0  0  0  0  0  0  0  0  0  0  0
   -7.9382   -0.2565  -15.7189 C   0  0  0  0  0  0  0  0  0  0  0  0
   -7.7934   -1.3579  -18.7890 C   0  0  0  0  0  0  0  0  0  0  0  0
   -9.2376   -3.2074  -18.4354 C   0  0  0  0  0  0  0  0  0  0  0  0
   -8.6817   -2.5869  -16.0356 C   0  0  0  0  0  0  0  0  0  0  0  0
   -8.9915   -0.9174  -17.9459 C   0  0  1  0  0  0  0  0  0  0  0  0
   -9.4714   -2.2183  -17.3006 C   0  0  1  0  0  0  0  0  0  0  0  0
   -8.5353   -1.1803  -11.0131 C   0  0  0  0  0  0  0  0  0  0  0  0
   -8.9190    1.2800  -11.3428 C   0  0  0  0  0  0  0  0  0  0  0  0
  -10.7743   -0.3482  -11.8061 C   0  0  0  0  0  0  0  0  0  0  0  0
   -9.2635   -0.1220  -11.8404 C   0  0  0  0  0  0  0  0  0  0  0  0
   -7.9632   -2.7962  -19.0321 N   0  0  0  0  0  0  0  0  0  0  0  0
   -8.5740   -1.4359  -15.1383 N   0  0  0  0  0  0  0  0  0  0  0  0
   -9.5811   -2.3733  -13.2657 O   0  0  0  0  0  0  0  0  0  0  0  0
   -8.8186   -0.2194  -13.1983 O   0  0  0  0  0  0  0  0  0  0  0  0
   -9.6523    0.6870  -16.6461 H   0  0  0  0  0  0  0  0  0  0  0  0
   -8.1242    1.0146  -17.4500 H   0  0  0  0  0  0  0  0  0  0  0  0
   -6.9133   -0.4995  -15.9766 H   0  0  0  0  0  0  0  0  0  0  0  0
   -7.9353    0.5227  -14.9628 H   0  0  0  0  0  0  0  0  0  0  0  0
   -7.7354   -0.7982  -19.7415 H   0  0  0  0  0  0  0  0  0  0  0  0
   -6.8323   -1.1847  -18.2666 H   0  0  0  0  0  0  0  0  0  0  0  0
   -9.1570   -4.2448  -18.0739 H   0  0  0  0  0  0  0  0  0  0  0  0
  -10.0500   -3.1836  -19.1764 H   0  0  0  0  0  0  0  0  0  0  0  0
   -9.1586   -3.4304  -15.5308 H   0  0  0  0  0  0  0  0  0  0  0  0
   -7.6606   -2.8921  -16.2849 H   0  0  0  0  0  0  0  0  0  0  0  0
   -9.7892   -0.5791  -18.6359 H   0  0  0  0  0  0  0  0  0  0  0  0
  -10.5132   -2.1461  -17.0831 H   0  0  0  0  0  0  0  0  0  0  0  0
   -8.7800   -2.1881  -11.3671 H   0  0  0  0  0  0  0  0  0  0  0  0
   -7.4491   -1.0502  -11.0578 H   0  0  0  0  0  0  0  0  0  0  0  0
   -8.8460   -1.1377   -9.9629 H   0  0  0  0  0  0  0  0  0  0  0  0
   -9.4393    2.0426  -11.9336 H   0  0  0  0  0  0  0  0  0  0  0  0
   -7.8474    1.4813  -11.4542 H   0  0  0  0  0  0  0  0  0  0  0  0
   -9.1891    1.4129  -10.2902 H   0  0  0  0  0  0  0  0  0  0  0  0
  -11.2969    0.4108  -12.3994 H   0  0  0  0  0  0  0  0  0  0  0  0
  -11.0432   -1.3359  -12.1943 H   0  0  0  0  0  0  0  0  0  0  0  0
  -11.1584   -0.2596  -10.7834 H   0  0  0  0  0  0  0  0  0  0  0  0
   -8.0143   -2.9503  -20.0513 H   0  0  0  0  0  0  0  0  0  0  0  0
  1 14  1  0  0  0  0
  1 15  2  0  0  0  0
  1 16  1  0  0  0  0
  2  3  1  0  0  0  0
  2  7  1  0  0  0  0
  3 14  1  0  0  0  0
  4  7  1  0  0  0  0
  4 13  1  0  0  0  0
  5  8  1  0  0  0  0
  5 13  1  0  0  0  0
  6  8  1  0  0  0  0
  6 14  1  0  0  0  0
  7  8  1  0  0  0  0
  9 12  1  0  0  0  0
 10 12  1  0  0  0  0
 11 12  1  0  0  0  0
 12 16  1  0  0  0  0
  2 17  1  0  0  0  0
  2 18  1  0  0  0  0
  3 19  1  0  0  0  0
  3 20  1  0  0  0  0
  4 21  1  0  0  0  0
  4 22  1  0  0  0  0
  5 23  1  0  0  0  0
  5 24  1  0  0  0  0
  6 25  1  0  0  0  0
  6 26  1  0  0  0  0
  7 27  1  0  0  0  0
  8 28  1  0  0  0  0
  9 29  1  0  0  0  0
  9 30  1  0  0  0  0
  9 31  1  0  0  0  0
 10 32  1  0  0  0  0
 10 33  1  0  0  0  0
 10 34  1  0  0  0  0
 11 35  1  0  0  0  0
 11 36  1  0  0  0  0
 11 37  1  0  0  0  0
 13 38  1  0  0  0  0
M  END
> <id>
EN300-245820

> <smiles>
CC(C)(C)OC(=O)N1CCC2CNCC2C1

> <MDLNUMBER>
MFCD06858491

> <IUPAC Name>
tert-butyl octahydro-1H-pyrrolo[3,4-c]pyridine-5-carboxylate

> <CAS>
351370-99-5

> <URL>
https://www.enaminestore.com/catalog/EN300-245820

> <ROCS_ShapeQuery>
amalgated

> <ROCS_TanimotoCombo>
0.826 

> <ROCS_ShapeTanimoto>
0.557 

> <ROCS_ColorTanimoto>
0.268 

> <ROCS_RefTversky>
0.521 

> <ROCS_RefColorTversky>
0.396 

> <ROCS_RefTverskyCombo>
0.917 

> <ROCS_FitTversky>
1.142 

> <ROCS_FitColorTversky>
0.454 

> <ROCS_FitTverskyCombo>
1.597 

> <ROCS_ColorScore>
-2.754

> <ROCS_Overlap>
854.969

> <ROCS_Rank>
351                 

$$$$
untitled-dbase-20552_0
  -OEChem-10092318153D

 33 35  0     1  0  0  0  0  0999 V2000
   -9.1616   -2.7380  -16.7216 C   0  0  0  0  0  0  0  0  0  0  0  0
   -8.5821   -1.9696  -17.7391 C   0  0  0  0  0  0  0  0  0  0  0  0
   -9.2838   -2.2242  -15.4311 C   0  0  0  0  0  0  0  0  0  0  0  0
   -8.1173   -0.6773  -17.4788 C   0  0  0  0  0  0  0  0  0  0  0  0
   -8.8254   -0.9370  -15.1842 C   0  0  0  0  0  0  0  0  0  0  0  0
   -8.2437   -0.1610  -16.1967 C   0  0  0  0  0  0  0  0  0  0  0  0
   -7.7357   -0.7198  -12.9316 C   0  0  0  0  0  0  0  0  0  0  0  0
  -10.1805   -0.1712  -13.1685 C   0  0  0  0  0  0  0  0  0  0  0  0
   -7.7687   -0.0481  -11.5563 C   0  0  0  0  0  0  0  0  0  0  0  0
  -10.1078    0.5152  -11.8043 C   0  0  0  0  0  0  0  0  0  0  0  0
   -8.4506    1.2611  -14.4101 C   0  0  0  0  0  0  0  0  0  0  0  0
   -8.8172   -0.1660  -13.8829 C   0  0  0  0  0  0  0  0  0  0  0  0
   -7.4923    2.1922  -16.5744 C   0  0  0  0  0  0  0  0  0  0  0  0
   -9.0987   -0.1128  -10.9521 N   0  0  0  0  0  0  0  0  0  0  0  0
   -7.8433    1.0802  -15.7273 N   0  0  2  0  0  0  0  0  0  0  0  0
   -9.5133   -3.7427  -16.9395 H   0  0  0  0  0  0  0  0  0  0  0  0
   -8.4901   -2.3838  -18.7395 H   0  0  0  0  0  0  0  0  0  0  0  0
   -9.7221   -2.8273  -14.6434 H   0  0  0  0  0  0  0  0  0  0  0  0
   -7.6670   -0.1000  -18.2800 H   0  0  0  0  0  0  0  0  0  0  0  0
   -6.7353   -0.6022  -13.3677 H   0  0  0  0  0  0  0  0  0  0  0  0
   -7.8816   -1.8006  -12.7949 H   0  0  0  0  0  0  0  0  0  0  0  0
  -10.5276   -1.2029  -13.0218 H   0  0  0  0  0  0  0  0  0  0  0  0
  -10.9455    0.3169  -13.7856 H   0  0  0  0  0  0  0  0  0  0  0  0
   -7.0562   -0.5512  -10.8931 H   0  0  0  0  0  0  0  0  0  0  0  0
   -7.4414    0.9956  -11.6226 H   0  0  0  0  0  0  0  0  0  0  0  0
   -9.8944    1.5846  -11.9154 H   0  0  0  0  0  0  0  0  0  0  0  0
  -11.0823    0.4414  -11.3091 H   0  0  0  0  0  0  0  0  0  0  0  0
   -9.3528    1.8772  -14.5230 H   0  0  0  0  0  0  0  0  0  0  0  0
   -7.7690    1.7984  -13.7433 H   0  0  0  0  0  0  0  0  0  0  0  0
   -7.2124    3.0544  -15.9513 H   0  0  0  0  0  0  0  0  0  0  0  0
   -6.6430    1.9114  -17.2146 H   0  0  0  0  0  0  0  0  0  0  0  0
   -8.3537    2.4594  -17.2042 H   0  0  0  0  0  0  0  0  0  0  0  0
   -9.3497   -1.0914  -10.8094 H   0  0  0  0  0  0  0  0  0  0  0  0
  1  2  2  0  0  0  0
  1  3  1  0  0  0  0
  2  4  1  0  0  0  0
  3  5  2  0  0  0  0
  4  6  2  0  0  0  0
  5  6  1  0  0  0  0
  5 12  1  0  0  0  0
  6 15  1  0  0  0  0
  7  9  1  0  0  0  0
  7 12  1  0  0  0  0
  8 10  1  0  0  0  0
  8 12  1  0  0  0  0
  9 14  1  0  0  0  0
 10 14  1  0  0  0  0
 11 12  1  0  0  0  0
 11 15  1  0  0  0  0
 13 15  1  0  0  0  0
  1 16  1  0  0  0  0
  2 17  1  0  0  0  0
  3 18  1  0  0  0  0
  4 19  1  0  0  0  0
  7 20  1  0  0  0  0
  7 21  1  0  0  0  0
  8 22  1  0  0  0  0
  8 23  1  0  0  0  0
  9 24  1  0  0  0  0
  9 25  1  0  0  0  0
 10 26  1  0  0  0  0
 10 27  1  0  0  0  0
 11 28  1  0  0  0  0
 11 29  1  0  0  0  0
 13 30  1  0  0  0  0
 13 31  1  0  0  0  0
 13 32  1  0  0  0  0
 14 33  1  0  0  0  0
M  END
> <id>
EN300-203237

> <smiles>
Cl.Cl.CN1CC2(CCNCC2)C=3C=CC=CC13

> <MDLNUMBER>
MFCD28166086

> <IUPAC Name>
1-methyl-1,2-dihydrospiro[indole-3,4'-piperidine] dihydrochloride

> <CAS>
1803590-12-6

> <URL>
https://www.enaminestore.com/catalog/EN300-203237

> <Saltdate>
Cl

> <ROCS_ShapeQuery>
amalgated

> <ROCS_TanimotoCombo>
0.826 

> <ROCS_ShapeTanimoto>
0.523 

> <ROCS_ColorTanimoto>
0.303 

> <ROCS_RefTversky>
0.495 

> <ROCS_RefColorTversky>
0.405 

> <ROCS_RefTverskyCombo>
0.900 

> <ROCS_FitTversky>
1.117 

> <ROCS_FitColorTversky>
0.546 

> <ROCS_FitTverskyCombo>
1.664 

> <ROCS_ColorScore>
-2.795

> <ROCS_Overlap>
812.167

> <ROCS_Rank>
352                 

$$$$
untitled-dbase-4770_0
  -OEChem-10092318153D

 33 35  0     1  0  0  0  0  0999 V2000
   -9.1616   -2.7380  -16.7216 C   0  0  0  0  0  0  0  0  0  0  0  0
   -8.5821   -1.9696  -17.7391 C   0  0  0  0  0  0  0  0  0  0  0  0
   -9.2838   -2.2242  -15.4311 C   0  0  0  0  0  0  0  0  0  0  0  0
   -8.1173   -0.6773  -17.4788 C   0  0  0  0  0  0  0  0  0  0  0  0
   -8.8254   -0.9370  -15.1842 C   0  0  0  0  0  0  0  0  0  0  0  0
   -8.2437   -0.1610  -16.1967 C   0  0  0  0  0  0  0  0  0  0  0  0
   -7.7357   -0.7198  -12.9316 C   0  0  0  0  0  0  0  0  0  0  0  0
  -10.1805   -0.1712  -13.1685 C   0  0  0  0  0  0  0  0  0  0  0  0
   -7.7687   -0.0481  -11.5563 C   0  0  0  0  0  0  0  0  0  0  0  0
  -10.1078    0.5152  -11.8043 C   0  0  0  0  0  0  0  0  0  0  0  0
   -8.4506    1.2611  -14.4101 C   0  0  0  0  0  0  0  0  0  0  0  0
   -8.8172   -0.1660  -13.8829 C   0  0  0  0  0  0  0  0  0  0  0  0
   -7.4923    2.1922  -16.5744 C   0  0  0  0  0  0  0  0  0  0  0  0
   -9.0987   -0.1128  -10.9521 N   0  0  0  0  0  0  0  0  0  0  0  0
   -7.8433    1.0802  -15.7273 N   0  0  2  0  0  0  0  0  0  0  0  0
   -9.5133   -3.7427  -16.9395 H   0  0  0  0  0  0  0  0  0  0  0  0
   -8.4901   -2.3838  -18.7395 H   0  0  0  0  0  0  0  0  0  0  0  0
   -9.7221   -2.8273  -14.6434 H   0  0  0  0  0  0  0  0  0  0  0  0
   -7.6670   -0.1000  -18.2800 H   0  0  0  0  0  0  0  0  0  0  0  0
   -6.7353   -0.6022  -13.3677 H   0  0  0  0  0  0  0  0  0  0  0  0
   -7.8816   -1.8006  -12.7949 H   0  0  0  0  0  0  0  0  0  0  0  0
  -10.5276   -1.2029  -13.0218 H   0  0  0  0  0  0  0  0  0  0  0  0
  -10.9455    0.3169  -13.7856 H   0  0  0  0  0  0  0  0  0  0  0  0
   -7.0562   -0.5512  -10.8931 H   0  0  0  0  0  0  0  0  0  0  0  0
   -7.4414    0.9956  -11.6226 H   0  0  0  0  0  0  0  0  0  0  0  0
   -9.8944    1.5846  -11.9154 H   0  0  0  0  0  0  0  0  0  0  0  0
  -11.0823    0.4414  -11.3091 H   0  0  0  0  0  0  0  0  0  0  0  0
   -9.3528    1.8772  -14.5230 H   0  0  0  0  0  0  0  0  0  0  0  0
   -7.7690    1.7984  -13.7433 H   0  0  0  0  0  0  0  0  0  0  0  0
   -7.2124    3.0544  -15.9513 H   0  0  0  0  0  0  0  0  0  0  0  0
   -6.6430    1.9114  -17.2146 H   0  0  0  0  0  0  0  0  0  0  0  0
   -8.3537    2.4594  -17.2042 H   0  0  0  0  0  0  0  0  0  0  0  0
   -9.3497   -1.0914  -10.8094 H   0  0  0  0  0  0  0  0  0  0  0  0
  1  2  2  0  0  0  0
  1  3  1  0  0  0  0
  2  4  1  0  0  0  0
  3  5  2  0  0  0  0
  4  6  2  0  0  0  0
  5  6  1  0  0  0  0
  5 12  1  0  0  0  0
  6 15  1  0  0  0  0
  7  9  1  0  0  0  0
  7 12  1  0  0  0  0
  8 10  1  0  0  0  0
  8 12  1  0  0  0  0
  9 14  1  0  0  0  0
 10 14  1  0  0  0  0
 11 12  1  0  0  0  0
 11 15  1  0  0  0  0
 13 15  1  0  0  0  0
  1 16  1  0  0  0  0
  2 17  1  0  0  0  0
  3 18  1  0  0  0  0
  4 19  1  0  0  0  0
  7 20  1  0  0  0  0
  7 21  1  0  0  0  0
  8 22  1  0  0  0  0
  8 23  1  0  0  0  0
  9 24  1  0  0  0  0
  9 25  1  0  0  0  0
 10 26  1  0  0  0  0
 10 27  1  0  0  0  0
 11 28  1  0  0  0  0
 11 29  1  0  0  0  0
 13 30  1  0  0  0  0
 13 31  1  0  0  0  0
 13 32  1  0  0  0  0
 14 33  1  0  0  0  0
M  END
> <id>
EN300-203238

> <smiles>
CN1CC2(CCNCC2)C=3C=CC=CC13

> <MDLNUMBER>
MFCD21876693

> <IUPAC Name>
1-methyl-1,2-dihydrospiro[indole-3,4'-piperidine]

> <CAS>
208932-96-1

> <Purity>
95

> <URL>
https://www.enaminestore.com/catalog/EN300-203238

> <ROCS_ShapeQuery>
amalgated

> <ROCS_TanimotoCombo>
0.826 

> <ROCS_ShapeTanimoto>
0.523 

> <ROCS_ColorTanimoto>
0.303 

> <ROCS_RefTversky>
0.495 

> <ROCS_RefColorTversky>
0.405 

> <ROCS_RefTverskyCombo>
0.900 

> <ROCS_FitTversky>
1.117 

> <ROCS_FitColorTversky>
0.546 

> <ROCS_FitTverskyCombo>
1.664 

> <ROCS_ColorScore>
-2.795

> <ROCS_Overlap>
812.167

> <ROCS_Rank>
353                 

$$$$
untitled-dbase-37381_0
  -OEChem-10092318153D

 22 24  0     0  0  0  0  0  0999 V2000
   -7.8441    0.6686  -12.4787 C   0  0  0  0  0  0  0  0  0  0  0  0
  -10.1315   -0.8818  -12.1635 C   0  0  0  0  0  0  0  0  0  0  0  0
   -7.4937   -0.8290  -17.3014 C   0  0  0  0  0  0  0  0  0  0  0  0
   -9.7819   -2.3781  -16.9870 C   0  0  0  0  0  0  0  0  0  0  0  0
   -8.2502    0.2795  -11.2024 C   0  0  0  0  0  0  0  0  0  0  0  0
   -9.3936   -0.4955  -11.0449 C   0  0  0  0  0  0  0  0  0  0  0  0
   -7.7439   -1.8855  -18.1765 C   0  0  0  0  0  0  0  0  0  0  0  0
   -8.8877   -2.6599  -18.0194 C   0  0  0  0  0  0  0  0  0  0  0  0
   -8.5743    0.2798  -13.6125 C   0  0  0  0  0  0  0  0  0  0  0  0
   -9.7287   -0.5025  -13.4534 C   0  0  0  0  0  0  0  0  0  0  0  0
   -8.3825   -0.5403  -16.2542 C   0  0  0  0  0  0  0  0  0  0  0  0
   -9.5372   -1.3223  -16.0954 C   0  0  0  0  0  0  0  0  0  0  0  0
   -7.5411    0.6549  -10.1301 F   0  0  0  0  0  0  0  0  0  0  0  0
   -9.7883   -0.8680   -9.8205 F   0  0  0  0  0  0  0  0  0  0  0  0
   -6.8852   -2.1508  -19.1693 F   0  0  0  0  0  0  0  0  0  0  0  0
   -9.1326   -3.6731  -18.8603 F   0  0  0  0  0  0  0  0  0  0  0  0
   -7.9910    0.8477  -15.2015 S   0  0  0  0  0  0  0  0  0  0  0  0
  -10.7516   -1.0228  -14.8212 S   0  0  0  0  0  0  0  0  0  0  0  0
   -6.9486    1.2793  -12.5741 H   0  0  0  0  0  0  0  0  0  0  0  0
  -11.0252   -1.4836  -12.0125 H   0  0  0  0  0  0  0  0  0  0  0  0
   -6.5943   -0.2349  -17.4499 H   0  0  0  0  0  0  0  0  0  0  0  0
  -10.6720   -2.9961  -16.8890 H   0  0  0  0  0  0  0  0  0  0  0  0
  1  5  1  0  0  0  0
  1  9  2  0  0  0  0
  2  6  1  0  0  0  0
  2 10  2  0  0  0  0
  3  7  2  0  0  0  0
  3 11  1  0  0  0  0
  4  8  2  0  0  0  0
  4 12  1  0  0  0  0
  5  6  2  0  0  0  0
  5 13  1  0  0  0  0
  6 14  1  0  0  0  0
  7  8  1  0  0  0  0
  7 15  1  0  0  0  0
  8 16  1  0  0  0  0
  9 10  1  0  0  0  0
  9 17  1  0  0  0  0
 10 18  1  0  0  0  0
 11 12  2  0  0  0  0
 11 17  1  0  0  0  0
 12 18  1  0  0  0  0
  1 19  1  0  0  0  0
  2 20  1  0  0  0  0
  3 21  1  0  0  0  0
  4 22  1  0  0  0  0
M  END
> <id>
EN300-7355730

> <smiles>
FC=1C=C2SC=3C=C(F)C(F)=CC3SC2=CC1F

> <MDLNUMBER>
MFCD31924335

> <IUPAC Name>
2,3,7,8-tetrafluorothianthrene

> <CAS>
1225203-47-3

> <Purity>
95

> <URL>
https://www.enaminestore.com/catalog/EN300-7355730

> <ROCS_ShapeQuery>
amalgated

> <ROCS_TanimotoCombo>
0.826 

> <ROCS_ShapeTanimoto>
0.576 

> <ROCS_ColorTanimoto>
0.250 

> <ROCS_RefTversky>
0.552 

> <ROCS_RefColorTversky>
0.294 

> <ROCS_RefTverskyCombo>
0.846 

> <ROCS_FitTversky>
1.079 

> <ROCS_FitColorTversky>
0.624 

> <ROCS_FitTverskyCombo>
1.703 

> <ROCS_ColorScore>
-1.999

> <ROCS_Overlap>
909.128

> <ROCS_Rank>
354                 

$$$$
untitled-dbase-26234_0
  -OEChem-10092318153D

 30 32  0     1  0  0  0  0  0999 V2000
   -9.4010   -2.3402  -15.5226 C   0  0  0  0  0  0  0  0  0  0  0  0
   -9.1745   -2.8055  -16.8236 C   0  0  0  0  0  0  0  0  0  0  0  0
   -7.6823   -0.9691  -17.2223 C   0  0  0  0  0  0  0  0  0  0  0  0
   -8.7742   -1.1806  -15.0304 C   0  0  0  0  0  0  0  0  0  0  0  0
   -8.3124   -2.1226  -17.6719 C   0  0  0  0  0  0  0  0  0  0  0  0
   -7.9229   -0.4986  -15.9252 C   0  0  0  0  0  0  0  0  0  0  0  0
  -10.0156   -0.6989  -11.4873 C   0  0  0  0  0  0  0  0  0  0  0  0
   -9.6018   -1.5266  -12.7034 C   0  0  0  0  0  0  0  0  0  0  0  0
   -8.5376    1.0842  -12.0696 C   0  0  0  0  0  0  0  0  0  0  0  0
   -7.7923    1.3074  -14.4498 C   0  0  0  0  0  0  0  0  0  0  0  0
   -8.0195    0.3328  -13.2987 C   0  0  2  0  0  0  0  0  0  0  0  0
   -8.9326    0.1567  -11.0127 N   0  0  0  0  0  0  0  0  0  0  0  0
   -8.9698   -0.6977  -13.7315 N   0  0  1  0  0  0  0  0  0  0  0  0
   -8.0783   -2.5961  -18.9781 N   0  0  0  0  0  0  0  0  0  0  0  0
   -7.2407    0.6458  -15.5862 O   0  0  0  0  0  0  0  0  0  0  0  0
  -10.0790   -2.9243  -14.9070 H   0  0  0  0  0  0  0  0  0  0  0  0
   -9.6783   -3.7092  -17.1583 H   0  0  0  0  0  0  0  0  0  0  0  0
   -7.0058   -0.4251  -17.8778 H   0  0  0  0  0  0  0  0  0  0  0  0
  -10.8984   -0.0928  -11.7269 H   0  0  0  0  0  0  0  0  0  0  0  0
  -10.3107   -1.3776  -10.6792 H   0  0  0  0  0  0  0  0  0  0  0  0
   -8.9033   -2.3154  -12.3966 H   0  0  0  0  0  0  0  0  0  0  0  0
  -10.5123   -2.0065  -13.0776 H   0  0  0  0  0  0  0  0  0  0  0  0
   -7.7439    1.7345  -11.6838 H   0  0  0  0  0  0  0  0  0  0  0  0
   -9.3795    1.7382  -12.3317 H   0  0  0  0  0  0  0  0  0  0  0  0
   -8.7155    1.8242  -14.7442 H   0  0  0  0  0  0  0  0  0  0  0  0
   -7.0751    2.0801  -14.1501 H   0  0  0  0  0  0  0  0  0  0  0  0
   -7.0711   -0.1644  -13.0495 H   0  0  0  0  0  0  0  0  0  0  0  0
   -9.2539    0.6872  -10.2033 H   0  0  0  0  0  0  0  0  0  0  0  0
   -7.4916   -2.0673  -19.5925 H   0  0  0  0  0  0  0  0  0  0  0  0
   -8.5755   -3.4016  -19.3028 H   0  0  0  0  0  0  0  0  0  0  0  0
  1  2  1  0  0  0  0
  1  4  2  0  0  0  0
  2  5  2  0  0  0  0
  3  5  1  0  0  0  0
  3  6  2  0  0  0  0
  4  6  1  0  0  0  0
  4 13  1  0  0  0  0
  5 14  1  0  0  0  0
  6 15  1  0  0  0  0
  7  8  1  0  0  0  0
  7 12  1  0  0  0  0
  8 13  1  0  0  0  0
  9 11  1  0  0  0  0
  9 12  1  0  0  0  0
 10 11  1  0  0  0  0
 10 15  1  0  0  0  0
 11 13  1  0  0  0  0
  1 16  1  0  0  0  0
  2 17  1  0  0  0  0
  3 18  1  0  0  0  0
  7 19  1  0  0  0  0
  7 20  1  0  0  0  0
  8 21  1  0  0  0  0
  8 22  1  0  0  0  0
  9 23  1  0  0  0  0
  9 24  1  0  0  0  0
 10 25  1  0  0  0  0
 10 26  1  0  0  0  0
 11 27  1  0  0  0  0
 12 28  1  0  0  0  0
 14 29  1  0  0  0  0
 14 30  1  0  0  0  0
M  END
> <id>
EN300-30285092

> <smiles>
NC=1C=CC=2N3CCNCC3COC2C1

> <IUPAC Name>
8-oxa-1,12-diazatricyclo[8.4.0.0,2,7]tetradeca-2,4,6-trien-5-amine

> <URL>
https://www.enaminestore.com/catalog/EN300-30285092

> <ROCS_ShapeQuery>
amalgated

> <ROCS_TanimotoCombo>
0.826 

> <ROCS_ShapeTanimoto>
0.503 

> <ROCS_ColorTanimoto>
0.323 

> <ROCS_RefTversky>
0.485 

> <ROCS_RefColorTversky>
0.520 

> <ROCS_RefTverskyCombo>
1.004 

> <ROCS_FitTversky>
1.079 

> <ROCS_FitColorTversky>
0.460 

> <ROCS_FitTverskyCombo>
1.540 

> <ROCS_ColorScore>
-3.664

> <ROCS_Overlap>
794.898

> <ROCS_Rank>
355                 

$$$$
untitled-dbase-34213_30
  -OEChem-10092318153D

 47 48  0     1  0  0  0  0  0999 V2000
   -8.7884    0.6069  -13.7831 C   0  0  0  0  0  0  0  0  0  0  0  0
  -10.2423   -3.1698  -17.1978 C   0  0  0  0  0  0  0  0  0  0  0  0
  -10.5922   -1.7532  -16.7571 C   0  0  0  0  0  0  0  0  0  0  0  0
   -6.7227    1.1856  -16.9111 C   0  0  0  0  0  0  0  0  0  0  0  0
   -8.7713   -3.5061  -16.9561 C   0  0  0  0  0  0  0  0  0  0  0  0
   -9.6404   -0.7093  -17.3441 C   0  0  0  0  0  0  0  0  0  0  0  0
   -7.2431    0.0426  -17.7883 C   0  0  0  0  0  0  0  0  0  0  0  0
   -7.6814    1.5851  -15.8044 C   0  0  0  0  0  0  0  0  0  0  0  0
   -7.8523   -0.8982  -15.5275 C   0  0  0  0  0  0  0  0  0  0  0  0
   -7.8050   -2.4607  -17.5463 C   0  0  2  0  0  0  0  0  0  0  0  0
   -8.1373   -1.0061  -17.0530 C   0  0  1  0  0  0  0  0  0  0  0  0
  -11.1021    0.2203  -12.1455 C   0  0  0  0  0  0  0  0  0  0  0  0
  -10.0341   -1.9501  -11.4690 C   0  0  0  0  0  0  0  0  0  0  0  0
   -8.8908    0.2236  -10.9436 C   0  0  0  0  0  0  0  0  0  0  0  0
   -9.7811   -0.5192  -11.9388 C   0  0  0  0  0  0  0  0  0  0  0  0
   -8.1183    0.4436  -15.0003 N   0  0  0  0  0  0  0  0  0  0  0  0
   -7.8322   -2.6089  -19.0095 N   0  0  0  0  0  0  0  0  0  0  0  0
   -9.0684    1.6944  -13.2829 O   0  0  0  0  0  0  0  0  0  0  0  0
   -9.0982   -0.5921  -13.1954 O   0  0  0  0  0  0  0  0  0  0  0  0
  -10.8703   -3.8853  -16.6509 H   0  0  0  0  0  0  0  0  0  0  0  0
  -10.4782   -3.2941  -18.2616 H   0  0  0  0  0  0  0  0  0  0  0  0
  -11.6281   -1.5215  -17.0396 H   0  0  0  0  0  0  0  0  0  0  0  0
  -10.5577   -1.6976  -15.6599 H   0  0  0  0  0  0  0  0  0  0  0  0
   -5.7568    0.8858  -16.4665 H   0  0  0  0  0  0  0  0  0  0  0  0
   -6.4919    2.0641  -17.5397 H   0  0  0  0  0  0  0  0  0  0  0  0
   -8.6107   -3.5924  -15.8681 H   0  0  0  0  0  0  0  0  0  0  0  0
   -8.5554   -4.5063  -17.3674 H   0  0  0  0  0  0  0  0  0  0  0  0
   -9.8323   -0.6273  -18.4179 H   0  0  0  0  0  0  0  0  0  0  0  0
   -9.9007    0.2676  -16.9171 H   0  0  0  0  0  0  0  0  0  0  0  0
   -7.7695    0.4773  -18.6549 H   0  0  0  0  0  0  0  0  0  0  0  0
   -6.3615   -0.4669  -18.2186 H   0  0  0  0  0  0  0  0  0  0  0  0
   -7.1954    2.2954  -15.1141 H   0  0  0  0  0  0  0  0  0  0  0  0
   -8.5496    2.1118  -16.2318 H   0  0  0  0  0  0  0  0  0  0  0  0
   -8.4280   -1.6589  -14.9815 H   0  0  0  0  0  0  0  0  0  0  0  0
   -6.7938   -1.1016  -15.3062 H   0  0  0  0  0  0  0  0  0  0  0  0
   -6.7981   -2.7159  -17.2139 H   0  0  0  0  0  0  0  0  0  0  0  0
  -10.9249    1.2478  -12.4827 H   0  0  0  0  0  0  0  0  0  0  0  0
  -11.7353   -0.2834  -12.8831 H   0  0  0  0  0  0  0  0  0  0  0  0
  -11.6595    0.2956  -11.2047 H   0  0  0  0  0  0  0  0  0  0  0  0
   -9.0890   -2.4845  -11.3194 H   0  0  0  0  0  0  0  0  0  0  0  0
  -10.5924   -2.5158  -12.2237 H   0  0  0  0  0  0  0  0  0  0  0  0
  -10.5979   -1.9736  -10.5308 H   0  0  0  0  0  0  0  0  0  0  0  0
   -7.9431   -0.3067  -10.7952 H   0  0  0  0  0  0  0  0  0  0  0  0
   -8.6683    1.2405  -11.2825 H   0  0  0  0  0  0  0  0  0  0  0  0
   -9.3701    0.2814   -9.9597 H   0  0  0  0  0  0  0  0  0  0  0  0
   -7.1593   -1.9901  -19.3911 H   0  0  0  0  0  0  0  0  0  0  0  0
   -7.6107   -3.5504  -19.2240 H   0  0  0  0  0  0  0  0  0  0  0  0
  1 16  1  0  0  0  0
  1 18  2  0  0  0  0
  1 19  1  0  0  0  0
  2  3  1  0  0  0  0
  2  5  1  0  0  0  0
  3  6  1  0  0  0  0
  4  7  1  0  0  0  0
  4  8  1  0  0  0  0
  5 10  1  0  0  0  0
  6 11  1  0  0  0  0
  7 11  1  0  0  0  0
  8 16  1  0  0  0  0
  9 11  1  0  0  0  0
  9 16  1  0  0  0  0
 10 11  1  0  0  0  0
 10 17  1  0  0  0  0
 12 15  1  0  0  0  0
 13 15  1  0  0  0  0
 14 15  1  0  0  0  0
 15 19  1  0  0  0  0
  2 20  1  0  0  0  0
  2 21  1  0  0  0  0
  3 22  1  0  0  0  0
  3 23  1  0  0  0  0
  4 24  1  0  0  0  0
  4 25  1  0  0  0  0
  5 26  1  0  0  0  0
  5 27  1  0  0  0  0
  6 28  1  0  0  0  0
  6 29  1  0  0  0  0
  7 30  1  0  0  0  0
  7 31  1  0  0  0  0
  8 32  1  0  0  0  0
  8 33  1  0  0  0  0
  9 34  1  0  0  0  0
  9 35  1  0  0  0  0
 10 36  1  0  0  0  0
 12 37  1  0  0  0  0
 12 38  1  0  0  0  0
 12 39  1  0  0  0  0
 13 40  1  0  0  0  0
 13 41  1  0  0  0  0
 13 42  1  0  0  0  0
 14 43  1  0  0  0  0
 14 44  1  0  0  0  0
 14 45  1  0  0  0  0
 17 46  1  0  0  0  0
 17 47  1  0  0  0  0
M  END
> <id>
EN300-372742

> <smiles>
CC(C)(C)OC(=O)N1CCCC2(CCCCC2N)C1

> <MDLNUMBER>
MFCD30731239

> <IUPAC Name>
tert-butyl 7-amino-2-azaspiro[5.5]undecane-2-carboxylate

> <CAS>
1782013-76-6

> <Purity>
95

> <URL>
https://www.enaminestore.com/catalog/EN300-372742

> <ROCS_ShapeQuery>
amalgated

> <ROCS_TanimotoCombo>
0.825 

> <ROCS_ShapeTanimoto>
0.590 

> <ROCS_ColorTanimoto>
0.236 

> <ROCS_RefTversky>
0.565 

> <ROCS_RefColorTversky>
0.357 

> <ROCS_RefTverskyCombo>
0.922 

> <ROCS_FitTversky>
1.081 

> <ROCS_FitColorTversky>
0.410 

> <ROCS_FitTverskyCombo>
1.490 

> <ROCS_ColorScore>
-2.479

> <ROCS_Overlap>
930.084

> <ROCS_Rank>
356                 

$$$$
untitled-dbase-13986_61
  -OEChem-10092318153D

 46 47  0     0  0  0  0  0  0999 V2000
   -9.5434    0.1081  -12.1123 C   0  0  0  0  0  0  0  0  0  0  0  0
   -9.0465   -0.7872  -18.2477 C   0  0  0  0  0  0  0  0  0  0  0  0
   -8.5935   -2.6971  -16.6624 C   0  0  0  0  0  0  0  0  0  0  0  0
   -9.7745   -0.1817  -17.0394 C   0  0  0  0  0  0  0  0  0  0  0  0
   -8.7017   -1.8031  -15.4179 C   0  0  0  0  0  0  0  0  0  0  0  0
   -7.6341    0.9396  -13.5648 C   0  0  0  0  0  0  0  0  0  0  0  0
   -9.8056    0.3231  -14.5732 C   0  0  0  0  0  0  0  0  0  0  0  0
   -7.4144    1.3854  -15.0018 C   0  0  0  0  0  0  0  0  0  0  0  0
   -8.0903   -1.9301  -17.8813 C   0  0  0  0  0  0  0  0  0  0  0  0
   -8.9927   -0.3117  -15.7224 C   0  0  0  0  0  0  0  0  0  0  0  0
   -7.9108    0.2608   -8.7296 C   0  0  0  0  0  0  0  0  0  0  0  0
  -10.2804    0.8464   -9.3041 C   0  0  0  0  0  0  0  0  0  0  0  0
   -9.4647   -1.5083   -9.5842 C   0  0  0  0  0  0  0  0  0  0  0  0
   -9.0791   -0.0276   -9.6793 C   0  0  0  0  0  0  0  0  0  0  0  0
   -8.9968    0.4438  -13.3618 N   0  0  0  0  0  0  0  0  0  0  0  0
   -7.9241   -2.8254  -19.0250 N   0  0  0  0  0  0  0  0  0  0  0  0
   -8.6793    0.2756  -11.0339 N   0  0  0  0  0  0  0  0  0  0  0  0
  -10.6970   -0.3081  -11.9709 O   0  0  0  0  0  0  0  0  0  0  0  0
   -7.7228    0.3428  -15.9209 O   0  0  0  0  0  0  0  0  0  0  0  0
   -9.7891   -1.1340  -18.9821 H   0  0  0  0  0  0  0  0  0  0  0  0
   -8.4743    0.0040  -18.7560 H   0  0  0  0  0  0  0  0  0  0  0  0
   -7.9098   -3.5266  -16.4486 H   0  0  0  0  0  0  0  0  0  0  0  0
   -9.5705   -3.1484  -16.8678 H   0  0  0  0  0  0  0  0  0  0  0  0
   -9.9565    0.8836  -17.2625 H   0  0  0  0  0  0  0  0  0  0  0  0
  -10.7696   -0.6472  -16.9403 H   0  0  0  0  0  0  0  0  0  0  0  0
   -9.4886   -2.2023  -14.7494 H   0  0  0  0  0  0  0  0  0  0  0  0
   -7.7652   -1.9140  -14.8419 H   0  0  0  0  0  0  0  0  0  0  0  0
   -6.8714    0.1978  -13.3082 H   0  0  0  0  0  0  0  0  0  0  0  0
   -7.5115    1.7929  -12.8816 H   0  0  0  0  0  0  0  0  0  0  0  0
  -10.0975    1.3450  -14.8396 H   0  0  0  0  0  0  0  0  0  0  0  0
  -10.7224   -0.2418  -14.3868 H   0  0  0  0  0  0  0  0  0  0  0  0
   -8.0784    2.2241  -15.2276 H   0  0  0  0  0  0  0  0  0  0  0  0
   -6.3926    1.7387  -15.1603 H   0  0  0  0  0  0  0  0  0  0  0  0
   -7.1105   -1.5078  -17.6585 H   0  0  0  0  0  0  0  0  0  0  0  0
   -7.0374   -0.3535   -8.9779 H   0  0  0  0  0  0  0  0  0  0  0  0
   -7.6072    1.3124   -8.7785 H   0  0  0  0  0  0  0  0  0  0  0  0
   -8.1808    0.0351   -7.6913 H   0  0  0  0  0  0  0  0  0  0  0  0
  -11.1301    0.6576   -9.9706 H   0  0  0  0  0  0  0  0  0  0  0  0
  -10.0352    1.9117   -9.3861 H   0  0  0  0  0  0  0  0  0  0  0  0
  -10.6085    0.6539   -8.2767 H   0  0  0  0  0  0  0  0  0  0  0  0
  -10.2997   -1.7429  -10.2546 H   0  0  0  0  0  0  0  0  0  0  0  0
   -8.6239   -2.1575   -9.8523 H   0  0  0  0  0  0  0  0  0  0  0  0
   -9.7817   -1.7705   -8.5681 H   0  0  0  0  0  0  0  0  0  0  0  0
   -7.5808   -2.2902  -19.7853 H   0  0  0  0  0  0  0  0  0  0  0  0
   -7.2778   -3.5316  -18.7687 H   0  0  0  0  0  0  0  0  0  0  0  0
   -7.7451    0.6196  -11.2053 H   0  0  0  0  0  0  0  0  0  0  0  0
  1 15  1  0  0  0  0
  1 17  1  0  0  0  0
  1 18  2  0  0  0  0
  2  4  1  0  0  0  0
  2  9  1  0  0  0  0
  3  5  1  0  0  0  0
  3  9  1  0  0  0  0
  4 10  1  6  0  0  0
  5 10  1  0  0  0  0
  6  8  1  0  0  0  0
  6 15  1  0  0  0  0
  7 10  1  0  0  0  0
  7 15  1  0  0  0  0
  8 19  1  0  0  0  0
  9 16  1  6  0  0  0
 10 19  1  0  0  0  0
 11 14  1  0  0  0  0
 12 14  1  0  0  0  0
 13 14  1  0  0  0  0
 14 17  1  0  0  0  0
  2 20  1  0  0  0  0
  2 21  1  0  0  0  0
  3 22  1  0  0  0  0
  3 23  1  0  0  0  0
  4 24  1  0  0  0  0
  4 25  1  0  0  0  0
  5 26  1  0  0  0  0
  5 27  1  0  0  0  0
  6 28  1  0  0  0  0
  6 29  1  0  0  0  0
  7 30  1  0  0  0  0
  7 31  1  0  0  0  0
  8 32  1  0  0  0  0
  8 33  1  0  0  0  0
  9 34  1  0  0  0  0
 11 35  1  0  0  0  0
 11 36  1  0  0  0  0
 11 37  1  0  0  0  0
 12 38  1  0  0  0  0
 12 39  1  0  0  0  0
 12 40  1  0  0  0  0
 13 41  1  0  0  0  0
 13 42  1  0  0  0  0
 13 43  1  0  0  0  0
 16 44  1  0  0  0  0
 16 45  1  0  0  0  0
 17 46  1  0  0  0  0
M  END
> <id>
EN300-1084975

> <smiles>
CC(C)(C)NC(=O)N1CCO[C@]2(CC[C@H](N)CC2)C1

> <IUPAC Name>
(6r,9r)-9-amino-N-tert-butyl-1-oxa-4-azaspiro[5.5]undecane-4-carboxamide

> <CAS>
2137065-38-2

> <URL>
https://www.enaminestore.com/catalog/EN300-1084975

> <ROCS_ShapeQuery>
amalgated

> <ROCS_TanimotoCombo>
0.825 

> <ROCS_ShapeTanimoto>
0.502 

> <ROCS_ColorTanimoto>
0.323 

> <ROCS_RefTversky>
0.510 

> <ROCS_RefColorTversky>
0.520 

> <ROCS_RefTverskyCombo>
1.030 

> <ROCS_FitTversky>
0.970 

> <ROCS_FitColorTversky>
0.461 

> <ROCS_FitTverskyCombo>
1.431 

> <ROCS_ColorScore>
-3.666

> <ROCS_Overlap>
839.134

> <ROCS_Rank>
357                 

$$$$
untitled-dbase-8712_1
  -OEChem-10092318153D

 50 54  0     0  0  0  0  0  0999 V2000
   -8.2289    0.4425  -15.0672 C   0  0  0  0  0  0  0  0  0  0  0  0
   -9.3434   -2.0162  -14.3900 C   0  0  0  0  0  0  0  0  0  0  0  0
   -8.4248   -0.5097  -16.0790 C   0  0  0  0  0  0  0  0  0  0  0  0
   -8.5808    0.1777  -13.7309 C   0  0  0  0  0  0  0  0  0  0  0  0
   -8.9748   -1.7306  -15.7057 C   0  0  0  0  0  0  0  0  0  0  0  0
   -9.1575   -1.0519  -13.4027 C   0  0  0  0  0  0  0  0  0  0  0  0
   -8.0658   -0.2992  -17.4925 C   0  0  0  0  0  0  0  0  0  0  0  0
   -8.2417   -1.2942  -18.3858 C   0  0  0  0  0  0  0  0  0  0  0  0
   -8.8660   -2.5860  -17.9854 C   0  0  0  0  0  0  0  0  0  0  0  0
   -8.3608    1.2289  -12.6831 C   0  0  0  0  0  0  0  0  0  0  0  0
   -7.5000    1.0459  -17.8971 C   0  0  0  0  0  0  0  0  0  0  0  0
   -7.8171   -1.1664  -19.8312 C   0  0  0  0  0  0  0  0  0  0  0  0
   -8.4138    0.6078  -11.2943 C   0  0  0  0  0  0  0  0  0  0  0  0
   -7.4316    1.2700  -19.4081 C   0  0  0  0  0  0  0  0  0  0  0  0
   -6.9093    0.0300  -20.1109 C   0  0  0  0  0  0  0  0  0  0  0  0
  -12.0222   -1.2298   -9.6128 C   0  0  0  0  0  0  0  0  0  0  0  0
  -12.1537   -0.5484  -10.9693 C   0  0  0  0  0  0  0  0  0  0  0  0
  -10.6968   -1.9704   -9.4862 C   0  0  0  0  0  0  0  0  0  0  0  0
  -10.9678    0.3747  -11.2564 C   0  0  0  0  0  0  0  0  0  0  0  0
   -9.5093   -1.0501   -9.7725 C   0  0  0  0  0  0  0  0  0  0  0  0
   -9.6078   -0.3542  -11.1498 C   0  0  0  0  0  0  0  0  0  0  0  0
   -9.1447   -3.5735  -18.7680 N   0  0  0  0  0  0  0  0  0  0  0  0
   -9.1887   -2.7472  -16.6510 O   0  0  0  0  0  0  0  0  0  0  0  0
   -9.5459   -1.4032  -12.1385 O   0  0  0  0  0  0  0  0  0  0  0  0
   -9.7182   -4.5907  -18.0034 O   0  0  0  0  0  0  0  0  0  0  0  0
   -7.7967    1.4142  -15.2963 H   0  0  0  0  0  0  0  0  0  0  0  0
   -9.7628   -2.9866  -14.1379 H   0  0  0  0  0  0  0  0  0  0  0  0
   -7.3890    1.7066  -12.8528 H   0  0  0  0  0  0  0  0  0  0  0  0
   -9.1299    2.0070  -12.7565 H   0  0  0  0  0  0  0  0  0  0  0  0
   -8.1061    1.8586  -17.4788 H   0  0  0  0  0  0  0  0  0  0  0  0
   -6.4896    1.1399  -17.4781 H   0  0  0  0  0  0  0  0  0  0  0  0
   -7.2877   -2.0733  -20.1540 H   0  0  0  0  0  0  0  0  0  0  0  0
   -8.7215   -1.0877  -20.4512 H   0  0  0  0  0  0  0  0  0  0  0  0
   -7.4660    0.1011  -11.0773 H   0  0  0  0  0  0  0  0  0  0  0  0
   -8.5187    1.4202  -10.5612 H   0  0  0  0  0  0  0  0  0  0  0  0
   -8.4304    1.5145  -19.7898 H   0  0  0  0  0  0  0  0  0  0  0  0
   -6.7877    2.1288  -19.6254 H   0  0  0  0  0  0  0  0  0  0  0  0
   -5.8907   -0.1885  -19.7651 H   0  0  0  0  0  0  0  0  0  0  0  0
   -6.8491    0.2036  -21.1912 H   0  0  0  0  0  0  0  0  0  0  0  0
  -12.0974   -0.4777   -8.8177 H   0  0  0  0  0  0  0  0  0  0  0  0
  -12.8526   -1.9303   -9.4689 H   0  0  0  0  0  0  0  0  0  0  0  0
  -12.2317   -1.3090  -11.7565 H   0  0  0  0  0  0  0  0  0  0  0  0
  -13.0841    0.0315  -11.0000 H   0  0  0  0  0  0  0  0  0  0  0  0
  -10.6035   -2.3835   -8.4758 H   0  0  0  0  0  0  0  0  0  0  0  0
  -10.6831   -2.8199  -10.1790 H   0  0  0  0  0  0  0  0  0  0  0  0
  -11.0938    0.7829  -12.2659 H   0  0  0  0  0  0  0  0  0  0  0  0
  -10.9952    1.2176  -10.5557 H   0  0  0  0  0  0  0  0  0  0  0  0
   -9.4448   -0.2921   -8.9801 H   0  0  0  0  0  0  0  0  0  0  0  0
   -8.6001   -1.6599   -9.7049 H   0  0  0  0  0  0  0  0  0  0  0  0
   -9.8849   -5.2699  -18.6788 H   0  0  0  0  0  0  0  0  0  0  0  0
  1  3  2  0  0  0  0
  1  4  1  0  0  0  0
  2  5  2  0  0  0  0
  2  6  1  0  0  0  0
  3  5  1  0  0  0  0
  3  7  1  0  0  0  0
  4  6  2  0  0  0  0
  4 10  1  0  0  0  0
  5 23  1  0  0  0  0
  6 24  1  0  0  0  0
  7  8  2  0  0  0  0
  7 11  1  0  0  0  0
  8  9  1  0  0  0  0
  8 12  1  0  0  0  0
  9 22  2  3  0  0  0
  9 23  1  0  0  0  0
 10 13  1  0  0  0  0
 11 14  1  0  0  0  0
 12 15  1  0  0  0  0
 13 21  1  0  0  0  0
 14 15  1  0  0  0  0
 16 17  1  0  0  0  0
 16 18  1  0  0  0  0
 17 19  1  0  0  0  0
 18 20  1  0  0  0  0
 19 21  1  0  0  0  0
 20 21  1  0  0  0  0
 21 24  1  0  0  0  0
 22 25  1  0  0  0  0
  1 26  1  0  0  0  0
  2 27  1  0  0  0  0
 10 28  1  0  0  0  0
 10 29  1  0  0  0  0
 11 30  1  0  0  0  0
 11 31  1  0  0  0  0
 12 32  1  0  0  0  0
 12 33  1  0  0  0  0
 13 34  1  0  0  0  0
 13 35  1  0  0  0  0
 14 36  1  0  0  0  0
 14 37  1  0  0  0  0
 15 38  1  0  0  0  0
 15 39  1  0  0  0  0
 16 40  1  0  0  0  0
 16 41  1  0  0  0  0
 17 42  1  0  0  0  0
 17 43  1  0  0  0  0
 18 44  1  0  0  0  0
 18 45  1  0  0  0  0
 19 46  1  0  0  0  0
 19 47  1  0  0  0  0
 20 48  1  0  0  0  0
 20 49  1  0  0  0  0
 25 50  1  0  0  0  0
M  END
> <id>
EN300-302924

> <smiles>
ON=C1OC=2C=C3OC4(CCCCC4)CCC3=CC2C=5CCCCC51

> <IUPAC Name>
N-{4',6',7',8',9',10'-hexahydro-3'H-1',11'-dioxaspiro[cyclohexane-1,2'-tetraphen]-10'-ylidene}hydroxylamine

> <CAS>
1133822-78-2

> <URL>
https://www.enaminestore.com/catalog/EN300-302924

> <ROCS_ShapeQuery>
amalgated

> <ROCS_TanimotoCombo>
0.825 

> <ROCS_ShapeTanimoto>
0.661 

> <ROCS_ColorTanimoto>
0.164 

> <ROCS_RefTversky>
0.680 

> <ROCS_RefColorTversky>
0.282 

> <ROCS_RefTverskyCombo>
0.962 

> <ROCS_FitTversky>
0.959 

> <ROCS_FitColorTversky>
0.282 

> <ROCS_FitTverskyCombo>
1.241 

> <ROCS_ColorScore>
-1.975

> <ROCS_Overlap>
1131.258

> <ROCS_Rank>
358                 

$$$$
untitled-dbase-34601_9
  -OEChem-10092318153D

 38 39  0     0  0  0  0  0  0999 V2000
   -8.3447   -1.2256  -16.7812 C   0  0  0  0  0  0  0  0  0  0  0  0
   -7.6259   -0.2710  -12.6786 C   0  0  0  0  0  0  0  0  0  0  0  0
   -9.8792    0.8321  -12.9011 C   0  0  0  0  0  0  0  0  0  0  0  0
   -8.1287   -0.9254  -11.3916 C   0  0  0  0  0  0  0  0  0  0  0  0
  -10.2960    0.1275  -11.6106 C   0  0  0  0  0  0  0  0  0  0  0  0
   -8.3764    0.6047  -14.9849 C   0  0  0  0  0  0  0  0  0  0  0  0
   -9.3315   -1.2289  -14.3961 C   0  0  0  0  0  0  0  0  0  0  0  0
   -8.8060    0.0097  -13.6198 C   0  0  0  0  0  0  0  0  0  0  0  0
   -7.9362   -2.8143  -19.1181 C   0  0  0  0  0  0  0  0  0  0  0  0
   -9.6011   -4.3997  -18.1064 C   0  0  0  0  0  0  0  0  0  0  0  0
  -10.3001   -2.0606  -18.6960 C   0  0  0  0  0  0  0  0  0  0  0  0
   -9.1537   -2.9428  -18.2039 C   0  0  0  0  0  0  0  0  0  0  0  0
   -9.1452   -0.1015  -10.7340 N   0  0  0  0  0  0  0  0  0  0  0  0
   -8.6369   -0.7018  -15.5526 N   0  0  0  0  0  0  0  0  0  0  0  0
   -7.7637   -0.6129  -17.6726 O   0  0  0  0  0  0  0  0  0  0  0  0
   -8.7827   -2.5166  -16.8883 O   0  0  0  0  0  0  0  0  0  0  0  0
   -7.1095    0.6676  -12.4390 H   0  0  0  0  0  0  0  0  0  0  0  0
   -6.8887   -0.9249  -13.1597 H   0  0  0  0  0  0  0  0  0  0  0  0
  -10.7594    0.9791  -13.5386 H   0  0  0  0  0  0  0  0  0  0  0  0
   -9.4886    1.8303  -12.6636 H   0  0  0  0  0  0  0  0  0  0  0  0
   -8.5346   -1.9234  -11.6000 H   0  0  0  0  0  0  0  0  0  0  0  0
   -7.2849   -1.0599  -10.7053 H   0  0  0  0  0  0  0  0  0  0  0  0
  -11.0239    0.7513  -11.0816 H   0  0  0  0  0  0  0  0  0  0  0  0
  -10.7899   -0.8253  -11.8327 H   0  0  0  0  0  0  0  0  0  0  0  0
   -9.0162    1.3938  -15.3893 H   0  0  0  0  0  0  0  0  0  0  0  0
   -7.3253    0.8948  -15.0777 H   0  0  0  0  0  0  0  0  0  0  0  0
   -8.9369   -2.2001  -14.0824 H   0  0  0  0  0  0  0  0  0  0  0  0
  -10.4149   -1.2925  -14.5272 H   0  0  0  0  0  0  0  0  0  0  0  0
   -7.6120   -1.7699  -19.1907 H   0  0  0  0  0  0  0  0  0  0  0  0
   -7.0952   -3.4151  -18.7568 H   0  0  0  0  0  0  0  0  0  0  0  0
   -8.1774   -3.1347  -20.1381 H   0  0  0  0  0  0  0  0  0  0  0  0
  -10.4744   -4.4967  -17.4514 H   0  0  0  0  0  0  0  0  0  0  0  0
   -8.8136   -5.0211  -17.6647 H   0  0  0  0  0  0  0  0  0  0  0  0
   -9.8569   -4.8104  -19.0884 H   0  0  0  0  0  0  0  0  0  0  0  0
  -11.1736   -2.1526  -18.0404 H   0  0  0  0  0  0  0  0  0  0  0  0
  -10.0085   -1.0061  -18.7371 H   0  0  0  0  0  0  0  0  0  0  0  0
  -10.6291   -2.3701  -19.6946 H   0  0  0  0  0  0  0  0  0  0  0  0
   -9.4588   -0.5697   -9.8843 H   0  0  0  0  0  0  0  0  0  0  0  0
  1 14  1  0  0  0  0
  1 15  2  0  0  0  0
  1 16  1  0  0  0  0
  2  4  1  0  0  0  0
  2  8  1  0  0  0  0
  3  5  1  0  0  0  0
  3  8  1  0  0  0  0
  4 13  1  0  0  0  0
  5 13  1  0  0  0  0
  6  8  1  0  0  0  0
  6 14  1  0  0  0  0
  7  8  1  0  0  0  0
  7 14  1  0  0  0  0
  9 12  1  0  0  0  0
 10 12  1  0  0  0  0
 11 12  1  0  0  0  0
 12 16  1  0  0  0  0
  2 17  1  0  0  0  0
  2 18  1  0  0  0  0
  3 19  1  0  0  0  0
  3 20  1  0  0  0  0
  4 21  1  0  0  0  0
  4 22  1  0  0  0  0
  5 23  1  0  0  0  0
  5 24  1  0  0  0  0
  6 25  1  0  0  0  0
  6 26  1  0  0  0  0
  7 27  1  0  0  0  0
  7 28  1  0  0  0  0
  9 29  1  0  0  0  0
  9 30  1  0  0  0  0
  9 31  1  0  0  0  0
 10 32  1  0  0  0  0
 10 33  1  0  0  0  0
 10 34  1  0  0  0  0
 11 35  1  0  0  0  0
 11 36  1  0  0  0  0
 11 37  1  0  0  0  0
 13 38  1  0  0  0  0
M  END
> <id>
EN300-73843

> <smiles>
CC(C)(C)OC(=O)N1CC2(C1)CCNCC2

> <MDLNUMBER>
MFCD09834803

> <IUPAC Name>
tert-butyl 2,7-diazaspiro[3.5]nonane-2-carboxylate

> <CAS>
236406-55-6

> <Purity>
95

> <URL>
https://www.enaminestore.com/catalog/EN300-73843

> <MP>
71-73

> <ROCS_ShapeQuery>
amalgated

> <ROCS_TanimotoCombo>
0.825 

> <ROCS_ShapeTanimoto>
0.609 

> <ROCS_ColorTanimoto>
0.216 

> <ROCS_RefTversky>
0.551 

> <ROCS_RefColorTversky>
0.332 

> <ROCS_RefTverskyCombo>
0.883 

> <ROCS_FitTversky>
1.209 

> <ROCS_FitColorTversky>
0.382 

> <ROCS_FitTverskyCombo>
1.591 

> <ROCS_ColorScore>
-2.310

> <ROCS_Overlap>
903.785

> <ROCS_Rank>
359                 

$$$$
untitled-dbase-34574_95
  -OEChem-10092318153D

 41 42  0     0  0  0  0  0  0999 V2000
   -8.0875   -1.3549  -17.0334 C   0  0  0  0  0  0  0  0  0  0  0  0
   -7.7991   -0.3523  -12.8340 C   0  0  0  0  0  0  0  0  0  0  0  0
  -10.2397    0.3684  -12.8805 C   0  0  0  0  0  0  0  0  0  0  0  0
   -8.5697    1.3376  -14.5700 C   0  0  0  0  0  0  0  0  0  0  0  0
   -8.2949   -1.0123  -11.5489 C   0  0  0  0  0  0  0  0  0  0  0  0
   -9.8783    0.8640  -11.4829 C   0  0  0  0  0  0  0  0  0  0  0  0
   -7.7764    0.7424  -15.7249 C   0  0  0  0  0  0  0  0  0  0  0  0
   -9.2687   -0.9258  -14.8374 C   0  0  0  0  0  0  0  0  0  0  0  0
   -8.9811    0.1062  -13.7296 C   0  0  0  0  0  0  0  0  0  0  0  0
   -7.8171   -3.3557  -19.0562 C   0  0  0  0  0  0  0  0  0  0  0  0
   -9.8343   -4.4248  -18.0088 C   0  0  0  0  0  0  0  0  0  0  0  0
  -10.0133   -2.1274  -19.0077 C   0  0  0  0  0  0  0  0  0  0  0  0
   -9.1041   -3.1093  -18.2702 C   0  0  0  0  0  0  0  0  0  0  0  0
   -9.0802   -0.0963  -10.7195 N   0  0  0  0  0  0  0  0  0  0  0  0
   -8.3632   -0.5713  -15.9260 N   0  0  0  0  0  0  0  0  0  0  0  0
   -7.3306   -1.0226  -17.9427 O   0  0  0  0  0  0  0  0  0  0  0  0
   -8.7610   -2.5464  -16.9991 O   0  0  0  0  0  0  0  0  0  0  0  0
   -7.1909    0.5176  -12.5706 H   0  0  0  0  0  0  0  0  0  0  0  0
   -7.1496   -1.0480  -13.3680 H   0  0  0  0  0  0  0  0  0  0  0  0
  -10.8447   -0.5394  -12.7992 H   0  0  0  0  0  0  0  0  0  0  0  0
  -10.8630    1.1195  -13.3782 H   0  0  0  0  0  0  0  0  0  0  0  0
   -7.9860    2.0673  -14.0036 H   0  0  0  0  0  0  0  0  0  0  0  0
   -9.4578    1.8450  -14.9634 H   0  0  0  0  0  0  0  0  0  0  0  0
   -8.8839   -1.9125  -11.7733 H   0  0  0  0  0  0  0  0  0  0  0  0
   -7.4277   -1.3515  -10.9663 H   0  0  0  0  0  0  0  0  0  0  0  0
   -9.3019    1.8008  -11.5749 H   0  0  0  0  0  0  0  0  0  0  0  0
  -10.7909    1.1292  -10.9183 H   0  0  0  0  0  0  0  0  0  0  0  0
   -7.8432    1.3417  -16.6371 H   0  0  0  0  0  0  0  0  0  0  0  0
   -6.7210    0.6070  -15.4672 H   0  0  0  0  0  0  0  0  0  0  0  0
   -9.1131   -1.9677  -14.5450 H   0  0  0  0  0  0  0  0  0  0  0  0
  -10.2872   -0.8316  -15.2318 H   0  0  0  0  0  0  0  0  0  0  0  0
   -7.2900   -2.4138  -19.2459 H   0  0  0  0  0  0  0  0  0  0  0  0
   -7.1410   -4.0310  -18.5217 H   0  0  0  0  0  0  0  0  0  0  0  0
   -8.0358   -3.7907  -20.0381 H   0  0  0  0  0  0  0  0  0  0  0  0
  -10.7583   -4.2528  -17.4451 H   0  0  0  0  0  0  0  0  0  0  0  0
   -9.2208   -5.0971  -17.3981 H   0  0  0  0  0  0  0  0  0  0  0  0
  -10.0878   -4.9385  -18.9417 H   0  0  0  0  0  0  0  0  0  0  0  0
  -10.9366   -1.9505  -18.4441 H   0  0  0  0  0  0  0  0  0  0  0  0
   -9.5186   -1.1646  -19.1714 H   0  0  0  0  0  0  0  0  0  0  0  0
  -10.3172   -2.5325  -19.9797 H   0  0  0  0  0  0  0  0  0  0  0  0
   -9.7053   -0.6459  -10.1133 H   0  0  0  0  0  0  0  0  0  0  0  0
  1 15  1  0  0  0  0
  1 16  2  0  0  0  0
  1 17  1  0  0  0  0
  2  5  1  0  0  0  0
  2  9  1  0  0  0  0
  3  6  1  0  0  0  0
  3  9  1  0  0  0  0
  4  7  1  0  0  0  0
  4  9  1  0  0  0  0
  5 14  1  0  0  0  0
  6 14  1  0  0  0  0
  7 15  1  0  0  0  0
  8  9  1  0  0  0  0
  8 15  1  0  0  0  0
 10 13  1  0  0  0  0
 11 13  1  0  0  0  0
 12 13  1  0  0  0  0
 13 17  1  0  0  0  0
  2 18  1  0  0  0  0
  2 19  1  0  0  0  0
  3 20  1  0  0  0  0
  3 21  1  0  0  0  0
  4 22  1  0  0  0  0
  4 23  1  0  0  0  0
  5 24  1  0  0  0  0
  5 25  1  0  0  0  0
  6 26  1  0  0  0  0
  6 27  1  0  0  0  0
  7 28  1  0  0  0  0
  7 29  1  0  0  0  0
  8 30  1  0  0  0  0
  8 31  1  0  0  0  0
 10 32  1  0  0  0  0
 10 33  1  0  0  0  0
 10 34  1  0  0  0  0
 11 35  1  0  0  0  0
 11 36  1  0  0  0  0
 11 37  1  0  0  0  0
 12 38  1  0  0  0  0
 12 39  1  0  0  0  0
 12 40  1  0  0  0  0
 14 41  1  0  0  0  0
M  END
> <id>
EN300-222083

> <smiles>
CC(C)(C)OC(=O)N1CCC2(C1)CCNCC2

> <MDLNUMBER>
MFCD06739056

> <IUPAC Name>
tert-butyl 2,8-diazaspiro[4.5]decane-2-carboxylate

> <CAS>
336191-17-4

> <Purity>
95

> <URL>
https://www.enaminestore.com/catalog/EN300-222083

> <ROCS_ShapeQuery>
amalgated

> <ROCS_TanimotoCombo>
0.825 

> <ROCS_ShapeTanimoto>
0.609 

> <ROCS_ColorTanimoto>
0.216 

> <ROCS_RefTversky>
0.560 

> <ROCS_RefColorTversky>
0.332 

> <ROCS_RefTverskyCombo>
0.892 

> <ROCS_FitTversky>
1.168 

> <ROCS_FitColorTversky>
0.381 

> <ROCS_FitTverskyCombo>
1.549 

> <ROCS_ColorScore>
-2.306

> <ROCS_Overlap>
920.084

> <ROCS_Rank>
360                 

$$$$
untitled-dbase-34431_76
  -OEChem-10092318153D

 42 43  0     0  0  0  0  0  0999 V2000
   -8.5078    0.3558  -13.1793 C   0  0  0  0  0  0  0  0  0  0  0  0
   -7.9757    0.5951  -16.7766 C   0  0  0  0  0  0  0  0  0  0  0  0
   -7.0075   -1.6174  -16.0687 C   0  0  0  0  0  0  0  0  0  0  0  0
   -7.5325    1.0003  -15.3660 C   0  0  0  0  0  0  0  0  0  0  0  0
   -7.3544   -1.3609  -14.6003 C   0  0  0  0  0  0  0  0  0  0  0  0
   -9.3858   -2.9864  -18.4845 C   0  0  0  0  0  0  0  0  0  0  0  0
   -7.7558   -1.2359  -18.4954 C   0  0  0  0  0  0  0  0  0  0  0  0
   -9.6592   -2.7053  -17.0144 C   0  0  0  0  0  0  0  0  0  0  0  0
   -8.0260   -0.9366  -17.0075 C   0  0  0  0  0  0  0  0  0  0  0  0
  -10.7561    0.1629  -11.4201 C   0  0  0  0  0  0  0  0  0  0  0  0
   -9.5322   -1.7604  -10.3654 C   0  0  0  0  0  0  0  0  0  0  0  0
   -8.5250    0.5399  -10.3179 C   0  0  0  0  0  0  0  0  0  0  0  0
   -9.3848   -0.4389  -11.1164 C   0  0  0  0  0  0  0  0  0  0  0  0
   -8.0037   -2.6431  -18.8167 N   0  0  0  0  0  0  0  0  0  0  0  0
   -7.8566   -0.0055  -14.3625 N   0  0  0  0  0  0  0  0  0  0  0  0
   -8.8487    1.5021  -12.8945 O   0  0  0  0  0  0  0  0  0  0  0  0
   -9.3729   -1.3453  -16.6884 O   0  0  0  0  0  0  0  0  0  0  0  0
   -8.7251   -0.7185  -12.3563 O   0  0  0  0  0  0  0  0  0  0  0  0
   -8.9740    1.0303  -16.9551 H   0  0  0  0  0  0  0  0  0  0  0  0
   -7.2964    1.0617  -17.5114 H   0  0  0  0  0  0  0  0  0  0  0  0
   -6.0029   -1.2317  -16.2685 H   0  0  0  0  0  0  0  0  0  0  0  0
   -6.9697   -2.6972  -16.2186 H   0  0  0  0  0  0  0  0  0  0  0  0
   -6.4545    1.2212  -15.3808 H   0  0  0  0  0  0  0  0  0  0  0  0
   -8.0324    1.9348  -15.0617 H   0  0  0  0  0  0  0  0  0  0  0  0
   -8.1351   -2.0603  -14.2584 H   0  0  0  0  0  0  0  0  0  0  0  0
   -6.4694   -1.5560  -13.9745 H   0  0  0  0  0  0  0  0  0  0  0  0
   -9.5655   -4.0430  -18.7064 H   0  0  0  0  0  0  0  0  0  0  0  0
  -10.0648   -2.4010  -19.1152 H   0  0  0  0  0  0  0  0  0  0  0  0
   -8.3986   -0.6149  -19.1343 H   0  0  0  0  0  0  0  0  0  0  0  0
   -6.7200   -0.9865  -18.7577 H   0  0  0  0  0  0  0  0  0  0  0  0
  -10.7192   -2.8743  -16.8004 H   0  0  0  0  0  0  0  0  0  0  0  0
   -9.0942   -3.3758  -16.3591 H   0  0  0  0  0  0  0  0  0  0  0  0
  -10.6545    1.1117  -11.9592 H   0  0  0  0  0  0  0  0  0  0  0  0
  -11.3697   -0.5151  -12.0222 H   0  0  0  0  0  0  0  0  0  0  0  0
  -11.2973    0.3897  -10.4945 H   0  0  0  0  0  0  0  0  0  0  0  0
   -8.5508   -2.1957  -10.1454 H   0  0  0  0  0  0  0  0  0  0  0  0
  -10.0675   -2.4978  -10.9745 H   0  0  0  0  0  0  0  0  0  0  0  0
  -10.0734   -1.6311   -9.4226 H   0  0  0  0  0  0  0  0  0  0  0  0
   -7.5414    0.1085  -10.0998 H   0  0  0  0  0  0  0  0  0  0  0  0
   -8.3777    1.4808  -10.8579 H   0  0  0  0  0  0  0  0  0  0  0  0
   -8.9864    0.7630   -9.3490 H   0  0  0  0  0  0  0  0  0  0  0  0
   -7.3691   -3.2341  -18.2809 H   0  0  0  0  0  0  0  0  0  0  0  0
  1 15  1  0  0  0  0
  1 16  2  0  0  0  0
  1 18  1  0  0  0  0
  2  4  1  0  0  0  0
  2  9  1  0  0  0  0
  3  5  1  0  0  0  0
  3  9  1  0  0  0  0
  4 15  1  0  0  0  0
  5 15  1  0  0  0  0
  6  8  1  0  0  0  0
  6 14  1  0  0  0  0
  7  9  1  0  0  0  0
  7 14  1  0  0  0  0
  8 17  1  0  0  0  0
  9 17  1  0  0  0  0
 10 13  1  0  0  0  0
 11 13  1  0  0  0  0
 12 13  1  0  0  0  0
 13 18  1  0  0  0  0
  2 19  1  0  0  0  0
  2 20  1  0  0  0  0
  3 21  1  0  0  0  0
  3 22  1  0  0  0  0
  4 23  1  0  0  0  0
  4 24  1  0  0  0  0
  5 25  1  0  0  0  0
  5 26  1  0  0  0  0
  6 27  1  0  0  0  0
  6 28  1  0  0  0  0
  7 29  1  0  0  0  0
  7 30  1  0  0  0  0
  8 31  1  0  0  0  0
  8 32  1  0  0  0  0
 10 33  1  0  0  0  0
 10 34  1  0  0  0  0
 10 35  1  0  0  0  0
 11 36  1  0  0  0  0
 11 37  1  0  0  0  0
 11 38  1  0  0  0  0
 12 39  1  0  0  0  0
 12 40  1  0  0  0  0
 12 41  1  0  0  0  0
 14 42  1  0  0  0  0
M  END
> <id>
EN300-113744

> <smiles>
CC(C)(C)OC(=O)N1CCC2(CC1)CNCCO2

> <MDLNUMBER>
MFCD11227065

> <IUPAC Name>
tert-butyl 1-oxa-4,9-diazaspiro[5.5]undecane-9-carboxylate

> <CAS>
930785-40-3

> <Purity>
95

> <URL>
https://www.enaminestore.com/catalog/EN300-113744

> <ROCS_ShapeQuery>
amalgated

> <ROCS_TanimotoCombo>
0.824 

> <ROCS_ShapeTanimoto>
0.602 

> <ROCS_ColorTanimoto>
0.223 

> <ROCS_RefTversky>
0.566 

> <ROCS_RefColorTversky>
0.364 

> <ROCS_RefTverskyCombo>
0.930 

> <ROCS_FitTversky>
1.118 

> <ROCS_FitColorTversky>
0.364 

> <ROCS_FitTverskyCombo>
1.482 

> <ROCS_ColorScore>
-2.549

> <ROCS_Overlap>
931.170

> <ROCS_Rank>
361                 

$$$$
untitled-dbase-49133_1
  -OEChem-10092318153D

 40 42  0     1  0  0  0  0  0999 V2000
   -8.0425    0.2405  -15.6420 C   0  0  0  0  0  0  0  0  0  0  0  0
   -9.3422   -1.6924  -15.0277 C   0  0  0  0  0  0  0  0  0  0  0  0
   -8.0650   -0.1222  -17.0065 C   0  0  0  0  0  0  0  0  0  0  0  0
   -8.7747   -1.2889  -17.3669 C   0  0  0  0  0  0  0  0  0  0  0  0
   -9.3988   -2.0636  -16.3678 C   0  0  0  0  0  0  0  0  0  0  0  0
   -8.6668   -0.5365  -14.6649 C   0  0  0  0  0  0  0  0  0  0  0  0
   -6.0595    3.2747  -18.9129 C   0  0  0  0  0  0  0  0  0  0  0  0
   -7.3080    3.3844  -18.0492 C   0  0  0  0  0  0  0  0  0  0  0  0
   -5.1932    2.0709  -18.5449 C   0  0  0  0  0  0  0  0  0  0  0  0
   -8.6310   -0.6244  -19.7882 C   0  0  0  0  0  0  0  0  0  0  0  0
   -8.1789    2.1284  -18.1493 C   0  0  0  0  0  0  0  0  0  0  0  0
   -5.9037    1.0664  -17.6341 C   0  0  0  0  0  0  0  0  0  0  0  0
   -7.3387    0.1096  -19.4524 C   0  0  0  0  0  0  0  0  0  0  0  0
   -8.8902   -1.7625  -18.8006 C   0  0  1  0  0  0  0  0  0  0  0  0
   -7.3801    0.7862  -18.0486 C   0  0  0  0  0  0  0  0  0  0  0  0
  -10.1537   -3.3159  -16.6930 C   0  0  0  0  0  0  0  0  0  0  0  0
   -7.9912   -2.8905  -19.0695 N   0  0  0  0  0  0  0  0  0  0  0  0
   -8.6210   -0.1607  -13.3803 F   0  0  0  0  0  0  0  0  0  0  0  0
   -7.5487    1.1511  -15.3153 H   0  0  0  0  0  0  0  0  0  0  0  0
   -9.8259   -2.2933  -14.2623 H   0  0  0  0  0  0  0  0  0  0  0  0
   -6.3458    3.2106  -19.9711 H   0  0  0  0  0  0  0  0  0  0  0  0
   -5.4631    4.1920  -18.8064 H   0  0  0  0  0  0  0  0  0  0  0  0
   -7.0137    3.5349  -17.0049 H   0  0  0  0  0  0  0  0  0  0  0  0
   -7.8832    4.2698  -18.3363 H   0  0  0  0  0  0  0  0  0  0  0  0
   -4.8435    1.5709  -19.4653 H   0  0  0  0  0  0  0  0  0  0  0  0
   -4.2764    2.4281  -18.0427 H   0  0  0  0  0  0  0  0  0  0  0  0
   -9.4741    0.0773  -19.7738 H   0  0  0  0  0  0  0  0  0  0  0  0
   -8.5821   -1.0109  -20.8144 H   0  0  0  0  0  0  0  0  0  0  0  0
   -8.9177    2.1803  -17.3393 H   0  0  0  0  0  0  0  0  0  0  0  0
   -8.7592    2.1648  -19.0778 H   0  0  0  0  0  0  0  0  0  0  0  0
   -5.3319    0.1284  -17.6099 H   0  0  0  0  0  0  0  0  0  0  0  0
   -5.8484    1.4697  -16.6155 H   0  0  0  0  0  0  0  0  0  0  0  0
   -6.5036   -0.6005  -19.4976 H   0  0  0  0  0  0  0  0  0  0  0  0
   -7.1417    0.8386  -20.2439 H   0  0  0  0  0  0  0  0  0  0  0  0
   -9.9171   -2.1003  -18.9873 H   0  0  0  0  0  0  0  0  0  0  0  0
  -11.2042   -3.0801  -16.8902 H   0  0  0  0  0  0  0  0  0  0  0  0
   -9.7310   -3.8103  -17.5743 H   0  0  0  0  0  0  0  0  0  0  0  0
  -10.1013   -4.0313  -15.8651 H   0  0  0  0  0  0  0  0  0  0  0  0
   -8.2411   -3.6281  -18.4585 H   0  0  0  0  0  0  0  0  0  0  0  0
   -8.1131   -3.1540  -20.0158 H   0  0  0  0  0  0  0  0  0  0  0  0
  1  3  1  0  0  0  0
  1  6  2  0  0  0  0
  2  5  2  0  0  0  0
  2  6  1  0  0  0  0
  3  4  2  0  0  0  0
  3 15  1  0  0  0  0
  4  5  1  0  0  0  0
  4 14  1  0  0  0  0
  5 16  1  0  0  0  0
  6 18  1  0  0  0  0
  7  8  1  0  0  0  0
  7  9  1  0  0  0  0
  8 11  1  0  0  0  0
  9 12  1  0  0  0  0
 10 13  1  0  0  0  0
 10 14  1  0  0  0  0
 11 15  1  0  0  0  0
 12 15  1  0  0  0  0
 13 15  1  0  0  0  0
 14 17  1  0  0  0  0
  1 19  1  0  0  0  0
  2 20  1  0  0  0  0
  7 21  1  0  0  0  0
  7 22  1  0  0  0  0
  8 23  1  0  0  0  0
  8 24  1  0  0  0  0
  9 25  1  0  0  0  0
  9 26  1  0  0  0  0
 10 27  1  0  0  0  0
 10 28  1  0  0  0  0
 11 29  1  0  0  0  0
 11 30  1  0  0  0  0
 12 31  1  0  0  0  0
 12 32  1  0  0  0  0
 13 33  1  0  0  0  0
 13 34  1  0  0  0  0
 14 35  1  0  0  0  0
 16 36  1  0  0  0  0
 16 37  1  0  0  0  0
 16 38  1  0  0  0  0
 17 39  1  0  0  0  0
 17 40  1  0  0  0  0
M  END
> <id>
EN300-1458057

> <smiles>
CC=1C=C(F)C=C2C1C(N)CCC32CCCCC3

> <IUPAC Name>
7'-fluoro-5'-methyl-3',4'-dihydro-2'H-spiro[cyclohexane-1,1'-naphthalene]-4'-amine

> <CAS>
2172199-59-4

> <URL>
https://www.enaminestore.com/catalog/EN300-1458057

> <ROCS_ShapeQuery>
amalgated

> <ROCS_TanimotoCombo>
0.824 

> <ROCS_ShapeTanimoto>
0.470 

> <ROCS_ColorTanimoto>
0.355 

> <ROCS_RefTversky>
0.482 

> <ROCS_RefColorTversky>
0.456 

> <ROCS_RefTverskyCombo>
0.938 

> <ROCS_FitTversky>
0.947 

> <ROCS_FitColorTversky>
0.616 

> <ROCS_FitTverskyCombo>
1.563 

> <ROCS_ColorScore>
-3.143

> <ROCS_Overlap>
793.360

> <ROCS_Rank>
362                 

$$$$
untitled-dbase-23514_71
  -OEChem-10092318153D

 43 44  0     1  0  0  0  0  0999 V2000
   -9.9868    0.3936  -11.4879 C   0  0  0  0  0  0  0  0  0  0  0  0
   -9.4754   -0.8835  -11.2677 C   0  0  0  0  0  0  0  0  0  0  0  0
   -9.4964    1.1666  -12.5370 C   0  0  0  0  0  0  0  0  0  0  0  0
   -8.4737   -1.3963  -12.0969 C   0  0  0  0  0  0  0  0  0  0  0  0
   -8.5047    0.6479  -13.3773 C   0  0  0  0  0  0  0  0  0  0  0  0
   -7.9902   -0.6435  -13.1716 C   0  0  0  0  0  0  0  0  0  0  0  0
   -8.7444   -3.3147  -15.9147 C   0  0  0  0  0  0  0  0  0  0  0  0
   -7.6712   -2.5376  -15.7084 C   0  0  0  0  0  0  0  0  0  0  0  0
   -8.0270    1.5203  -14.4709 C   0  0  0  0  0  0  0  0  0  0  0  0
   -9.5351   -1.0612  -17.9954 C   0  0  0  0  0  0  0  0  0  0  0  0
   -9.5564   -3.4671  -17.1785 C   0  0  0  0  0  0  0  0  0  0  0  0
   -6.9599   -2.4243  -14.3938 C   0  0  0  0  0  0  0  0  0  0  0  0
   -8.6136    1.2576  -18.1517 C   0  0  0  0  0  0  0  0  0  0  0  0
   -9.3079   -2.5255  -18.3750 C   0  0  2  0  0  0  0  0  0  0  0  0
   -7.7333    1.6452  -16.9537 C   0  0  2  0  0  0  0  0  0  0  0  0
   -6.2546    1.3543  -17.2087 C   0  0  0  0  0  0  0  0  0  0  0  0
   -8.1722    0.9758  -15.7330 N   0  0  0  0  0  0  0  0  0  0  0  0
   -8.5840   -0.1659  -18.4503 N   0  0  0  0  0  0  0  0  0  0  0  0
   -7.9905   -2.7444  -18.9708 N   0  0  0  0  0  0  0  0  0  0  0  0
   -7.5815    2.6303  -14.2019 O   0  0  0  0  0  0  0  0  0  0  0  0
  -10.5247   -0.7321  -17.3374 O   0  0  0  0  0  0  0  0  0  0  0  0
   -6.9553   -1.0554  -13.9700 O   0  0  0  0  0  0  0  0  0  0  0  0
  -10.7641    0.7863  -10.8398 H   0  0  0  0  0  0  0  0  0  0  0  0
   -9.8488   -1.4812  -10.4400 H   0  0  0  0  0  0  0  0  0  0  0  0
   -9.9012    2.1617  -12.6944 H   0  0  0  0  0  0  0  0  0  0  0  0
   -8.0711   -2.3807  -11.8700 H   0  0  0  0  0  0  0  0  0  0  0  0
   -9.1008   -3.9318  -15.0554 H   0  0  0  0  0  0  0  0  0  0  0  0
   -7.2882   -1.9277  -16.5275 H   0  0  0  0  0  0  0  0  0  0  0  0
   -9.4950   -4.5422  -17.5353 H   0  0  0  0  0  0  0  0  0  0  0  0
  -10.6396   -3.3821  -16.8647 H   0  0  0  0  0  0  0  0  0  0  0  0
   -7.4454   -3.0727  -13.6386 H   0  0  0  0  0  0  0  0  0  0  0  0
   -5.9166   -2.7663  -14.5161 H   0  0  0  0  0  0  0  0  0  0  0  0
   -9.6551    1.5097  -17.9397 H   0  0  0  0  0  0  0  0  0  0  0  0
   -8.3076    1.8151  -19.0393 H   0  0  0  0  0  0  0  0  0  0  0  0
  -10.0720   -2.7956  -19.1831 H   0  0  0  0  0  0  0  0  0  0  0  0
   -7.8371    2.7243  -16.7996 H   0  0  0  0  0  0  0  0  0  0  0  0
   -6.1109    0.2870  -17.3671 H   0  0  0  0  0  0  0  0  0  0  0  0
   -5.6636    1.6708  -16.3511 H   0  0  0  0  0  0  0  0  0  0  0  0
   -5.9198    1.8948  -18.0923 H   0  0  0  0  0  0  0  0  0  0  0  0
   -8.6083    0.0589  -15.8174 H   0  0  0  0  0  0  0  0  0  0  0  0
   -7.7982   -0.5086  -18.9989 H   0  0  0  0  0  0  0  0  0  0  0  0
   -7.9275   -3.6983  -19.2325 H   0  0  0  0  0  0  0  0  0  0  0  0
   -7.9114   -2.1540  -19.7629 H   0  0  0  0  0  0  0  0  0  0  0  0
  1  2  2  0  0  0  0
  1  3  1  0  0  0  0
  2  4  1  0  0  0  0
  3  5  2  0  0  0  0
  4  6  2  0  0  0  0
  5  6  1  0  0  0  0
  5  9  1  0  0  0  0
  6 22  1  0  0  0  0
  7  8  2  0  0  0  0
  7 11  1  0  0  0  0
  8 12  1  0  0  0  0
  9 17  1  0  0  0  0
  9 20  2  0  0  0  0
 10 14  1  0  0  0  0
 10 18  1  0  0  0  0
 10 21  2  0  0  0  0
 11 14  1  0  0  0  0
 12 22  1  0  0  0  0
 13 15  1  0  0  0  0
 13 18  1  0  0  0  0
 14 19  1  1  0  0  0
 15 16  1  1  0  0  0
 15 17  1  0  0  0  0
  1 23  1  0  0  0  0
  2 24  1  0  0  0  0
  3 25  1  0  0  0  0
  4 26  1  0  0  0  0
  7 27  1  0  0  0  0
  8 28  1  0  0  0  0
 11 29  1  0  0  0  0
 11 30  1  0  0  0  0
 12 31  1  0  0  0  0
 12 32  1  0  0  0  0
 13 33  1  0  0  0  0
 13 34  1  0  0  0  0
 14 35  1  0  0  0  0
 15 36  1  0  0  0  0
 16 37  1  0  0  0  0
 16 38  1  0  0  0  0
 16 39  1  0  0  0  0
 17 40  1  0  0  0  0
 18 41  1  0  0  0  0
 19 42  1  0  0  0  0
 19 43  1  0  0  0  0
M  END
> <id>
EN300-6477203

> <smiles>
C[C@H]1CNC(=O)[C@@H](N)C/C=C/COC=2C=CC=CC2C(=O)N1

> <MDLNUMBER>
MFCD31691335

> <IUPAC Name>
(3E,6S,10S)-6-amino-10-methyl-5,6,7,8,9,10,11,12-octahydro-2H-1,8,11-benzoxadiazacyclotetradecine-7,12-dione

> <CAS>
2241107-31-1

> <URL>
https://www.enaminestore.com/catalog/EN300-6477203

> <ROCS_ShapeQuery>
amalgated

> <ROCS_TanimotoCombo>
0.824 

> <ROCS_ShapeTanimoto>
0.574 

> <ROCS_ColorTanimoto>
0.250 

> <ROCS_RefTversky>
0.585 

> <ROCS_RefColorTversky>
0.425 

> <ROCS_RefTverskyCombo>
1.010 

> <ROCS_FitTversky>
0.969 

> <ROCS_FitColorTversky>
0.377 

> <ROCS_FitTverskyCombo>
1.346 

> <ROCS_ColorScore>
-2.998

> <ROCS_Overlap>
967.735

> <ROCS_Rank>
363                 

$$$$
untitled-dbase-23550_71
  -OEChem-10092318153D

 43 44  0     1  0  0  0  0  0999 V2000
   -9.9868    0.3936  -11.4879 C   0  0  0  0  0  0  0  0  0  0  0  0
   -9.4754   -0.8835  -11.2677 C   0  0  0  0  0  0  0  0  0  0  0  0
   -9.4964    1.1666  -12.5370 C   0  0  0  0  0  0  0  0  0  0  0  0
   -8.4737   -1.3963  -12.0969 C   0  0  0  0  0  0  0  0  0  0  0  0
   -8.5047    0.6479  -13.3773 C   0  0  0  0  0  0  0  0  0  0  0  0
   -7.9902   -0.6435  -13.1716 C   0  0  0  0  0  0  0  0  0  0  0  0
   -8.7444   -3.3147  -15.9147 C   0  0  0  0  0  0  0  0  0  0  0  0
   -7.6712   -2.5376  -15.7084 C   0  0  0  0  0  0  0  0  0  0  0  0
   -8.0270    1.5203  -14.4709 C   0  0  0  0  0  0  0  0  0  0  0  0
   -9.5351   -1.0612  -17.9954 C   0  0  0  0  0  0  0  0  0  0  0  0
   -9.5564   -3.4671  -17.1785 C   0  0  0  0  0  0  0  0  0  0  0  0
   -6.9599   -2.4243  -14.3938 C   0  0  0  0  0  0  0  0  0  0  0  0
   -8.6136    1.2576  -18.1517 C   0  0  0  0  0  0  0  0  0  0  0  0
   -9.3079   -2.5255  -18.3750 C   0  0  2  0  0  0  0  0  0  0  0  0
   -7.7333    1.6452  -16.9537 C   0  0  2  0  0  0  0  0  0  0  0  0
   -6.2546    1.3543  -17.2087 C   0  0  0  0  0  0  0  0  0  0  0  0
   -8.1722    0.9758  -15.7330 N   0  0  0  0  0  0  0  0  0  0  0  0
   -8.5840   -0.1659  -18.4503 N   0  0  0  0  0  0  0  0  0  0  0  0
   -7.9905   -2.7444  -18.9708 N   0  0  0  0  0  0  0  0  0  0  0  0
   -7.5815    2.6303  -14.2019 O   0  0  0  0  0  0  0  0  0  0  0  0
  -10.5247   -0.7321  -17.3374 O   0  0  0  0  0  0  0  0  0  0  0  0
   -6.9553   -1.0554  -13.9700 O   0  0  0  0  0  0  0  0  0  0  0  0
  -10.7641    0.7863  -10.8398 H   0  0  0  0  0  0  0  0  0  0  0  0
   -9.8488   -1.4812  -10.4400 H   0  0  0  0  0  0  0  0  0  0  0  0
   -9.9012    2.1617  -12.6944 H   0  0  0  0  0  0  0  0  0  0  0  0
   -8.0711   -2.3807  -11.8700 H   0  0  0  0  0  0  0  0  0  0  0  0
   -9.1008   -3.9318  -15.0554 H   0  0  0  0  0  0  0  0  0  0  0  0
   -7.2882   -1.9277  -16.5275 H   0  0  0  0  0  0  0  0  0  0  0  0
   -9.4950   -4.5422  -17.5353 H   0  0  0  0  0  0  0  0  0  0  0  0
  -10.6396   -3.3821  -16.8647 H   0  0  0  0  0  0  0  0  0  0  0  0
   -7.4454   -3.0727  -13.6386 H   0  0  0  0  0  0  0  0  0  0  0  0
   -5.9166   -2.7663  -14.5161 H   0  0  0  0  0  0  0  0  0  0  0  0
   -9.6551    1.5097  -17.9397 H   0  0  0  0  0  0  0  0  0  0  0  0
   -8.3076    1.8151  -19.0393 H   0  0  0  0  0  0  0  0  0  0  0  0
  -10.0720   -2.7956  -19.1831 H   0  0  0  0  0  0  0  0  0  0  0  0
   -7.8371    2.7243  -16.7996 H   0  0  0  0  0  0  0  0  0  0  0  0
   -6.1109    0.2870  -17.3671 H   0  0  0  0  0  0  0  0  0  0  0  0
   -5.6636    1.6708  -16.3511 H   0  0  0  0  0  0  0  0  0  0  0  0
   -5.9198    1.8948  -18.0923 H   0  0  0  0  0  0  0  0  0  0  0  0
   -8.6083    0.0589  -15.8174 H   0  0  0  0  0  0  0  0  0  0  0  0
   -7.7982   -0.5086  -18.9989 H   0  0  0  0  0  0  0  0  0  0  0  0
   -7.9275   -3.6983  -19.2325 H   0  0  0  0  0  0  0  0  0  0  0  0
   -7.9114   -2.1540  -19.7629 H   0  0  0  0  0  0  0  0  0  0  0  0
  1  2  2  0  0  0  0
  1  3  1  0  0  0  0
  2  4  1  0  0  0  0
  3  5  2  0  0  0  0
  4  6  2  0  0  0  0
  5  6  1  0  0  0  0
  5  9  1  0  0  0  0
  6 22  1  0  0  0  0
  7  8  2  0  0  0  0
  7 11  1  0  0  0  0
  8 12  1  0  0  0  0
  9 17  1  0  0  0  0
  9 20  2  0  0  0  0
 10 14  1  0  0  0  0
 10 18  1  0  0  0  0
 10 21  2  0  0  0  0
 11 14  1  0  0  0  0
 12 22  1  0  0  0  0
 13 15  1  0  0  0  0
 13 18  1  0  0  0  0
 14 19  1  1  0  0  0
 15 16  1  1  0  0  0
 15 17  1  0  0  0  0
  1 23  1  0  0  0  0
  2 24  1  0  0  0  0
  3 25  1  0  0  0  0
  4 26  1  0  0  0  0
  7 27  1  0  0  0  0
  8 28  1  0  0  0  0
 11 29  1  0  0  0  0
 11 30  1  0  0  0  0
 12 31  1  0  0  0  0
 12 32  1  0  0  0  0
 13 33  1  0  0  0  0
 13 34  1  0  0  0  0
 14 35  1  0  0  0  0
 15 36  1  0  0  0  0
 16 37  1  0  0  0  0
 16 38  1  0  0  0  0
 16 39  1  0  0  0  0
 17 40  1  0  0  0  0
 18 41  1  0  0  0  0
 19 42  1  0  0  0  0
 19 43  1  0  0  0  0
M  END
> <id>
EN300-6477247

> <smiles>
Cl.C[C@H]1CNC(=O)[C@@H](N)C/C=C/COC=2C=CC=CC2C(=O)N1

> <MDLNUMBER>
MFCD31691368

> <IUPAC Name>
(3E,6S,10S)-6-amino-10-methyl-5,6,7,8,9,10,11,12-octahydro-2H-1,8,11-benzoxadiazacyclotetradecine-7,12-dione hydrochloride

> <CAS>
2241107-32-2

> <Purity>
95

> <URL>
https://www.enaminestore.com/catalog/EN300-6477247

> <Saltdate>
Cl

> <ROCS_ShapeQuery>
amalgated

> <ROCS_TanimotoCombo>
0.824 

> <ROCS_ShapeTanimoto>
0.574 

> <ROCS_ColorTanimoto>
0.250 

> <ROCS_RefTversky>
0.585 

> <ROCS_RefColorTversky>
0.425 

> <ROCS_RefTverskyCombo>
1.010 

> <ROCS_FitTversky>
0.969 

> <ROCS_FitColorTversky>
0.377 

> <ROCS_FitTverskyCombo>
1.346 

> <ROCS_ColorScore>
-2.998

> <ROCS_Overlap>
967.735

> <ROCS_Rank>
364                 

$$$$
untitled-dbase-36209_4
  -OEChem-10092318153D

 31 33  0     0  0  0  0  0  0999 V2000
   -9.4467   -2.3895  -16.5281 C   0  0  0  0  0  0  0  0  0  0  0  0
   -9.2220   -1.2651  -15.7838 C   0  0  0  0  0  0  0  0  0  0  0  0
   -8.2388   -0.5386  -16.4640 C   0  0  0  0  0  0  0  0  0  0  0  0
   -7.7828    0.7441  -16.0008 C   0  0  0  0  0  0  0  0  0  0  0  0
   -8.5797    1.2637  -14.8120 C   0  0  0  0  0  0  0  0  0  0  0  0
  -10.1532    0.7332  -12.9266 C   0  0  0  0  0  0  0  0  0  0  0  0
   -7.9806   -0.5727  -13.0974 C   0  0  0  0  0  0  0  0  0  0  0  0
  -10.2836   -0.0954  -11.6494 C   0  0  0  0  0  0  0  0  0  0  0  0
   -7.8324    0.0120  -11.6953 C   0  0  0  0  0  0  0  0  0  0  0  0
   -9.1179    0.1160  -13.9005 C   0  0  0  0  0  0  0  0  0  0  0  0
   -8.4145   -3.2419  -18.6493 C   0  0  0  0  0  0  0  0  0  0  0  0
   -7.8208   -1.1650  -17.5659 N   0  0  0  0  0  0  0  0  0  0  0  0
   -8.5749   -2.2865  -17.5791 N   0  0  0  0  0  0  0  0  0  0  0  0
   -9.0377   -0.1752  -10.8864 N   0  0  0  0  0  0  0  0  0  0  0  0
   -6.8932    1.3881  -16.5438 O   0  0  0  0  0  0  0  0  0  0  0  0
   -9.8400   -0.9133  -14.6381 O   0  0  0  0  0  0  0  0  0  0  0  0
  -10.1150   -3.2311  -16.4101 H   0  0  0  0  0  0  0  0  0  0  0  0
   -7.9510    1.9530  -14.2365 H   0  0  0  0  0  0  0  0  0  0  0  0
   -9.4198    1.8327  -15.2314 H   0  0  0  0  0  0  0  0  0  0  0  0
  -11.1335    0.7794  -13.4093 H   0  0  0  0  0  0  0  0  0  0  0  0
   -9.8596    1.7553  -12.6681 H   0  0  0  0  0  0  0  0  0  0  0  0
   -7.0307   -0.4642  -13.6380 H   0  0  0  0  0  0  0  0  0  0  0  0
   -8.1693   -1.6482  -13.0010 H   0  0  0  0  0  0  0  0  0  0  0  0
  -11.0612    0.3494  -11.0058 H   0  0  0  0  0  0  0  0  0  0  0  0
  -10.6422   -1.1136  -11.8806 H   0  0  0  0  0  0  0  0  0  0  0  0
   -6.9653   -0.4269  -11.1783 H   0  0  0  0  0  0  0  0  0  0  0  0
   -7.6249    1.0892  -11.7701 H   0  0  0  0  0  0  0  0  0  0  0  0
   -9.1029   -2.9670  -19.4528 H   0  0  0  0  0  0  0  0  0  0  0  0
   -7.3812   -3.2184  -19.0065 H   0  0  0  0  0  0  0  0  0  0  0  0
   -8.6416   -4.2444  -18.2760 H   0  0  0  0  0  0  0  0  0  0  0  0
   -9.0555    0.5464  -10.1514 H   0  0  0  0  0  0  0  0  0  0  0  0
  1  2  2  0  0  0  0
  1 13  1  0  0  0  0
  2  3  1  0  0  0  0
  2 16  1  0  0  0  0
  3  4  1  0  0  0  0
  3 12  2  0  0  0  0
  4  5  1  0  0  0  0
  4 15  2  0  0  0  0
  5 10  1  0  0  0  0
  6  8  1  0  0  0  0
  6 10  1  0  0  0  0
  7  9  1  0  0  0  0
  7 10  1  0  0  0  0
  8 14  1  0  0  0  0
  9 14  1  0  0  0  0
 10 16  1  0  0  0  0
 11 13  1  0  0  0  0
 12 13  1  0  0  0  0
  1 17  1  0  0  0  0
  5 18  1  0  0  0  0
  5 19  1  0  0  0  0
  6 20  1  0  0  0  0
  6 21  1  0  0  0  0
  7 22  1  0  0  0  0
  7 23  1  0  0  0  0
  8 24  1  0  0  0  0
  8 25  1  0  0  0  0
  9 26  1  0  0  0  0
  9 27  1  0  0  0  0
 11 28  1  0  0  0  0
 11 29  1  0  0  0  0
 11 30  1  0  0  0  0
 14 31  1  0  0  0  0
M  END
> <id>
EN300-1719388

> <smiles>
Cl.Cl.CN1C=C2OC3(CCNCC3)CC(=O)C2=N1

> <MDLNUMBER>
MFCD31690561

> <IUPAC Name>
2'-methyl-6',7'-dihydro-2'H-spiro[piperidine-4,5'-pyrano[3,2-c]pyrazole]-7'-one dihydrochloride

> <CAS>
2225144-95-4

> <URL>
https://www.enaminestore.com/catalog/EN300-1719388

> <Saltdate>
Cl

> <ROCS_ShapeQuery>
amalgated

> <ROCS_TanimotoCombo>
0.824 

> <ROCS_ShapeTanimoto>
0.567 

> <ROCS_ColorTanimoto>
0.257 

> <ROCS_RefTversky>
0.535 

> <ROCS_RefColorTversky>
0.435 

> <ROCS_RefTverskyCombo>
0.971 

> <ROCS_FitTversky>
1.119 

> <ROCS_FitColorTversky>
0.385 

> <ROCS_FitTverskyCombo>
1.504 

> <ROCS_ColorScore>
-3.070

> <ROCS_Overlap>
879.062

> <ROCS_Rank>
365                 

$$$$
untitled-dbase-6115_4
  -OEChem-10092318153D

 31 33  0     0  0  0  0  0  0999 V2000
   -9.4467   -2.3895  -16.5281 C   0  0  0  0  0  0  0  0  0  0  0  0
   -9.2220   -1.2651  -15.7838 C   0  0  0  0  0  0  0  0  0  0  0  0
   -8.2388   -0.5386  -16.4640 C   0  0  0  0  0  0  0  0  0  0  0  0
   -7.7828    0.7441  -16.0008 C   0  0  0  0  0  0  0  0  0  0  0  0
   -8.5797    1.2637  -14.8120 C   0  0  0  0  0  0  0  0  0  0  0  0
  -10.1532    0.7332  -12.9266 C   0  0  0  0  0  0  0  0  0  0  0  0
   -7.9806   -0.5727  -13.0974 C   0  0  0  0  0  0  0  0  0  0  0  0
  -10.2836   -0.0954  -11.6494 C   0  0  0  0  0  0  0  0  0  0  0  0
   -7.8324    0.0120  -11.6953 C   0  0  0  0  0  0  0  0  0  0  0  0
   -9.1179    0.1160  -13.9005 C   0  0  0  0  0  0  0  0  0  0  0  0
   -8.4145   -3.2419  -18.6493 C   0  0  0  0  0  0  0  0  0  0  0  0
   -7.8208   -1.1650  -17.5659 N   0  0  0  0  0  0  0  0  0  0  0  0
   -8.5749   -2.2865  -17.5791 N   0  0  0  0  0  0  0  0  0  0  0  0
   -9.0377   -0.1752  -10.8864 N   0  0  0  0  0  0  0  0  0  0  0  0
   -6.8932    1.3881  -16.5438 O   0  0  0  0  0  0  0  0  0  0  0  0
   -9.8400   -0.9133  -14.6381 O   0  0  0  0  0  0  0  0  0  0  0  0
  -10.1150   -3.2311  -16.4101 H   0  0  0  0  0  0  0  0  0  0  0  0
   -7.9510    1.9530  -14.2365 H   0  0  0  0  0  0  0  0  0  0  0  0
   -9.4198    1.8327  -15.2314 H   0  0  0  0  0  0  0  0  0  0  0  0
  -11.1335    0.7794  -13.4093 H   0  0  0  0  0  0  0  0  0  0  0  0
   -9.8596    1.7553  -12.6681 H   0  0  0  0  0  0  0  0  0  0  0  0
   -7.0307   -0.4642  -13.6380 H   0  0  0  0  0  0  0  0  0  0  0  0
   -8.1693   -1.6482  -13.0010 H   0  0  0  0  0  0  0  0  0  0  0  0
  -11.0612    0.3494  -11.0058 H   0  0  0  0  0  0  0  0  0  0  0  0
  -10.6422   -1.1136  -11.8806 H   0  0  0  0  0  0  0  0  0  0  0  0
   -6.9653   -0.4269  -11.1783 H   0  0  0  0  0  0  0  0  0  0  0  0
   -7.6249    1.0892  -11.7701 H   0  0  0  0  0  0  0  0  0  0  0  0
   -9.1029   -2.9670  -19.4528 H   0  0  0  0  0  0  0  0  0  0  0  0
   -7.3812   -3.2184  -19.0065 H   0  0  0  0  0  0  0  0  0  0  0  0
   -8.6416   -4.2444  -18.2760 H   0  0  0  0  0  0  0  0  0  0  0  0
   -9.0555    0.5464  -10.1514 H   0  0  0  0  0  0  0  0  0  0  0  0
  1  2  2  0  0  0  0
  1 13  1  0  0  0  0
  2  3  1  0  0  0  0
  2 16  1  0  0  0  0
  3  4  1  0  0  0  0
  3 12  2  0  0  0  0
  4  5  1  0  0  0  0
  4 15  2  0  0  0  0
  5 10  1  0  0  0  0
  6  8  1  0  0  0  0
  6 10  1  0  0  0  0
  7  9  1  0  0  0  0
  7 10  1  0  0  0  0
  8 14  1  0  0  0  0
  9 14  1  0  0  0  0
 10 16  1  0  0  0  0
 11 13  1  0  0  0  0
 12 13  1  0  0  0  0
  1 17  1  0  0  0  0
  5 18  1  0  0  0  0
  5 19  1  0  0  0  0
  6 20  1  0  0  0  0
  6 21  1  0  0  0  0
  7 22  1  0  0  0  0
  7 23  1  0  0  0  0
  8 24  1  0  0  0  0
  8 25  1  0  0  0  0
  9 26  1  0  0  0  0
  9 27  1  0  0  0  0
 11 28  1  0  0  0  0
 11 29  1  0  0  0  0
 11 30  1  0  0  0  0
 14 31  1  0  0  0  0
M  END
> <id>
EN300-243171

> <smiles>
CN1C=C2OC3(CCNCC3)CC(=O)C2=N1

> <MDLNUMBER>
MFCD27956390

> <IUPAC Name>
2'-methyl-6',7'-dihydro-2'H-spiro[piperidine-4,5'-pyrano[3,2-c]pyrazole]-7'-one

> <CAS>
1197944-38-9

> <URL>
https://www.enaminestore.com/catalog/EN300-243171

> <ROCS_ShapeQuery>
amalgated

> <ROCS_TanimotoCombo>
0.824 

> <ROCS_ShapeTanimoto>
0.567 

> <ROCS_ColorTanimoto>
0.257 

> <ROCS_RefTversky>
0.535 

> <ROCS_RefColorTversky>
0.435 

> <ROCS_RefTverskyCombo>
0.971 

> <ROCS_FitTversky>
1.119 

> <ROCS_FitColorTversky>
0.385 

> <ROCS_FitTverskyCombo>
1.504 

> <ROCS_ColorScore>
-3.070

> <ROCS_Overlap>
879.062

> <ROCS_Rank>
366                 

$$$$
untitled-dbase-24373_4
  -OEChem-10092318153D

 31 33  0     0  0  0  0  0  0999 V2000
   -9.4467   -2.3895  -16.5281 C   0  0  0  0  0  0  0  0  0  0  0  0
   -9.2220   -1.2651  -15.7838 C   0  0  0  0  0  0  0  0  0  0  0  0
   -8.2388   -0.5386  -16.4640 C   0  0  0  0  0  0  0  0  0  0  0  0
   -7.7828    0.7441  -16.0008 C   0  0  0  0  0  0  0  0  0  0  0  0
   -8.5797    1.2637  -14.8120 C   0  0  0  0  0  0  0  0  0  0  0  0
  -10.1532    0.7332  -12.9266 C   0  0  0  0  0  0  0  0  0  0  0  0
   -7.9806   -0.5727  -13.0974 C   0  0  0  0  0  0  0  0  0  0  0  0
  -10.2836   -0.0954  -11.6494 C   0  0  0  0  0  0  0  0  0  0  0  0
   -7.8324    0.0120  -11.6953 C   0  0  0  0  0  0  0  0  0  0  0  0
   -9.1179    0.1160  -13.9005 C   0  0  0  0  0  0  0  0  0  0  0  0
   -8.4145   -3.2419  -18.6493 C   0  0  0  0  0  0  0  0  0  0  0  0
   -7.8208   -1.1650  -17.5659 N   0  0  0  0  0  0  0  0  0  0  0  0
   -8.5749   -2.2865  -17.5791 N   0  0  0  0  0  0  0  0  0  0  0  0
   -9.0377   -0.1752  -10.8864 N   0  0  0  0  0  0  0  0  0  0  0  0
   -6.8932    1.3881  -16.5438 O   0  0  0  0  0  0  0  0  0  0  0  0
   -9.8400   -0.9133  -14.6381 O   0  0  0  0  0  0  0  0  0  0  0  0
  -10.1150   -3.2311  -16.4101 H   0  0  0  0  0  0  0  0  0  0  0  0
   -7.9510    1.9530  -14.2365 H   0  0  0  0  0  0  0  0  0  0  0  0
   -9.4198    1.8327  -15.2314 H   0  0  0  0  0  0  0  0  0  0  0  0
  -11.1335    0.7794  -13.4093 H   0  0  0  0  0  0  0  0  0  0  0  0
   -9.8596    1.7553  -12.6681 H   0  0  0  0  0  0  0  0  0  0  0  0
   -7.0307   -0.4642  -13.6380 H   0  0  0  0  0  0  0  0  0  0  0  0
   -8.1693   -1.6482  -13.0010 H   0  0  0  0  0  0  0  0  0  0  0  0
  -11.0612    0.3494  -11.0058 H   0  0  0  0  0  0  0  0  0  0  0  0
  -10.6422   -1.1136  -11.8806 H   0  0  0  0  0  0  0  0  0  0  0  0
   -6.9653   -0.4269  -11.1783 H   0  0  0  0  0  0  0  0  0  0  0  0
   -7.6249    1.0892  -11.7701 H   0  0  0  0  0  0  0  0  0  0  0  0
   -9.1029   -2.9670  -19.4528 H   0  0  0  0  0  0  0  0  0  0  0  0
   -7.3812   -3.2184  -19.0065 H   0  0  0  0  0  0  0  0  0  0  0  0
   -8.6416   -4.2444  -18.2760 H   0  0  0  0  0  0  0  0  0  0  0  0
   -9.0555    0.5464  -10.1514 H   0  0  0  0  0  0  0  0  0  0  0  0
  1  2  2  0  0  0  0
  1 13  1  0  0  0  0
  2  3  1  0  0  0  0
  2 16  1  0  0  0  0
  3  4  1  0  0  0  0
  3 12  2  0  0  0  0
  4  5  1  0  0  0  0
  4 15  2  0  0  0  0
  5 10  1  0  0  0  0
  6  8  1  0  0  0  0
  6 10  1  0  0  0  0
  7  9  1  0  0  0  0
  7 10  1  0  0  0  0
  8 14  1  0  0  0  0
  9 14  1  0  0  0  0
 10 16  1  0  0  0  0
 11 13  1  0  0  0  0
 12 13  1  0  0  0  0
  1 17  1  0  0  0  0
  5 18  1  0  0  0  0
  5 19  1  0  0  0  0
  6 20  1  0  0  0  0
  6 21  1  0  0  0  0
  7 22  1  0  0  0  0
  7 23  1  0  0  0  0
  8 24  1  0  0  0  0
  8 25  1  0  0  0  0
  9 26  1  0  0  0  0
  9 27  1  0  0  0  0
 11 28  1  0  0  0  0
 11 29  1  0  0  0  0
 11 30  1  0  0  0  0
 14 31  1  0  0  0  0
M  END
> <id>
EN300-240080

> <smiles>
Cl.CN1C=C2OC3(CCNCC3)CC(=O)C2=N1

> <MDLNUMBER>
MFCD28166112

> <IUPAC Name>
2'-methyl-6',7'-dihydro-2'H-spiro[piperidine-4,5'-pyrano[3,2-c]pyrazole]-7'-one hydrochloride

> <CAS>
1355229-24-1

> <Purity>
94

> <URL>
https://www.enaminestore.com/catalog/EN300-240080

> <Saltdate>
Cl

> <ROCS_ShapeQuery>
amalgated

> <ROCS_TanimotoCombo>
0.824 

> <ROCS_ShapeTanimoto>
0.567 

> <ROCS_ColorTanimoto>
0.257 

> <ROCS_RefTversky>
0.535 

> <ROCS_RefColorTversky>
0.435 

> <ROCS_RefTverskyCombo>
0.971 

> <ROCS_FitTversky>
1.119 

> <ROCS_FitColorTversky>
0.385 

> <ROCS_FitTverskyCombo>
1.504 

> <ROCS_ColorScore>
-3.070

> <ROCS_Overlap>
879.062

> <ROCS_Rank>
367                 

$$$$
untitled-dbase-8700_0
  -OEChem-10092318153D

 28 30  0     1  0  0  0  0  0999 V2000
   -9.0603    0.0903  -12.2330 C   0  0  0  0  0  0  0  0  0  0  0  0
   -9.2738   -1.2739  -12.3971 C   0  0  0  0  0  0  0  0  0  0  0  0
   -8.6212    0.8572  -13.3089 C   0  0  0  0  0  0  0  0  0  0  0  0
   -9.0426   -1.8726  -13.6369 C   0  0  0  0  0  0  0  0  0  0  0  0
   -8.4034    0.2622  -14.5602 C   0  0  0  0  0  0  0  0  0  0  0  0
   -8.5983   -1.1287  -14.7457 C   0  0  0  0  0  0  0  0  0  0  0  0
   -7.9020    1.1038  -15.7161 C   0  0  0  0  0  0  0  0  0  0  0  0
   -8.4210    0.6046  -17.0682 C   0  0  0  0  0  0  0  0  0  0  0  0
   -9.5199   -2.2702  -17.0112 C   0  0  0  0  0  0  0  0  0  0  0  0
   -8.3165   -1.8016  -16.1472 C   0  0  1  0  0  0  0  0  0  0  0  0
   -7.9407   -0.8301  -17.3104 C   0  0  1  0  0  0  0  0  0  0  0  0
   -8.8326   -1.6714  -18.2551 C   0  0  1  0  0  0  0  0  0  0  0  0
   -8.0077   -2.7062  -18.8789 N   0  0  0  0  0  0  0  0  0  0  0  0
   -9.2333    0.5563  -11.2676 H   0  0  0  0  0  0  0  0  0  0  0  0
   -9.6148   -1.8759  -11.5598 H   0  0  0  0  0  0  0  0  0  0  0  0
   -8.4515    1.9217  -13.1688 H   0  0  0  0  0  0  0  0  0  0  0  0
   -9.2072   -2.9426  -13.7445 H   0  0  0  0  0  0  0  0  0  0  0  0
   -8.2258    2.1432  -15.5846 H   0  0  0  0  0  0  0  0  0  0  0  0
   -6.8054    1.0912  -15.7016 H   0  0  0  0  0  0  0  0  0  0  0  0
   -9.5172    0.6585  -17.0809 H   0  0  0  0  0  0  0  0  0  0  0  0
   -8.0581    1.2564  -17.8712 H   0  0  0  0  0  0  0  0  0  0  0  0
   -9.7061   -3.3490  -17.0148 H   0  0  0  0  0  0  0  0  0  0  0  0
  -10.4637   -1.7682  -16.7626 H   0  0  0  0  0  0  0  0  0  0  0  0
   -7.5664   -2.6006  -16.0423 H   0  0  0  0  0  0  0  0  0  0  0  0
   -6.8678   -0.8319  -17.5467 H   0  0  0  0  0  0  0  0  0  0  0  0
   -9.4758   -1.1329  -18.9458 H   0  0  0  0  0  0  0  0  0  0  0  0
   -8.6130   -3.3652  -19.3055 H   0  0  0  0  0  0  0  0  0  0  0  0
   -7.4278   -2.2698  -19.5541 H   0  0  0  0  0  0  0  0  0  0  0  0
  1  2  2  0  0  0  0
  1  3  1  0  0  0  0
  2  4  1  0  0  0  0
  3  5  2  0  0  0  0
  4  6  2  0  0  0  0
  5  6  1  0  0  0  0
  5  7  1  0  0  0  0
  6 10  1  0  0  0  0
  7  8  1  0  0  0  0
  8 11  1  0  0  0  0
  9 10  1  0  0  0  0
  9 12  1  0  0  0  0
 10 11  1  0  0  0  0
 11 12  1  0  0  0  0
 12 13  1  0  0  0  0
  1 14  1  0  0  0  0
  2 15  1  0  0  0  0
  3 16  1  0  0  0  0
  4 17  1  0  0  0  0
  7 18  1  0  0  0  0
  7 19  1  0  0  0  0
  8 20  1  0  0  0  0
  8 21  1  0  0  0  0
  9 22  1  0  0  0  0
  9 23  1  0  0  0  0
 10 24  1  0  0  0  0
 11 25  1  0  0  0  0
 12 26  1  0  0  0  0
 13 27  1  0  0  0  0
 13 28  1  0  0  0  0
M  END
> <id>
EN300-305728

> <smiles>
NC1CC2C1CCC=3C=CC=CC23

> <MDLNUMBER>
MFCD24104518

> <IUPAC Name>
1H,2H,2aH,3H,4H,8bH-cyclobuta[a]naphthalen-2-amine

> <CAS>
1559038-31-1

> <URL>
https://www.enaminestore.com/catalog/EN300-305728

> <ROCS_ShapeQuery>
amalgated

> <ROCS_TanimotoCombo>
0.824 

> <ROCS_ShapeTanimoto>
0.462 

> <ROCS_ColorTanimoto>
0.362 

> <ROCS_RefTversky>
0.438 

> <ROCS_RefColorTversky>
0.464 

> <ROCS_RefTverskyCombo>
0.903 

> <ROCS_FitTversky>
1.134 

> <ROCS_FitColorTversky>
0.621 

> <ROCS_FitTverskyCombo>
1.755 

> <ROCS_ColorScore>
-3.204

> <ROCS_Overlap>
716.623

> <ROCS_Rank>
368                 

$$$$
untitled-dbase-8651_0
  -OEChem-10092318153D

 28 30  0     1  0  0  0  0  0999 V2000
   -9.0603    0.0903  -12.2330 C   0  0  0  0  0  0  0  0  0  0  0  0
   -9.2738   -1.2739  -12.3971 C   0  0  0  0  0  0  0  0  0  0  0  0
   -8.6212    0.8572  -13.3089 C   0  0  0  0  0  0  0  0  0  0  0  0
   -9.0426   -1.8726  -13.6369 C   0  0  0  0  0  0  0  0  0  0  0  0
   -8.4034    0.2622  -14.5602 C   0  0  0  0  0  0  0  0  0  0  0  0
   -8.5983   -1.1287  -14.7457 C   0  0  0  0  0  0  0  0  0  0  0  0
   -7.9020    1.1038  -15.7161 C   0  0  0  0  0  0  0  0  0  0  0  0
   -8.4210    0.6046  -17.0682 C   0  0  0  0  0  0  0  0  0  0  0  0
   -9.5199   -2.2702  -17.0112 C   0  0  0  0  0  0  0  0  0  0  0  0
   -8.3165   -1.8016  -16.1472 C   0  0  1  0  0  0  0  0  0  0  0  0
   -7.9407   -0.8301  -17.3104 C   0  0  1  0  0  0  0  0  0  0  0  0
   -8.8326   -1.6714  -18.2551 C   0  0  1  0  0  0  0  0  0  0  0  0
   -8.0077   -2.7062  -18.8789 N   0  0  0  0  0  0  0  0  0  0  0  0
   -9.2333    0.5563  -11.2676 H   0  0  0  0  0  0  0  0  0  0  0  0
   -9.6148   -1.8759  -11.5598 H   0  0  0  0  0  0  0  0  0  0  0  0
   -8.4515    1.9217  -13.1688 H   0  0  0  0  0  0  0  0  0  0  0  0
   -9.2072   -2.9426  -13.7445 H   0  0  0  0  0  0  0  0  0  0  0  0
   -8.2258    2.1432  -15.5846 H   0  0  0  0  0  0  0  0  0  0  0  0
   -6.8054    1.0912  -15.7016 H   0  0  0  0  0  0  0  0  0  0  0  0
   -9.5172    0.6585  -17.0809 H   0  0  0  0  0  0  0  0  0  0  0  0
   -8.0581    1.2564  -17.8712 H   0  0  0  0  0  0  0  0  0  0  0  0
   -9.7061   -3.3490  -17.0148 H   0  0  0  0  0  0  0  0  0  0  0  0
  -10.4637   -1.7682  -16.7626 H   0  0  0  0  0  0  0  0  0  0  0  0
   -7.5664   -2.6006  -16.0423 H   0  0  0  0  0  0  0  0  0  0  0  0
   -6.8678   -0.8319  -17.5467 H   0  0  0  0  0  0  0  0  0  0  0  0
   -9.4758   -1.1329  -18.9458 H   0  0  0  0  0  0  0  0  0  0  0  0
   -8.6130   -3.3652  -19.3055 H   0  0  0  0  0  0  0  0  0  0  0  0
   -7.4278   -2.2698  -19.5541 H   0  0  0  0  0  0  0  0  0  0  0  0
  1  2  2  0  0  0  0
  1  3  1  0  0  0  0
  2  4  1  0  0  0  0
  3  5  2  0  0  0  0
  4  6  2  0  0  0  0
  5  6  1  0  0  0  0
  5  7  1  0  0  0  0
  6 10  1  0  0  0  0
  7  8  1  0  0  0  0
  8 11  1  0  0  0  0
  9 10  1  0  0  0  0
  9 12  1  0  0  0  0
 10 11  1  0  0  0  0
 11 12  1  0  0  0  0
 12 13  1  0  0  0  0
  1 14  1  0  0  0  0
  2 15  1  0  0  0  0
  3 16  1  0  0  0  0
  4 17  1  0  0  0  0
  7 18  1  0  0  0  0
  7 19  1  0  0  0  0
  8 20  1  0  0  0  0
  8 21  1  0  0  0  0
  9 22  1  0  0  0  0
  9 23  1  0  0  0  0
 10 24  1  0  0  0  0
 11 25  1  0  0  0  0
 12 26  1  0  0  0  0
 13 27  1  0  0  0  0
 13 28  1  0  0  0  0
M  END
> <id>
EN300-305727

> <smiles>
Cl.NC1CC2C1CCC=3C=CC=CC23

> <MDLNUMBER>
MFCD30342875

> <IUPAC Name>
1H,2H,2aH,3H,4H,8bH-cyclobuta[a]naphthalen-2-amine hydrochloride

> <CAS>
1989671-72-8

> <Purity>
95

> <URL>
https://www.enaminestore.com/catalog/EN300-305727

> <Saltdate>
Cl

> <ROCS_ShapeQuery>
amalgated

> <ROCS_TanimotoCombo>
0.824 

> <ROCS_ShapeTanimoto>
0.462 

> <ROCS_ColorTanimoto>
0.362 

> <ROCS_RefTversky>
0.438 

> <ROCS_RefColorTversky>
0.464 

> <ROCS_RefTverskyCombo>
0.903 

> <ROCS_FitTversky>
1.134 

> <ROCS_FitColorTversky>
0.621 

> <ROCS_FitTverskyCombo>
1.755 

> <ROCS_ColorScore>
-3.204

> <ROCS_Overlap>
716.623

> <ROCS_Rank>
369                 

$$$$
untitled-dbase-53712_93
  -OEChem-10092318153D

 42 43  0     0  0  0  0  0  0999 V2000
   -8.3591   -0.0797  -15.3149 C   0  0  0  0  0  0  0  0  0  0  0  0
   -6.3519   -0.1245  -17.8267 C   0  0  0  0  0  0  0  0  0  0  0  0
   -8.5147    1.2007  -18.2245 C   0  0  0  0  0  0  0  0  0  0  0  0
   -8.3166   -3.0146  -17.4358 C   0  0  0  0  0  0  0  0  0  0  0  0
   -9.1250   -2.0150  -16.6199 C   0  0  0  0  0  0  0  0  0  0  0  0
   -8.3380   -1.1562  -19.0171 C   0  0  0  0  0  0  0  0  0  0  0  0
   -5.8371    1.0151  -18.6918 C   0  0  0  0  0  0  0  0  0  0  0  0
   -7.6398    2.4364  -18.0037 C   0  0  0  0  0  0  0  0  0  0  0  0
   -7.9005   -0.1853  -17.8639 C   0  0  0  0  0  0  0  0  0  0  0  0
   -9.6238    1.1579  -13.0628 C   0  0  0  0  0  0  0  0  0  0  0  0
   -9.6287   -1.1383  -12.0447 C   0  0  0  0  0  0  0  0  0  0  0  0
   -7.4487   -0.0182  -12.5936 C   0  0  0  0  0  0  0  0  0  0  0  0
   -8.9102   -0.1919  -13.0041 C   0  0  0  0  0  0  0  0  0  0  0  0
   -8.0395   -2.5697  -18.7980 N   0  0  0  0  0  0  0  0  0  0  0  0
   -8.4454   -0.7174  -16.5643 N   0  0  0  0  0  0  0  0  0  0  0  0
   -7.8168    1.0092  -15.1302 O   0  0  0  0  0  0  0  0  0  0  0  0
   -6.2347    2.2524  -18.1195 O   0  0  0  0  0  0  0  0  0  0  0  0
   -8.9505   -0.7859  -14.3071 O   0  0  0  0  0  0  0  0  0  0  0  0
   -5.9127   -1.0711  -18.1461 H   0  0  0  0  0  0  0  0  0  0  0  0
   -5.9863    0.0848  -16.8253 H   0  0  0  0  0  0  0  0  0  0  0  0
   -9.4354    1.3475  -17.6118 H   0  0  0  0  0  0  0  0  0  0  0  0
   -8.8824    1.2021  -19.2787 H   0  0  0  0  0  0  0  0  0  0  0  0
   -7.3704   -3.2591  -16.9097 H   0  0  0  0  0  0  0  0  0  0  0  0
   -8.8742   -3.9703  -17.4829 H   0  0  0  0  0  0  0  0  0  0  0  0
  -10.0837   -1.8477  -17.0862 H   0  0  0  0  0  0  0  0  0  0  0  0
   -9.2694   -2.4183  -15.6338 H   0  0  0  0  0  0  0  0  0  0  0  0
   -9.4225   -1.0849  -19.1967 H   0  0  0  0  0  0  0  0  0  0  0  0
   -7.8775   -0.8364  -19.9715 H   0  0  0  0  0  0  0  0  0  0  0  0
   -4.7455    0.9963  -18.7105 H   0  0  0  0  0  0  0  0  0  0  0  0
   -6.1828    0.9519  -19.7251 H   0  0  0  0  0  0  0  0  0  0  0  0
   -7.9484    3.2789  -18.6741 H   0  0  0  0  0  0  0  0  0  0  0  0
   -7.8311    2.8339  -16.9771 H   0  0  0  0  0  0  0  0  0  0  0  0
   -9.1111    1.8401  -13.7504 H   0  0  0  0  0  0  0  0  0  0  0  0
  -10.6632    1.0509  -13.3898 H   0  0  0  0  0  0  0  0  0  0  0  0
   -9.6182    1.6462  -12.0816 H   0  0  0  0  0  0  0  0  0  0  0  0
   -9.1201   -2.1081  -11.9995 H   0  0  0  0  0  0  0  0  0  0  0  0
  -10.6497   -1.3409  -12.3879 H   0  0  0  0  0  0  0  0  0  0  0  0
   -9.6788   -0.7255  -11.0320 H   0  0  0  0  0  0  0  0  0  0  0  0
   -6.9366   -0.9864  -12.5514 H   0  0  0  0  0  0  0  0  0  0  0  0
   -6.9078    0.6286  -13.2919 H   0  0  0  0  0  0  0  0  0  0  0  0
   -7.3748    0.4146  -11.5894 H   0  0  0  0  0  0  0  0  0  0  0  0
   -7.0355   -2.7347  -19.0020 H   0  0  0  0  0  0  0  0  0  0  0  0
  1 15  1  0  0  0  0
  1 16  2  0  0  0  0
  1 18  1  0  0  0  0
  2  7  1  0  0  0  0
  2  9  1  0  0  0  0
  3  8  1  0  0  0  0
  3  9  1  0  0  0  0
  4  5  1  0  0  0  0
  4 14  1  0  0  0  0
  5 15  1  0  0  0  0
  6  9  1  0  0  0  0
  6 14  1  0  0  0  0
  7 17  1  0  0  0  0
  8 17  1  0  0  0  0
  9 15  1  0  0  0  0
 10 13  1  0  0  0  0
 11 13  1  0  0  0  0
 12 13  1  0  0  0  0
 13 18  1  0  0  0  0
  2 19  1  0  0  0  0
  2 20  1  0  0  0  0
  3 21  1  0  0  0  0
  3 22  1  0  0  0  0
  4 23  1  0  0  0  0
  4 24  1  0  0  0  0
  5 25  1  0  0  0  0
  5 26  1  0  0  0  0
  6 27  1  0  0  0  0
  6 28  1  0  0  0  0
  7 29  1  0  0  0  0
  7 30  1  0  0  0  0
  8 31  1  0  0  0  0
  8 32  1  0  0  0  0
 10 33  1  0  0  0  0
 10 34  1  0  0  0  0
 10 35  1  0  0  0  0
 11 36  1  0  0  0  0
 11 37  1  0  0  0  0
 11 38  1  0  0  0  0
 12 39  1  0  0  0  0
 12 40  1  0  0  0  0
 12 41  1  0  0  0  0
 14 42  1  0  0  0  0
M  END
> <id>
EN300-6864676

> <smiles>
CC(C)(C)OC(=O)N1CCNCC21CCOCC2

> <MDLNUMBER>
MFCD28638364

> <IUPAC Name>
tert-butyl 9-oxa-1,4-diazaspiro[5.5]undecane-1-carboxylate

> <CAS>
1784405-96-4

> <URL>
https://www.enaminestore.com/catalog/EN300-6864676

> <ROCS_ShapeQuery>
amalgated

> <ROCS_TanimotoCombo>
0.824 

> <ROCS_ShapeTanimoto>
0.561 

> <ROCS_ColorTanimoto>
0.263 

> <ROCS_RefTversky>
0.541 

> <ROCS_RefColorTversky>
0.416 

> <ROCS_RefTverskyCombo>
0.957 

> <ROCS_FitTversky>
1.072 

> <ROCS_FitColorTversky>
0.416 

> <ROCS_FitTverskyCombo>
1.488 

> <ROCS_ColorScore>
-2.912

> <ROCS_Overlap>
890.054

> <ROCS_Rank>
370                 

$$$$
untitled-dbase-29449_17
  -OEChem-10092318153D

 32 33  0     1  0  0  0  0  0999 V2000
   -8.4427   -0.3797  -16.4710 C   0  0  0  0  0  0  0  0  0  0  0  0
   -8.4900   -0.0480  -15.3178 C   0  0  0  0  0  0  0  0  0  0  0  0
   -8.3865   -0.7760  -17.8537 C   0  0  0  0  0  0  0  0  0  0  0  0
  -10.0699    0.4712  -11.8144 C   0  0  0  0  0  0  0  0  0  0  0  0
   -7.8430   -0.2982  -11.5023 C   0  0  0  0  0  0  0  0  0  0  0  0
   -8.5462    0.3472  -13.9414 C   0  0  0  0  0  0  0  0  0  0  0  0
   -9.6513   -0.2071  -13.0778 C   0  0  1  0  0  0  0  0  0  0  0  0
   -8.2601   -0.6879  -12.8828 C   0  0  2  0  0  0  0  0  0  0  0  0
  -10.1630   -2.1135  -19.0183 C   0  0  0  0  0  0  0  0  0  0  0  0
   -8.2495   -3.4808  -19.9004 C   0  0  0  0  0  0  0  0  0  0  0  0
   -9.2916   -4.0667  -17.6916 C   0  0  0  0  0  0  0  0  0  0  0  0
   -8.9269   -2.9313  -18.6469 C   0  0  0  0  0  0  0  0  0  0  0  0
   -9.1073   -0.0016  -10.7995 N   0  0  0  0  0  0  0  0  0  0  0  0
   -8.6749    0.0100  -18.7437 O   0  0  0  0  0  0  0  0  0  0  0  0
   -7.9898   -2.0690  -17.9932 O   0  0  0  0  0  0  0  0  0  0  0  0
  -10.0439    1.5598  -11.9041 H   0  0  0  0  0  0  0  0  0  0  0  0
  -11.0805    0.1634  -11.5312 H   0  0  0  0  0  0  0  0  0  0  0  0
   -7.3370   -1.1309  -11.0055 H   0  0  0  0  0  0  0  0  0  0  0  0
   -7.1800    0.5702  -11.5027 H   0  0  0  0  0  0  0  0  0  0  0  0
   -8.2203    1.3664  -13.7481 H   0  0  0  0  0  0  0  0  0  0  0  0
  -10.3919   -0.8662  -13.4983 H   0  0  0  0  0  0  0  0  0  0  0  0
   -7.9965   -1.6939  -13.1619 H   0  0  0  0  0  0  0  0  0  0  0  0
  -10.6521   -1.7173  -18.1213 H   0  0  0  0  0  0  0  0  0  0  0  0
   -9.9096   -1.2751  -19.6753 H   0  0  0  0  0  0  0  0  0  0  0  0
  -10.9071   -2.7381  -19.5257 H   0  0  0  0  0  0  0  0  0  0  0  0
   -7.3620   -4.0683  -19.6386 H   0  0  0  0  0  0  0  0  0  0  0  0
   -7.9010   -2.6657  -20.5449 H   0  0  0  0  0  0  0  0  0  0  0  0
   -8.9269   -4.1159  -20.4803 H   0  0  0  0  0  0  0  0  0  0  0  0
   -8.4050   -4.6534  -17.4250 H   0  0  0  0  0  0  0  0  0  0  0  0
   -9.7454   -3.6882  -16.7700 H   0  0  0  0  0  0  0  0  0  0  0  0
   -9.9929   -4.7637  -18.1645 H   0  0  0  0  0  0  0  0  0  0  0  0
   -8.9345    0.7615  -10.1506 H   0  0  0  0  0  0  0  0  0  0  0  0
  1  2  3  0  0  0  0
  1  3  1  0  0  0  0
  2  6  1  1  0  0  0
  3 14  2  0  0  0  0
  3 15  1  0  0  0  0
  4  7  1  6  0  0  0
  4 13  1  0  0  0  0
  5  8  1  6  0  0  0
  5 13  1  0  0  0  0
  6  7  1  0  0  0  0
  6  8  1  0  0  0  0
  7  8  1  0  0  0  0
  9 12  1  0  0  0  0
 10 12  1  0  0  0  0
 11 12  1  0  0  0  0
 12 15  1  0  0  0  0
  4 16  1  0  0  0  0
  4 17  1  0  0  0  0
  5 18  1  0  0  0  0
  5 19  1  0  0  0  0
  6 20  1  0  0  0  0
  7 21  1  0  0  0  0
  8 22  1  0  0  0  0
  9 23  1  0  0  0  0
  9 24  1  0  0  0  0
  9 25  1  0  0  0  0
 10 26  1  0  0  0  0
 10 27  1  0  0  0  0
 10 28  1  0  0  0  0
 11 29  1  0  0  0  0
 11 30  1  0  0  0  0
 11 31  1  0  0  0  0
 13 32  1  0  0  0  0
M  END
> <id>
EN300-37102165

> <smiles>
CC(C)(C)OC(=O)C#C[C@H]1[C@@H]2CNC[C@H]12

> <IUPAC Name>
tert-butyl 3-[(1R,5S,6R)-3-azabicyclo[3.1.0]hexan-6-yl]prop-2-ynoate

> <CAS>
2757834-62-9

> <URL>
https://www.enaminestore.com/catalog/EN300-37102165

> <ROCS_ShapeQuery>
amalgated

> <ROCS_TanimotoCombo>
0.824 

> <ROCS_ShapeTanimoto>
0.544 

> <ROCS_ColorTanimoto>
0.279 

> <ROCS_RefTversky>
0.503 

> <ROCS_RefColorTversky>
0.459 

> <ROCS_RefTverskyCombo>
0.962 

> <ROCS_FitTversky>
1.176 

> <ROCS_FitColorTversky>
0.417 

> <ROCS_FitTverskyCombo>
1.592 

> <ROCS_ColorScore>
-3.232

> <ROCS_Overlap>
824.613

> <ROCS_Rank>
371                 

$$$$
untitled-dbase-35978_6
  -OEChem-10092318153D

 30 32  0     0  0  0  0  0  0999 V2000
   -9.0139   -2.7811  -17.5847 C   0  0  0  0  0  0  0  0  0  0  0  0
   -9.6367   -2.3689  -16.4103 C   0  0  0  0  0  0  0  0  0  0  0  0
   -8.0122   -1.9785  -18.1086 C   0  0  0  0  0  0  0  0  0  0  0  0
   -9.2393   -1.1843  -15.7998 C   0  0  0  0  0  0  0  0  0  0  0  0
   -8.2416   -0.4491  -16.4174 C   0  0  0  0  0  0  0  0  0  0  0  0
   -7.8500    0.8465  -15.8519 C   0  0  0  0  0  0  0  0  0  0  0  0
   -8.6913    1.3364  -14.7040 C   0  0  0  0  0  0  0  0  0  0  0  0
  -10.2407    0.6666  -12.8285 C   0  0  0  0  0  0  0  0  0  0  0  0
   -8.0003   -0.5041  -13.0709 C   0  0  0  0  0  0  0  0  0  0  0  0
   -9.6260    1.0207  -11.4782 C   0  0  0  0  0  0  0  0  0  0  0  0
   -8.4673   -1.1241  -11.7543 C   0  0  0  0  0  0  0  0  0  0  0  0
   -9.1768    0.1605  -13.8373 C   0  0  0  0  0  0  0  0  0  0  0  0
   -7.6087   -0.8141  -17.5541 N   0  0  0  0  0  0  0  0  0  0  0  0
   -9.0219   -0.1410  -10.8234 N   0  0  0  0  0  0  0  0  0  0  0  0
   -6.9388    1.5006  -16.3432 O   0  0  0  0  0  0  0  0  0  0  0  0
   -9.8627   -0.8238  -14.6426 O   0  0  0  0  0  0  0  0  0  0  0  0
   -9.3024   -3.7049  -18.0733 H   0  0  0  0  0  0  0  0  0  0  0  0
  -10.4215   -2.9804  -15.9738 H   0  0  0  0  0  0  0  0  0  0  0  0
   -7.4959   -2.2596  -19.0205 H   0  0  0  0  0  0  0  0  0  0  0  0
   -8.1035    2.0387  -14.1054 H   0  0  0  0  0  0  0  0  0  0  0  0
   -9.5396    1.8737  -15.1420 H   0  0  0  0  0  0  0  0  0  0  0  0
  -10.9990   -0.1097  -12.6701 H   0  0  0  0  0  0  0  0  0  0  0  0
  -10.7528    1.5464  -13.2378 H   0  0  0  0  0  0  0  0  0  0  0  0
   -7.2268    0.2440  -12.8646 H   0  0  0  0  0  0  0  0  0  0  0  0
   -7.5352   -1.2914  -13.6705 H   0  0  0  0  0  0  0  0  0  0  0  0
   -8.8496    1.7858  -11.6198 H   0  0  0  0  0  0  0  0  0  0  0  0
  -10.3770    1.4725  -10.8129 H   0  0  0  0  0  0  0  0  0  0  0  0
   -9.2091   -1.9199  -11.9409 H   0  0  0  0  0  0  0  0  0  0  0  0
   -7.6149   -1.6251  -11.2659 H   0  0  0  0  0  0  0  0  0  0  0  0
   -8.2684    0.1865  -10.2024 H   0  0  0  0  0  0  0  0  0  0  0  0
  1  2  1  0  0  0  0
  1  3  2  0  0  0  0
  2  4  2  0  0  0  0
  3 13  1  0  0  0  0
  4  5  1  0  0  0  0
  4 16  1  0  0  0  0
  5  6  1  0  0  0  0
  5 13  2  0  0  0  0
  6  7  1  0  0  0  0
  6 15  2  0  0  0  0
  7 12  1  0  0  0  0
  8 10  1  0  0  0  0
  8 12  1  0  0  0  0
  9 11  1  0  0  0  0
  9 12  1  0  0  0  0
 10 14  1  0  0  0  0
 11 14  1  0  0  0  0
 12 16  1  0  0  0  0
  1 17  1  0  0  0  0
  2 18  1  0  0  0  0
  3 19  1  0  0  0  0
  7 20  1  0  0  0  0
  7 21  1  0  0  0  0
  8 22  1  0  0  0  0
  8 23  1  0  0  0  0
  9 24  1  0  0  0  0
  9 25  1  0  0  0  0
 10 26  1  0  0  0  0
 10 27  1  0  0  0  0
 11 28  1  0  0  0  0
 11 29  1  0  0  0  0
 14 30  1  0  0  0  0
M  END
> <id>
EN300-1692388

> <smiles>
O=C1CC2(CCNCC2)OC=3C=CC=NC13

> <MDLNUMBER>
MFCD28016522

> <IUPAC Name>
3',4'-dihydrospiro[piperidine-4,2'-pyrano[3,2-b]pyridine]-4'-one

> <CAS>
1051654-77-3

> <URL>
https://www.enaminestore.com/catalog/EN300-1692388

> <ROCS_ShapeQuery>
amalgated

> <ROCS_TanimotoCombo>
0.824 

> <ROCS_ShapeTanimoto>
0.551 

> <ROCS_ColorTanimoto>
0.273 

> <ROCS_RefTversky>
0.525 

> <ROCS_RefColorTversky>
0.456 

> <ROCS_RefTverskyCombo>
0.981 

> <ROCS_FitTversky>
1.100 

> <ROCS_FitColorTversky>
0.404 

> <ROCS_FitTverskyCombo>
1.504 

> <ROCS_ColorScore>
-3.214

> <ROCS_Overlap>
861.916

> <ROCS_Rank>
372                 

$$$$
untitled-dbase-19191_6
  -OEChem-10092318153D

 30 32  0     0  0  0  0  0  0999 V2000
   -9.0139   -2.7811  -17.5847 C   0  0  0  0  0  0  0  0  0  0  0  0
   -9.6367   -2.3689  -16.4103 C   0  0  0  0  0  0  0  0  0  0  0  0
   -8.0122   -1.9785  -18.1086 C   0  0  0  0  0  0  0  0  0  0  0  0
   -9.2393   -1.1843  -15.7998 C   0  0  0  0  0  0  0  0  0  0  0  0
   -8.2416   -0.4491  -16.4174 C   0  0  0  0  0  0  0  0  0  0  0  0
   -7.8500    0.8465  -15.8519 C   0  0  0  0  0  0  0  0  0  0  0  0
   -8.6913    1.3364  -14.7040 C   0  0  0  0  0  0  0  0  0  0  0  0
  -10.2407    0.6666  -12.8285 C   0  0  0  0  0  0  0  0  0  0  0  0
   -8.0003   -0.5041  -13.0709 C   0  0  0  0  0  0  0  0  0  0  0  0
   -9.6260    1.0207  -11.4782 C   0  0  0  0  0  0  0  0  0  0  0  0
   -8.4673   -1.1241  -11.7543 C   0  0  0  0  0  0  0  0  0  0  0  0
   -9.1768    0.1605  -13.8373 C   0  0  0  0  0  0  0  0  0  0  0  0
   -7.6087   -0.8141  -17.5541 N   0  0  0  0  0  0  0  0  0  0  0  0
   -9.0219   -0.1410  -10.8234 N   0  0  0  0  0  0  0  0  0  0  0  0
   -6.9388    1.5006  -16.3432 O   0  0  0  0  0  0  0  0  0  0  0  0
   -9.8627   -0.8238  -14.6426 O   0  0  0  0  0  0  0  0  0  0  0  0
   -9.3024   -3.7049  -18.0733 H   0  0  0  0  0  0  0  0  0  0  0  0
  -10.4215   -2.9804  -15.9738 H   0  0  0  0  0  0  0  0  0  0  0  0
   -7.4959   -2.2596  -19.0205 H   0  0  0  0  0  0  0  0  0  0  0  0
   -8.1035    2.0387  -14.1054 H   0  0  0  0  0  0  0  0  0  0  0  0
   -9.5396    1.8737  -15.1420 H   0  0  0  0  0  0  0  0  0  0  0  0
  -10.9990   -0.1097  -12.6701 H   0  0  0  0  0  0  0  0  0  0  0  0
  -10.7528    1.5464  -13.2378 H   0  0  0  0  0  0  0  0  0  0  0  0
   -7.2268    0.2440  -12.8646 H   0  0  0  0  0  0  0  0  0  0  0  0
   -7.5352   -1.2914  -13.6705 H   0  0  0  0  0  0  0  0  0  0  0  0
   -8.8496    1.7858  -11.6198 H   0  0  0  0  0  0  0  0  0  0  0  0
  -10.3770    1.4725  -10.8129 H   0  0  0  0  0  0  0  0  0  0  0  0
   -9.2091   -1.9199  -11.9409 H   0  0  0  0  0  0  0  0  0  0  0  0
   -7.6149   -1.6251  -11.2659 H   0  0  0  0  0  0  0  0  0  0  0  0
   -8.2684    0.1865  -10.2024 H   0  0  0  0  0  0  0  0  0  0  0  0
  1  2  1  0  0  0  0
  1  3  2  0  0  0  0
  2  4  2  0  0  0  0
  3 13  1  0  0  0  0
  4  5  1  0  0  0  0
  4 16  1  0  0  0  0
  5  6  1  0  0  0  0
  5 13  2  0  0  0  0
  6  7  1  0  0  0  0
  6 15  2  0  0  0  0
  7 12  1  0  0  0  0
  8 10  1  0  0  0  0
  8 12  1  0  0  0  0
  9 11  1  0  0  0  0
  9 12  1  0  0  0  0
 10 14  1  0  0  0  0
 11 14  1  0  0  0  0
 12 16  1  0  0  0  0
  1 17  1  0  0  0  0
  2 18  1  0  0  0  0
  3 19  1  0  0  0  0
  7 20  1  0  0  0  0
  7 21  1  0  0  0  0
  8 22  1  0  0  0  0
  8 23  1  0  0  0  0
  9 24  1  0  0  0  0
  9 25  1  0  0  0  0
 10 26  1  0  0  0  0
 10 27  1  0  0  0  0
 11 28  1  0  0  0  0
 11 29  1  0  0  0  0
 14 30  1  0  0  0  0
M  END
> <id>
EN300-1692750

> <smiles>
Cl.Cl.O=C1CC2(CCNCC2)OC=3C=CC=NC13

> <MDLNUMBER>
MFCD31616777

> <IUPAC Name>
3',4'-dihydrospiro[piperidine-4,2'-pyrano[3,2-b]pyridine]-4'-one dihydrochloride

> <CAS>
1051383-44-8

> <Purity>
95

> <URL>
https://www.enaminestore.com/catalog/EN300-1692750

> <Saltdate>
Cl

> <ROCS_ShapeQuery>
amalgated

> <ROCS_TanimotoCombo>
0.824 

> <ROCS_ShapeTanimoto>
0.551 

> <ROCS_ColorTanimoto>
0.273 

> <ROCS_RefTversky>
0.525 

> <ROCS_RefColorTversky>
0.456 

> <ROCS_RefTverskyCombo>
0.981 

> <ROCS_FitTversky>
1.100 

> <ROCS_FitColorTversky>
0.404 

> <ROCS_FitTverskyCombo>
1.504 

> <ROCS_ColorScore>
-3.214

> <ROCS_Overlap>
861.916

> <ROCS_Rank>
373                 

$$$$
untitled-dbase-51934_69
  -OEChem-10092318153D

 36 37  0     1  0  0  0  0  0999 V2000
   -8.5769   -1.5576  -13.7906 C   0  0  0  0  0  0  0  0  0  0  0  0
   -9.3772   -2.3121  -16.9775 C   0  0  0  0  0  0  0  0  0  0  0  0
   -8.9206    0.4992  -15.1147 C   0  0  0  0  0  0  0  0  0  0  0  0
   -8.2466    1.2435  -16.2535 C   0  0  0  0  0  0  0  0  0  0  0  0
   -8.1692   -1.6334  -16.2896 C   0  0  1  0  0  0  0  0  0  0  0  0
   -8.8792   -1.7689  -18.3301 C   0  0  1  0  0  0  0  0  0  0  0  0
   -8.0008   -0.7547  -17.5598 C   0  0  1  0  0  0  0  0  0  0  0  0
   -9.6805   -1.9094  -11.1266 C   0  0  0  0  0  0  0  0  0  0  0  0
   -8.9486    0.4608  -10.7323 C   0  0  0  0  0  0  0  0  0  0  0  0
  -10.6843   -0.0382  -12.4777 C   0  0  0  0  0  0  0  0  0  0  0  0
   -9.4279   -0.5484  -11.7734 C   0  0  0  0  0  0  0  0  0  0  0  0
   -8.5079   -0.9048  -15.0308 N   0  0  0  0  0  0  0  0  0  0  0  0
   -8.0110   -2.7703  -18.9485 N   0  0  0  0  0  0  0  0  0  0  0  0
   -8.7797   -2.7616  -13.6529 O   0  0  0  0  0  0  0  0  0  0  0  0
   -8.5454    0.5807  -17.4754 O   0  0  0  0  0  0  0  0  0  0  0  0
   -8.3845   -0.6926  -12.7481 O   0  0  0  0  0  0  0  0  0  0  0  0
   -9.4327   -3.3998  -16.8653 H   0  0  0  0  0  0  0  0  0  0  0  0
  -10.3493   -1.8949  -16.6854 H   0  0  0  0  0  0  0  0  0  0  0  0
   -8.7180    1.0019  -14.1633 H   0  0  0  0  0  0  0  0  0  0  0  0
  -10.0072    0.4858  -15.2610 H   0  0  0  0  0  0  0  0  0  0  0  0
   -8.6345    2.2646  -16.3193 H   0  0  0  0  0  0  0  0  0  0  0  0
   -7.1609    1.3016  -16.1163 H   0  0  0  0  0  0  0  0  0  0  0  0
   -7.3068   -2.2977  -16.1455 H   0  0  0  0  0  0  0  0  0  0  0  0
   -9.6424   -1.3608  -18.9875 H   0  0  0  0  0  0  0  0  0  0  0  0
   -6.9604   -0.6916  -17.9035 H   0  0  0  0  0  0  0  0  0  0  0  0
  -10.0247   -2.6367  -11.8707 H   0  0  0  0  0  0  0  0  0  0  0  0
   -8.7775   -2.3024  -10.6480 H   0  0  0  0  0  0  0  0  0  0  0  0
  -10.4715   -1.8425  -10.3709 H   0  0  0  0  0  0  0  0  0  0  0  0
   -8.7661    1.4388  -11.1920 H   0  0  0  0  0  0  0  0  0  0  0  0
   -7.9963    0.1444  -10.2915 H   0  0  0  0  0  0  0  0  0  0  0  0
   -9.6786    0.5874   -9.9263 H   0  0  0  0  0  0  0  0  0  0  0  0
  -10.5033    0.9381  -12.9418 H   0  0  0  0  0  0  0  0  0  0  0  0
  -11.0216   -0.7326  -13.2540 H   0  0  0  0  0  0  0  0  0  0  0  0
  -11.5009    0.1066  -11.7612 H   0  0  0  0  0  0  0  0  0  0  0  0
   -8.5792   -3.5236  -19.2527 H   0  0  0  0  0  0  0  0  0  0  0  0
   -7.5492   -2.3440  -19.7152 H   0  0  0  0  0  0  0  0  0  0  0  0
  1 12  1  0  0  0  0
  1 14  2  0  0  0  0
  1 16  1  0  0  0  0
  2  5  1  6  0  0  0
  2  6  1  0  0  0  0
  3  4  1  0  0  0  0
  3 12  1  0  0  0  0
  4 15  1  0  0  0  0
  5  7  1  0  0  0  0
  5 12  1  0  0  0  0
  6  7  1  0  0  0  0
  6 13  1  1  0  0  0
  7 15  1  6  0  0  0
  8 11  1  0  0  0  0
  9 11  1  0  0  0  0
 10 11  1  0  0  0  0
 11 16  1  0  0  0  0
  2 17  1  0  0  0  0
  2 18  1  0  0  0  0
  3 19  1  0  0  0  0
  3 20  1  0  0  0  0
  4 21  1  0  0  0  0
  4 22  1  0  0  0  0
  5 23  1  0  0  0  0
  6 24  1  0  0  0  0
  7 25  1  0  0  0  0
  8 26  1  0  0  0  0
  8 27  1  0  0  0  0
  8 28  1  0  0  0  0
  9 29  1  0  0  0  0
  9 30  1  0  0  0  0
  9 31  1  0  0  0  0
 10 32  1  0  0  0  0
 10 33  1  0  0  0  0
 10 34  1  0  0  0  0
 13 35  1  0  0  0  0
 13 36  1  0  0  0  0
M  END
> <id>
EN300-45158200

> <smiles>
CC(C)(C)OC(=O)N1CCO[C@@H]2[C@@H](N)C[C@@H]21 |&1:11,12,15,r|

> <IUPAC Name>
rac-tert-butyl (1R,6S,8S)-8-amino-2-oxa-5-azabicyclo[4.2.0]octane-5-carboxylate

> <URL>
https://www.enaminestore.com/catalog/EN300-45158200

> <ROCS_ShapeQuery>
amalgated

> <ROCS_TanimotoCombo>
0.824 

> <ROCS_ShapeTanimoto>
0.549 

> <ROCS_ColorTanimoto>
0.275 

> <ROCS_RefTversky>
0.516 

> <ROCS_RefColorTversky>
0.433 

> <ROCS_RefTverskyCombo>
0.950 

> <ROCS_FitTversky>
1.129 

> <ROCS_FitColorTversky>
0.429 

> <ROCS_FitTverskyCombo>
1.558 

> <ROCS_ColorScore>
-3.035

> <ROCS_Overlap>
847.194

> <ROCS_Rank>
374                 

$$$$
untitled-dbase-51154_92
  -OEChem-10092318153D

 41 42  0     1  0  0  0  0  0999 V2000
   -8.9831   -0.2220  -13.2629 C   0  0  0  0  0  0  0  0  0  0  0  0
   -7.6420   -0.5040  -17.8534 C   0  0  0  0  0  0  0  0  0  0  0  0
   -8.4058   -2.7821  -15.7849 C   0  0  0  0  0  0  0  0  0  0  0  0
   -7.7023   -1.3327  -19.1379 C   0  0  0  0  0  0  0  0  0  0  0  0
   -7.8248   -1.8293  -14.7441 C   0  0  0  0  0  0  0  0  0  0  0  0
   -9.3058   -2.8641  -18.1667 C   0  0  0  0  0  0  0  0  0  0  0  0
   -8.9303    0.1673  -15.7439 C   0  0  0  0  0  0  0  0  0  0  0  0
   -9.3136   -2.1029  -16.8307 C   0  0  2  0  0  0  0  0  0  0  0  0
   -8.9515   -0.6255  -17.0590 C   0  0  2  0  0  0  0  0  0  0  0  0
  -10.7991   -0.2391  -11.0513 C   0  0  0  0  0  0  0  0  0  0  0  0
   -9.5003   -2.2292  -10.2378 C   0  0  0  0  0  0  0  0  0  0  0  0
   -8.3612   -0.0030  -10.4719 C   0  0  0  0  0  0  0  0  0  0  0  0
   -9.4362   -0.9299  -11.0377 C   0  0  0  0  0  0  0  0  0  0  0  0
   -8.0273   -2.7337  -18.8700 N   0  0  0  0  0  0  0  0  0  0  0  0
   -8.6416   -0.6399  -14.5551 N   0  0  0  0  0  0  0  0  0  0  0  0
   -9.1793    0.9478  -12.9390 O   0  0  0  0  0  0  0  0  0  0  0  0
   -9.0836   -1.2688  -12.3838 O   0  0  0  0  0  0  0  0  0  0  0  0
   -6.7889   -0.8339  -17.2508 H   0  0  0  0  0  0  0  0  0  0  0  0
   -7.4604    0.5450  -18.1098 H   0  0  0  0  0  0  0  0  0  0  0  0
   -7.5709   -3.3167  -16.2820 H   0  0  0  0  0  0  0  0  0  0  0  0
   -8.9798   -3.5747  -15.2639 H   0  0  0  0  0  0  0  0  0  0  0  0
   -8.4361   -0.9014  -19.8318 H   0  0  0  0  0  0  0  0  0  0  0  0
   -6.7279   -1.2853  -19.6389 H   0  0  0  0  0  0  0  0  0  0  0  0
   -7.7497   -2.3345  -13.7651 H   0  0  0  0  0  0  0  0  0  0  0  0
   -6.7954   -1.5545  -15.0296 H   0  0  0  0  0  0  0  0  0  0  0  0
   -9.5021   -3.9257  -17.9863 H   0  0  0  0  0  0  0  0  0  0  0  0
  -10.1161   -2.4970  -18.8068 H   0  0  0  0  0  0  0  0  0  0  0  0
   -8.2278    1.0180  -15.8301 H   0  0  0  0  0  0  0  0  0  0  0  0
   -9.9240    0.6273  -15.5734 H   0  0  0  0  0  0  0  0  0  0  0  0
  -10.3448   -2.1429  -16.4395 H   0  0  0  0  0  0  0  0  0  0  0  0
   -9.7519   -0.1851  -17.6913 H   0  0  0  0  0  0  0  0  0  0  0  0
  -10.7572    0.6940  -11.6245 H   0  0  0  0  0  0  0  0  0  0  0  0
  -11.5721   -0.8805  -11.4869 H   0  0  0  0  0  0  0  0  0  0  0  0
  -11.1085    0.0353  -10.0363 H   0  0  0  0  0  0  0  0  0  0  0  0
   -8.5245   -2.7282  -10.2253 H   0  0  0  0  0  0  0  0  0  0  0  0
  -10.2023   -2.9353  -10.6958 H   0  0  0  0  0  0  0  0  0  0  0  0
   -9.8122   -2.0519   -9.2034 H   0  0  0  0  0  0  0  0  0  0  0  0
   -7.3835   -0.4983  -10.4620 H   0  0  0  0  0  0  0  0  0  0  0  0
   -8.2756    0.9191  -11.0559 H   0  0  0  0  0  0  0  0  0  0  0  0
   -8.5837    0.2627   -9.4321 H   0  0  0  0  0  0  0  0  0  0  0  0
   -8.0780   -3.2415  -19.7539 H   0  0  0  0  0  0  0  0  0  0  0  0
  1 15  1  0  0  0  0
  1 16  2  0  0  0  0
  1 17  1  0  0  0  0
  2  4  1  0  0  0  0
  2  9  1  6  0  0  0
  3  5  1  0  0  0  0
  3  8  1  6  0  0  0
  4 14  1  0  0  0  0
  5 15  1  0  0  0  0
  6  8  1  0  0  0  0
  6 14  1  0  0  0  0
  7  9  1  0  0  0  0
  7 15  1  0  0  0  0
  8  9  1  0  0  0  0
 10 13  1  0  0  0  0
 11 13  1  0  0  0  0
 12 13  1  0  0  0  0
 13 17  1  0  0  0  0
  2 18  1  0  0  0  0
  2 19  1  0  0  0  0
  3 20  1  0  0  0  0
  3 21  1  0  0  0  0
  4 22  1  0  0  0  0
  4 23  1  0  0  0  0
  5 24  1  0  0  0  0
  5 25  1  0  0  0  0
  6 26  1  0  0  0  0
  6 27  1  0  0  0  0
  7 28  1  0  0  0  0
  7 29  1  0  0  0  0
  8 30  1  0  0  0  0
  9 31  1  0  0  0  0
 10 32  1  0  0  0  0
 10 33  1  0  0  0  0
 10 34  1  0  0  0  0
 11 35  1  0  0  0  0
 11 36  1  0  0  0  0
 11 37  1  0  0  0  0
 12 38  1  0  0  0  0
 12 39  1  0  0  0  0
 12 40  1  0  0  0  0
 14 41  1  0  0  0  0
M  END
> <id>
EN300-37340987

> <smiles>
CC(C)(C)OC(=O)N1CC[C@@H]2CNCC[C@@H]2C1 |&1:10,15,r|

> <MDLNUMBER>
MFCD34601316

> <IUPAC Name>
rac-tert-butyl (4aR,8aR)-decahydro-2,6-naphthyridine-2-carboxylate

> <CAS>
2165463-49-8

> <URL>
https://www.enaminestore.com/catalog/EN300-37340987

> <ROCS_ShapeQuery>
amalgated

> <ROCS_TanimotoCombo>
0.823 

> <ROCS_ShapeTanimoto>
0.573 

> <ROCS_ColorTanimoto>
0.250 

> <ROCS_RefTversky>
0.538 

> <ROCS_RefColorTversky>
0.375 

> <ROCS_RefTverskyCombo>
0.913 

> <ROCS_FitTversky>
1.127 

> <ROCS_FitColorTversky>
0.430 

> <ROCS_FitTverskyCombo>
1.557 

> <ROCS_ColorScore>
-2.605

> <ROCS_Overlap>
884.179

> <ROCS_Rank>
375                 

$$$$
untitled-dbase-29890_92
  -OEChem-10092318153D

 41 42  0     1  0  0  0  0  0999 V2000
   -8.9831   -0.2220  -13.2629 C   0  0  0  0  0  0  0  0  0  0  0  0
   -7.6420   -0.5040  -17.8534 C   0  0  0  0  0  0  0  0  0  0  0  0
   -8.4058   -2.7821  -15.7849 C   0  0  0  0  0  0  0  0  0  0  0  0
   -7.7023   -1.3327  -19.1379 C   0  0  0  0  0  0  0  0  0  0  0  0
   -7.8248   -1.8293  -14.7441 C   0  0  0  0  0  0  0  0  0  0  0  0
   -9.3058   -2.8641  -18.1667 C   0  0  0  0  0  0  0  0  0  0  0  0
   -8.9303    0.1673  -15.7439 C   0  0  0  0  0  0  0  0  0  0  0  0
   -9.3136   -2.1029  -16.8307 C   0  0  2  0  0  0  0  0  0  0  0  0
   -8.9515   -0.6255  -17.0590 C   0  0  2  0  0  0  0  0  0  0  0  0
  -10.7991   -0.2391  -11.0513 C   0  0  0  0  0  0  0  0  0  0  0  0
   -9.5003   -2.2292  -10.2378 C   0  0  0  0  0  0  0  0  0  0  0  0
   -8.3612   -0.0030  -10.4719 C   0  0  0  0  0  0  0  0  0  0  0  0
   -9.4362   -0.9299  -11.0377 C   0  0  0  0  0  0  0  0  0  0  0  0
   -8.0273   -2.7337  -18.8700 N   0  0  0  0  0  0  0  0  0  0  0  0
   -8.6416   -0.6399  -14.5551 N   0  0  0  0  0  0  0  0  0  0  0  0
   -9.1793    0.9478  -12.9390 O   0  0  0  0  0  0  0  0  0  0  0  0
   -9.0836   -1.2688  -12.3838 O   0  0  0  0  0  0  0  0  0  0  0  0
   -6.7889   -0.8339  -17.2508 H   0  0  0  0  0  0  0  0  0  0  0  0
   -7.4604    0.5450  -18.1098 H   0  0  0  0  0  0  0  0  0  0  0  0
   -7.5709   -3.3167  -16.2820 H   0  0  0  0  0  0  0  0  0  0  0  0
   -8.9798   -3.5747  -15.2639 H   0  0  0  0  0  0  0  0  0  0  0  0
   -8.4361   -0.9014  -19.8318 H   0  0  0  0  0  0  0  0  0  0  0  0
   -6.7279   -1.2853  -19.6389 H   0  0  0  0  0  0  0  0  0  0  0  0
   -7.7497   -2.3345  -13.7651 H   0  0  0  0  0  0  0  0  0  0  0  0
   -6.7954   -1.5545  -15.0296 H   0  0  0  0  0  0  0  0  0  0  0  0
   -9.5021   -3.9257  -17.9863 H   0  0  0  0  0  0  0  0  0  0  0  0
  -10.1161   -2.4970  -18.8068 H   0  0  0  0  0  0  0  0  0  0  0  0
   -8.2278    1.0180  -15.8301 H   0  0  0  0  0  0  0  0  0  0  0  0
   -9.9240    0.6273  -15.5734 H   0  0  0  0  0  0  0  0  0  0  0  0
  -10.3448   -2.1429  -16.4395 H   0  0  0  0  0  0  0  0  0  0  0  0
   -9.7519   -0.1851  -17.6913 H   0  0  0  0  0  0  0  0  0  0  0  0
  -10.7572    0.6940  -11.6245 H   0  0  0  0  0  0  0  0  0  0  0  0
  -11.5721   -0.8805  -11.4869 H   0  0  0  0  0  0  0  0  0  0  0  0
  -11.1085    0.0353  -10.0363 H   0  0  0  0  0  0  0  0  0  0  0  0
   -8.5245   -2.7282  -10.2253 H   0  0  0  0  0  0  0  0  0  0  0  0
  -10.2023   -2.9353  -10.6958 H   0  0  0  0  0  0  0  0  0  0  0  0
   -9.8122   -2.0519   -9.2034 H   0  0  0  0  0  0  0  0  0  0  0  0
   -7.3835   -0.4983  -10.4620 H   0  0  0  0  0  0  0  0  0  0  0  0
   -8.2756    0.9191  -11.0559 H   0  0  0  0  0  0  0  0  0  0  0  0
   -8.5837    0.2627   -9.4321 H   0  0  0  0  0  0  0  0  0  0  0  0
   -8.0780   -3.2415  -19.7539 H   0  0  0  0  0  0  0  0  0  0  0  0
  1 15  1  0  0  0  0
  1 16  2  0  0  0  0
  1 17  1  0  0  0  0
  2  4  1  0  0  0  0
  2  9  1  6  0  0  0
  3  5  1  0  0  0  0
  3  8  1  6  0  0  0
  4 14  1  0  0  0  0
  5 15  1  0  0  0  0
  6  8  1  0  0  0  0
  6 14  1  0  0  0  0
  7  9  1  0  0  0  0
  7 15  1  0  0  0  0
  8  9  1  0  0  0  0
 10 13  1  0  0  0  0
 11 13  1  0  0  0  0
 12 13  1  0  0  0  0
 13 17  1  0  0  0  0
  2 18  1  0  0  0  0
  2 19  1  0  0  0  0
  3 20  1  0  0  0  0
  3 21  1  0  0  0  0
  4 22  1  0  0  0  0
  4 23  1  0  0  0  0
  5 24  1  0  0  0  0
  5 25  1  0  0  0  0
  6 26  1  0  0  0  0
  6 27  1  0  0  0  0
  7 28  1  0  0  0  0
  7 29  1  0  0  0  0
  8 30  1  0  0  0  0
  9 31  1  0  0  0  0
 10 32  1  0  0  0  0
 10 33  1  0  0  0  0
 10 34  1  0  0  0  0
 11 35  1  0  0  0  0
 11 36  1  0  0  0  0
 11 37  1  0  0  0  0
 12 38  1  0  0  0  0
 12 39  1  0  0  0  0
 12 40  1  0  0  0  0
 14 41  1  0  0  0  0
M  END
> <id>
EN300-37340986

> <smiles>
Cl.CC(C)(C)OC(=O)N1CC[C@@H]2CNCC[C@@H]2C1 |&1:11,16,r|

> <MDLNUMBER>
MFCD34600646

> <IUPAC Name>
rac-tert-butyl (4aR,8aR)-decahydro-2,6-naphthyridine-2-carboxylate hydrochloride

> <CAS>
2763583-98-6

> <Purity>
95

> <URL>
https://www.enaminestore.com/catalog/EN300-37340986

> <ROCS_ShapeQuery>
amalgated

> <ROCS_TanimotoCombo>
0.823 

> <ROCS_ShapeTanimoto>
0.573 

> <ROCS_ColorTanimoto>
0.250 

> <ROCS_RefTversky>
0.538 

> <ROCS_RefColorTversky>
0.375 

> <ROCS_RefTverskyCombo>
0.913 

> <ROCS_FitTversky>
1.127 

> <ROCS_FitColorTversky>
0.430 

> <ROCS_FitTverskyCombo>
1.557 

> <ROCS_ColorScore>
-2.605

> <ROCS_Overlap>
884.179

> <ROCS_Rank>
376                 

$$$$
untitled-dbase-37808_8
  -OEChem-10092318153D

 37 39  0     1  0  0  0  0  0999 V2000
   -7.1565   -0.0065  -18.9312 C   0  0  0  0  0  0  0  0  0  0  0  0
   -7.2855    2.1346  -17.8450 C   0  0  0  0  0  0  0  0  0  0  0  0
   -7.7735   -0.6346  -17.8318 C   0  0  0  0  0  0  0  0  0  0  0  0
   -8.1390    0.1476  -16.7038 C   0  0  0  0  0  0  0  0  0  0  0  0
   -6.9248    1.3670  -18.9418 C   0  0  0  0  0  0  0  0  0  0  0  0
   -7.8798    1.5312  -16.7362 C   0  0  0  0  0  0  0  0  0  0  0  0
   -9.0585   -0.8572  -12.4921 C   0  0  0  0  0  0  0  0  0  0  0  0
   -8.2431   -1.8363  -13.3277 C   0  0  0  0  0  0  0  0  0  0  0  0
  -10.1581   -0.1867  -13.3068 C   0  0  0  0  0  0  0  0  0  0  0  0
   -9.1975   -2.5990  -17.0179 C   0  0  0  0  0  0  0  0  0  0  0  0
   -7.6980   -1.1891  -14.6027 C   0  0  0  0  0  0  0  0  0  0  0  0
   -9.5967    0.4534  -14.5792 C   0  0  0  0  0  0  0  0  0  0  0  0
   -9.7954   -1.5696  -16.0602 C   0  0  0  0  0  0  0  0  0  0  0  0
   -7.9473   -2.1439  -17.7858 C   0  0  1  0  0  0  0  0  0  0  0  0
   -8.7954   -0.5348  -15.4849 C   0  0  0  0  0  0  0  0  0  0  0  0
   -7.9626   -2.8260  -19.0861 N   0  0  0  0  0  0  0  0  0  0  0  0
   -6.3458    1.9417  -20.0055 F   0  0  0  0  0  0  0  0  0  0  0  0
   -8.1337    2.3172  -15.6828 F   0  0  0  0  0  0  0  0  0  0  0  0
   -6.8464   -0.5936  -19.7935 H   0  0  0  0  0  0  0  0  0  0  0  0
   -7.0923    3.2036  -17.8423 H   0  0  0  0  0  0  0  0  0  0  0  0
   -9.4996   -1.3808  -11.6365 H   0  0  0  0  0  0  0  0  0  0  0  0
   -8.3911   -0.0883  -12.0834 H   0  0  0  0  0  0  0  0  0  0  0  0
   -7.4051   -2.2122  -12.7281 H   0  0  0  0  0  0  0  0  0  0  0  0
   -8.8544   -2.7111  -13.5762 H   0  0  0  0  0  0  0  0  0  0  0  0
  -10.9361   -0.9157  -13.5578 H   0  0  0  0  0  0  0  0  0  0  0  0
  -10.6424    0.5848  -12.6969 H   0  0  0  0  0  0  0  0  0  0  0  0
   -8.9593   -3.5333  -16.4558 H   0  0  0  0  0  0  0  0  0  0  0  0
   -9.9839   -2.9282  -17.7395 H   0  0  0  0  0  0  0  0  0  0  0  0
   -6.9627   -0.4375  -14.2930 H   0  0  0  0  0  0  0  0  0  0  0  0
   -7.1333   -1.9363  -15.1694 H   0  0  0  0  0  0  0  0  0  0  0  0
  -10.4215    0.9021  -15.1531 H   0  0  0  0  0  0  0  0  0  0  0  0
   -8.9849    1.3006  -14.2512 H   0  0  0  0  0  0  0  0  0  0  0  0
  -10.6200   -1.0432  -16.5862 H   0  0  0  0  0  0  0  0  0  0  0  0
  -10.3153   -2.1223  -15.2530 H   0  0  0  0  0  0  0  0  0  0  0  0
   -7.0886   -2.5818  -17.2185 H   0  0  0  0  0  0  0  0  0  0  0  0
   -7.0961   -2.6491  -19.5314 H   0  0  0  0  0  0  0  0  0  0  0  0
   -8.0858   -3.7941  -18.9185 H   0  0  0  0  0  0  0  0  0  0  0  0
  1  3  2  0  0  0  0
  1  5  1  0  0  0  0
  2  5  2  0  0  0  0
  2  6  1  0  0  0  0
  3  4  1  0  0  0  0
  3 14  1  0  0  0  0
  4  6  2  0  0  0  0
  4 15  1  0  0  0  0
  5 17  1  0  0  0  0
  6 18  1  0  0  0  0
  7  8  1  0  0  0  0
  7  9  1  0  0  0  0
  8 11  1  0  0  0  0
  9 12  1  0  0  0  0
 10 13  1  0  0  0  0
 10 14  1  0  0  0  0
 11 15  1  0  0  0  0
 12 15  1  0  0  0  0
 13 15  1  0  0  0  0
 14 16  1  0  0  0  0
  1 19  1  0  0  0  0
  2 20  1  0  0  0  0
  7 21  1  0  0  0  0
  7 22  1  0  0  0  0
  8 23  1  0  0  0  0
  8 24  1  0  0  0  0
  9 25  1  0  0  0  0
  9 26  1  0  0  0  0
 10 27  1  0  0  0  0
 10 28  1  0  0  0  0
 11 29  1  0  0  0  0
 11 30  1  0  0  0  0
 12 31  1  0  0  0  0
 12 32  1  0  0  0  0
 13 33  1  0  0  0  0
 13 34  1  0  0  0  0
 14 35  1  0  0  0  0
 16 36  1  0  0  0  0
 16 37  1  0  0  0  0
M  END
> <id>
EN300-1458056

> <smiles>
NC1CCC2(CCCCC2)C=3C(F)=CC(F)=CC13

> <IUPAC Name>
6',8'-difluoro-3',4'-dihydro-2'H-spiro[cyclohexane-1,1'-naphthalene]-4'-amine

> <CAS>
2172199-53-8

> <URL>
https://www.enaminestore.com/catalog/EN300-1458056

> <ROCS_ShapeQuery>
amalgated

> <ROCS_TanimotoCombo>
0.823 

> <ROCS_ShapeTanimoto>
0.512 

> <ROCS_ColorTanimoto>
0.311 

> <ROCS_RefTversky>
0.512 

> <ROCS_RefColorTversky>
0.413 

> <ROCS_RefTverskyCombo>
0.925 

> <ROCS_FitTversky>
1.000 

> <ROCS_FitColorTversky>
0.558 

> <ROCS_FitTverskyCombo>
1.558 

> <ROCS_ColorScore>
-2.850

> <ROCS_Overlap>
842.746

> <ROCS_Rank>
377                 

$$$$
untitled-dbase-37591_0
  -OEChem-10092318153D

 35 35  0     0  0  0  0  0  0999 V2000
   -8.4006   -0.3469  -14.6239 C   0  0  0  0  0  0  0  0  0  0  0  0
   -8.7050   -0.5673  -18.2208 C   0  0  0  0  0  0  0  0  0  0  0  0
   -9.6404   -2.6679  -17.2079 C   0  0  0  0  0  0  0  0  0  0  0  0
   -7.7754   -0.4299  -17.0172 C   0  0  0  0  0  0  0  0  0  0  0  0
   -8.7101   -2.4864  -16.0054 C   0  0  0  0  0  0  0  0  0  0  0  0
   -9.0860   -2.0273  -18.4835 C   0  0  0  0  0  0  0  0  0  0  0  0
   -9.6872   -1.4211  -11.2591 C   0  0  0  0  0  0  0  0  0  0  0  0
   -7.6752   -0.0020  -11.7351 C   0  0  0  0  0  0  0  0  0  0  0  0
   -9.9653    0.8213  -12.3405 C   0  0  0  0  0  0  0  0  0  0  0  0
   -9.0643   -0.4145  -12.2332 C   0  0  0  0  0  0  0  0  0  0  0  0
   -8.3343   -1.0753  -15.8253 N   0  0  0  0  0  0  0  0  0  0  0  0
   -7.9649   -2.7776  -19.0020 N   0  0  0  0  0  0  0  0  0  0  0  0
   -8.9363   -1.0273  -13.5368 N   0  0  0  0  0  0  0  0  0  0  0  0
   -8.0066    0.8202  -14.5264 O   0  0  0  0  0  0  0  0  0  0  0  0
   -9.6167    0.0161  -18.0375 H   0  0  0  0  0  0  0  0  0  0  0  0
   -8.2288   -0.1286  -19.1063 H   0  0  0  0  0  0  0  0  0  0  0  0
   -9.8314   -3.7365  -17.3658 H   0  0  0  0  0  0  0  0  0  0  0  0
  -10.6117   -2.2124  -16.9744 H   0  0  0  0  0  0  0  0  0  0  0  0
   -6.8057   -0.9015  -17.2156 H   0  0  0  0  0  0  0  0  0  0  0  0
   -7.5785    0.6305  -16.8304 H   0  0  0  0  0  0  0  0  0  0  0  0
   -9.2197   -2.8899  -15.1297 H   0  0  0  0  0  0  0  0  0  0  0  0
   -7.7824   -3.0547  -16.1369 H   0  0  0  0  0  0  0  0  0  0  0  0
   -9.8864   -2.0408  -19.2514 H   0  0  0  0  0  0  0  0  0  0  0  0
  -10.6835   -1.7322  -11.5942 H   0  0  0  0  0  0  0  0  0  0  0  0
   -9.0682   -2.3201  -11.1646 H   0  0  0  0  0  0  0  0  0  0  0  0
   -9.8031   -0.9844  -10.2603 H   0  0  0  0  0  0  0  0  0  0  0  0
   -7.2088    0.7189  -12.4167 H   0  0  0  0  0  0  0  0  0  0  0  0
   -7.0051   -0.8672  -11.6712 H   0  0  0  0  0  0  0  0  0  0  0  0
   -7.7278    0.4580  -10.7421 H   0  0  0  0  0  0  0  0  0  0  0  0
   -9.5429    1.5593  -13.0323 H   0  0  0  0  0  0  0  0  0  0  0  0
  -10.9656    0.5556  -12.6997 H   0  0  0  0  0  0  0  0  0  0  0  0
  -10.0770    1.3154  -11.3684 H   0  0  0  0  0  0  0  0  0  0  0  0
   -8.2717   -3.7031  -19.1800 H   0  0  0  0  0  0  0  0  0  0  0  0
   -7.6629   -2.3379  -19.8374 H   0  0  0  0  0  0  0  0  0  0  0  0
   -9.2466   -1.9819  -13.6614 H   0  0  0  0  0  0  0  0  0  0  0  0
  1 11  1  0  0  0  0
  1 13  1  0  0  0  0
  1 14  2  0  0  0  0
  2  4  1  0  0  0  0
  2  6  1  0  0  0  0
  3  5  1  0  0  0  0
  3  6  1  0  0  0  0
  4 11  1  0  0  0  0
  5 11  1  0  0  0  0
  6 12  1  0  0  0  0
  7 10  1  0  0  0  0
  8 10  1  0  0  0  0
  9 10  1  0  0  0  0
 10 13  1  0  0  0  0
  2 15  1  0  0  0  0
  2 16  1  0  0  0  0
  3 17  1  0  0  0  0
  3 18  1  0  0  0  0
  4 19  1  0  0  0  0
  4 20  1  0  0  0  0
  5 21  1  0  0  0  0
  5 22  1  0  0  0  0
  6 23  1  0  0  0  0
  7 24  1  0  0  0  0
  7 25  1  0  0  0  0
  7 26  1  0  0  0  0
  8 27  1  0  0  0  0
  8 28  1  0  0  0  0
  8 29  1  0  0  0  0
  9 30  1  0  0  0  0
  9 31  1  0  0  0  0
  9 32  1  0  0  0  0
 12 33  1  0  0  0  0
 12 34  1  0  0  0  0
 13 35  1  0  0  0  0
M  END
> <id>
EN300-150070

> <smiles>
CC(C)(C)NC(=O)N1CCC(N)CC1

> <MDLNUMBER>
MFCD11171862

> <IUPAC Name>
4-amino-N-tert-butylpiperidine-1-carboxamide

> <CAS>
1042784-43-9

> <URL>
https://www.enaminestore.com/catalog/EN300-150070

> <ROCS_ShapeQuery>
amalgated

> <ROCS_TanimotoCombo>
0.823 

> <ROCS_ShapeTanimoto>
0.525 

> <ROCS_ColorTanimoto>
0.298 

> <ROCS_RefTversky>
0.479 

> <ROCS_RefColorTversky>
0.429 

> <ROCS_RefTverskyCombo>
0.909 

> <ROCS_FitTversky>
1.219 

> <ROCS_FitColorTversky>
0.493 

> <ROCS_FitTverskyCombo>
1.712 

> <ROCS_ColorScore>
-2.983

> <ROCS_Overlap>
783.956

> <ROCS_Rank>
378                 

$$$$
untitled-dbase-2674_0
  -OEChem-10092318153D

 35 35  0     0  0  0  0  0  0999 V2000
   -8.4006   -0.3469  -14.6239 C   0  0  0  0  0  0  0  0  0  0  0  0
   -8.7050   -0.5673  -18.2208 C   0  0  0  0  0  0  0  0  0  0  0  0
   -9.6404   -2.6679  -17.2079 C   0  0  0  0  0  0  0  0  0  0  0  0
   -7.7754   -0.4299  -17.0172 C   0  0  0  0  0  0  0  0  0  0  0  0
   -8.7101   -2.4864  -16.0054 C   0  0  0  0  0  0  0  0  0  0  0  0
   -9.0860   -2.0273  -18.4835 C   0  0  0  0  0  0  0  0  0  0  0  0
   -9.6872   -1.4211  -11.2591 C   0  0  0  0  0  0  0  0  0  0  0  0
   -7.6752   -0.0020  -11.7351 C   0  0  0  0  0  0  0  0  0  0  0  0
   -9.9653    0.8213  -12.3405 C   0  0  0  0  0  0  0  0  0  0  0  0
   -9.0643   -0.4145  -12.2332 C   0  0  0  0  0  0  0  0  0  0  0  0
   -8.3343   -1.0753  -15.8253 N   0  0  0  0  0  0  0  0  0  0  0  0
   -7.9649   -2.7776  -19.0020 N   0  0  0  0  0  0  0  0  0  0  0  0
   -8.9363   -1.0273  -13.5368 N   0  0  0  0  0  0  0  0  0  0  0  0
   -8.0066    0.8202  -14.5264 O   0  0  0  0  0  0  0  0  0  0  0  0
   -9.6167    0.0161  -18.0375 H   0  0  0  0  0  0  0  0  0  0  0  0
   -8.2288   -0.1286  -19.1063 H   0  0  0  0  0  0  0  0  0  0  0  0
   -9.8314   -3.7365  -17.3658 H   0  0  0  0  0  0  0  0  0  0  0  0
  -10.6117   -2.2124  -16.9744 H   0  0  0  0  0  0  0  0  0  0  0  0
   -6.8057   -0.9015  -17.2156 H   0  0  0  0  0  0  0  0  0  0  0  0
   -7.5785    0.6305  -16.8304 H   0  0  0  0  0  0  0  0  0  0  0  0
   -9.2197   -2.8899  -15.1297 H   0  0  0  0  0  0  0  0  0  0  0  0
   -7.7824   -3.0547  -16.1369 H   0  0  0  0  0  0  0  0  0  0  0  0
   -9.8864   -2.0408  -19.2514 H   0  0  0  0  0  0  0  0  0  0  0  0
  -10.6835   -1.7322  -11.5942 H   0  0  0  0  0  0  0  0  0  0  0  0
   -9.0682   -2.3201  -11.1646 H   0  0  0  0  0  0  0  0  0  0  0  0
   -9.8031   -0.9844  -10.2603 H   0  0  0  0  0  0  0  0  0  0  0  0
   -7.2088    0.7189  -12.4167 H   0  0  0  0  0  0  0  0  0  0  0  0
   -7.0051   -0.8672  -11.6712 H   0  0  0  0  0  0  0  0  0  0  0  0
   -7.7278    0.4580  -10.7421 H   0  0  0  0  0  0  0  0  0  0  0  0
   -9.5429    1.5593  -13.0323 H   0  0  0  0  0  0  0  0  0  0  0  0
  -10.9656    0.5556  -12.6997 H   0  0  0  0  0  0  0  0  0  0  0  0
  -10.0770    1.3154  -11.3684 H   0  0  0  0  0  0  0  0  0  0  0  0
   -8.2717   -3.7031  -19.1800 H   0  0  0  0  0  0  0  0  0  0  0  0
   -7.6629   -2.3379  -19.8374 H   0  0  0  0  0  0  0  0  0  0  0  0
   -9.2466   -1.9819  -13.6614 H   0  0  0  0  0  0  0  0  0  0  0  0
  1 11  1  0  0  0  0
  1 13  1  0  0  0  0
  1 14  2  0  0  0  0
  2  4  1  0  0  0  0
  2  6  1  0  0  0  0
  3  5  1  0  0  0  0
  3  6  1  0  0  0  0
  4 11  1  0  0  0  0
  5 11  1  0  0  0  0
  6 12  1  0  0  0  0
  7 10  1  0  0  0  0
  8 10  1  0  0  0  0
  9 10  1  0  0  0  0
 10 13  1  0  0  0  0
  2 15  1  0  0  0  0
  2 16  1  0  0  0  0
  3 17  1  0  0  0  0
  3 18  1  0  0  0  0
  4 19  1  0  0  0  0
  4 20  1  0  0  0  0
  5 21  1  0  0  0  0
  5 22  1  0  0  0  0
  6 23  1  0  0  0  0
  7 24  1  0  0  0  0
  7 25  1  0  0  0  0
  7 26  1  0  0  0  0
  8 27  1  0  0  0  0
  8 28  1  0  0  0  0
  8 29  1  0  0  0  0
  9 30  1  0  0  0  0
  9 31  1  0  0  0  0
  9 32  1  0  0  0  0
 12 33  1  0  0  0  0
 12 34  1  0  0  0  0
 13 35  1  0  0  0  0
M  END
> <id>
EN300-123893

> <smiles>
Cl.Cl.CC(C)(C)NC(=O)N1CCC(N)CC1

> <MDLNUMBER>
MFCD23144146

> <IUPAC Name>
4-amino-N-tert-butylpiperidine-1-carboxamide dihydrochloride

> <CAS>
1427379-45-0

> <Purity>
95

> <URL>
https://www.enaminestore.com/catalog/EN300-123893

> <Saltdate>
Cl

> <ROCS_ShapeQuery>
amalgated

> <ROCS_TanimotoCombo>
0.823 

> <ROCS_ShapeTanimoto>
0.525 

> <ROCS_ColorTanimoto>
0.298 

> <ROCS_RefTversky>
0.479 

> <ROCS_RefColorTversky>
0.429 

> <ROCS_RefTverskyCombo>
0.909 

> <ROCS_FitTversky>
1.219 

> <ROCS_FitColorTversky>
0.493 

> <ROCS_FitTverskyCombo>
1.712 

> <ROCS_ColorScore>
-2.983

> <ROCS_Overlap>
783.956

> <ROCS_Rank>
379                 

$$$$
untitled-dbase-15073_27
  -OEChem-10092318153D

 44 47  0     0  0  0  0  0  0999 V2000
   -8.7812   -2.3660  -18.0355 C   0  0  0  0  0  0  0  0  0  0  0  0
   -8.5386    1.7932  -17.4762 C   0  0  0  0  0  0  0  0  0  0  0  0
   -7.5739   -1.5061  -17.6042 C   0  0  0  0  0  0  0  0  0  0  0  0
   -9.6623   -1.4058  -17.2072 C   0  0  0  0  0  0  0  0  0  0  0  0
   -9.3792    1.3759  -16.2574 C   0  0  0  0  0  0  0  0  0  0  0  0
   -7.2998    1.2984  -16.7129 C   0  0  0  0  0  0  0  0  0  0  0  0
   -7.6498   -0.5487  -12.2966 C   0  0  0  0  0  0  0  0  0  0  0  0
   -9.8293    0.4486  -12.9880 C   0  0  0  0  0  0  0  0  0  0  0  0
   -8.3409   -1.1215  -11.0555 C   0  0  0  0  0  0  0  0  0  0  0  0
  -10.4648   -0.1703  -11.7399 C   0  0  0  0  0  0  0  0  0  0  0  0
   -8.2048   -2.0514  -15.1575 C   0  0  0  0  0  0  0  0  0  0  0  0
   -8.3965   -1.0915  -16.3460 C   0  0  0  0  0  0  0  0  0  0  0  0
   -8.2339    0.4001  -15.8390 C   0  0  0  0  0  0  0  0  0  0  0  0
   -8.6029   -0.3337  -13.4924 C   0  0  0  0  0  0  0  0  0  0  0  0
  -10.1109   -0.8254   -9.4488 C   0  0  0  0  0  0  0  0  0  0  0  0
   -9.0533   -1.6198  -14.0509 N   0  0  0  0  0  0  0  0  0  0  0  0
   -9.4821   -0.2888  -10.6555 N   0  0  0  0  0  0  0  0  0  0  0  0
   -7.8874    0.4929  -14.4280 O   0  0  0  0  0  0  0  0  0  0  0  0
   -8.9850   -2.3885  -19.1044 H   0  0  0  0  0  0  0  0  0  0  0  0
   -8.7563   -3.3861  -17.6484 H   0  0  0  0  0  0  0  0  0  0  0  0
   -8.7630    1.2709  -18.4086 H   0  0  0  0  0  0  0  0  0  0  0  0
   -8.5390    2.8729  -17.6610 H   0  0  0  0  0  0  0  0  0  0  0  0
   -6.6526   -2.0676  -17.4243 H   0  0  0  0  0  0  0  0  0  0  0  0
   -7.3453   -0.7103  -18.3202 H   0  0  0  0  0  0  0  0  0  0  0  0
  -10.0701   -0.5899  -17.8046 H   0  0  0  0  0  0  0  0  0  0  0  0
  -10.4875   -1.8834  -16.6762 H   0  0  0  0  0  0  0  0  0  0  0  0
   -9.6005    2.2050  -15.5755 H   0  0  0  0  0  0  0  0  0  0  0  0
  -10.3390    0.9140  -16.5280 H   0  0  0  0  0  0  0  0  0  0  0  0
   -6.5702    0.7930  -17.3580 H   0  0  0  0  0  0  0  0  0  0  0  0
   -6.7620    2.0849  -16.1660 H   0  0  0  0  0  0  0  0  0  0  0  0
   -7.1814    0.4120  -12.0132 H   0  0  0  0  0  0  0  0  0  0  0  0
   -6.8202   -1.2226  -12.5835 H   0  0  0  0  0  0  0  0  0  0  0  0
  -10.5939    0.5037  -13.7839 H   0  0  0  0  0  0  0  0  0  0  0  0
   -9.5677    1.4924  -12.7589 H   0  0  0  0  0  0  0  0  0  0  0  0
   -8.6904   -2.1324  -11.2972 H   0  0  0  0  0  0  0  0  0  0  0  0
   -7.6194   -1.2182  -10.2340 H   0  0  0  0  0  0  0  0  0  0  0  0
  -11.3321    0.4242  -11.4235 H   0  0  0  0  0  0  0  0  0  0  0  0
  -10.8378   -1.1669  -12.0079 H   0  0  0  0  0  0  0  0  0  0  0  0
   -8.4292   -3.0792  -15.4518 H   0  0  0  0  0  0  0  0  0  0  0  0
   -7.1658   -2.0396  -14.8202 H   0  0  0  0  0  0  0  0  0  0  0  0
  -10.9624   -0.1896   -9.1648 H   0  0  0  0  0  0  0  0  0  0  0  0
  -10.4660   -1.8479   -9.6443 H   0  0  0  0  0  0  0  0  0  0  0  0
   -9.3769   -0.8425   -8.6297 H   0  0  0  0  0  0  0  0  0  0  0  0
  -10.0138   -1.5456  -14.3630 H   0  0  0  0  0  0  0  0  0  0  0  0
  1  3  1  0  0  0  0
  1  4  1  0  0  0  0
  2  5  1  0  0  0  0
  2  6  1  0  0  0  0
  3 12  1  0  0  0  0
  4 12  1  0  0  0  0
  5 13  1  0  0  0  0
  6 13  1  0  0  0  0
  7  9  1  0  0  0  0
  7 14  1  0  0  0  0
  8 10  1  0  0  0  0
  8 14  1  0  0  0  0
  9 17  1  0  0  0  0
 10 17  1  0  0  0  0
 11 12  1  0  0  0  0
 11 16  1  0  0  0  0
 12 13  1  0  0  0  0
 13 18  1  0  0  0  0
 14 16  1  0  0  0  0
 14 18  1  0  0  0  0
 15 17  1  0  0  0  0
  1 19  1  0  0  0  0
  1 20  1  0  0  0  0
  2 21  1  0  0  0  0
  2 22  1  0  0  0  0
  3 23  1  0  0  0  0
  3 24  1  0  0  0  0
  4 25  1  0  0  0  0
  4 26  1  0  0  0  0
  5 27  1  0  0  0  0
  5 28  1  0  0  0  0
  6 29  1  0  0  0  0
  6 30  1  0  0  0  0
  7 31  1  0  0  0  0
  7 32  1  0  0  0  0
  8 33  1  0  0  0  0
  8 34  1  0  0  0  0
  9 35  1  0  0  0  0
  9 36  1  0  0  0  0
 10 37  1  0  0  0  0
 10 38  1  0  0  0  0
 11 39  1  0  0  0  0
 11 40  1  0  0  0  0
 15 41  1  0  0  0  0
 15 42  1  0  0  0  0
 15 43  1  0  0  0  0
 16 44  1  0  0  0  0
M  END
> <id>
EN300-1280357

> <smiles>
CN1CCC2(CC1)NCC3(CCC3)C4(CCC4)O2

> <IUPAC Name>
13-methyl-9-oxa-13,16-diazatrispiro[3.0.3^{5}.1.5^{10}.2^{4}]heptadecane

> <URL>
https://www.enaminestore.com/catalog/EN300-1280357

> <ROCS_ShapeQuery>
amalgated

> <ROCS_TanimotoCombo>
0.822 

> <ROCS_ShapeTanimoto>
0.593 

> <ROCS_ColorTanimoto>
0.230 

> <ROCS_RefTversky>
0.564 

> <ROCS_RefColorTversky>
0.397 

> <ROCS_RefTverskyCombo>
0.962 

> <ROCS_FitTversky>
1.094 

> <ROCS_FitColorTversky>
0.352 

> <ROCS_FitTverskyCombo>
1.446 

> <ROCS_ColorScore>
-2.802

> <ROCS_Overlap>
928.472

> <ROCS_Rank>
380                 

$$$$
untitled-dbase-34875_102
  -OEChem-10092318153D

 42 43  0     1  0  0  0  0  0999 V2000
   -8.1474   -0.2202  -13.2142 C   0  0  0  0  0  0  0  0  0  0  0  0
   -7.4649    1.3409  -16.5864 C   0  0  0  0  0  0  0  0  0  0  0  0
   -7.7267    0.1629  -17.5297 C   0  0  0  0  0  0  0  0  0  0  0  0
   -8.2129    1.2144  -15.2704 C   0  0  0  0  0  0  0  0  0  0  0  0
   -9.4058   -2.9369  -18.5565 C   0  0  0  0  0  0  0  0  0  0  0  0
   -7.3128   -2.3674  -17.5647 C   0  0  0  0  0  0  0  0  0  0  0  0
   -7.3485   -1.1352  -15.3810 C   0  0  0  0  0  0  0  0  0  0  0  0
  -10.0656   -1.7897  -17.8069 C   0  0  0  0  0  0  0  0  0  0  0  0
   -7.9507   -1.1880  -16.7994 C   0  0  1  0  0  0  0  0  0  0  0  0
   -8.3208    0.8314  -10.5591 C   0  0  0  0  0  0  0  0  0  0  0  0
  -10.7302    1.2941  -11.0974 C   0  0  0  0  0  0  0  0  0  0  0  0
   -9.8811   -1.0696  -11.0943 C   0  0  0  0  0  0  0  0  0  0  0  0
   -9.5320    0.3904  -11.3796 C   0  0  0  0  0  0  0  0  0  0  0  0
   -8.0050   -2.6202  -18.8298 N   0  0  0  0  0  0  0  0  0  0  0  0
   -7.9082   -0.0408  -14.5810 N   0  0  0  0  0  0  0  0  0  0  0  0
   -7.4885   -0.9587  -12.4848 O   0  0  0  0  0  0  0  0  0  0  0  0
   -9.3554   -1.4627  -16.6123 O   0  0  0  0  0  0  0  0  0  0  0  0
   -9.2121    0.5195  -12.7696 O   0  0  0  0  0  0  0  0  0  0  0  0
   -6.3833    1.4161  -16.3911 H   0  0  0  0  0  0  0  0  0  0  0  0
   -7.7499    2.2831  -17.0834 H   0  0  0  0  0  0  0  0  0  0  0  0
   -8.6101    0.4068  -18.1449 H   0  0  0  0  0  0  0  0  0  0  0  0
   -6.8764    0.0698  -18.2280 H   0  0  0  0  0  0  0  0  0  0  0  0
   -7.9316    2.0320  -14.5879 H   0  0  0  0  0  0  0  0  0  0  0  0
   -9.2951    1.3074  -15.4444 H   0  0  0  0  0  0  0  0  0  0  0  0
   -9.4668   -3.8570  -17.9672 H   0  0  0  0  0  0  0  0  0  0  0  0
   -9.9264   -3.1209  -19.5033 H   0  0  0  0  0  0  0  0  0  0  0  0
   -6.2582   -2.1567  -17.7815 H   0  0  0  0  0  0  0  0  0  0  0  0
   -7.3345   -3.2781  -16.9560 H   0  0  0  0  0  0  0  0  0  0  0  0
   -7.4711   -2.0873  -14.8494 H   0  0  0  0  0  0  0  0  0  0  0  0
   -6.2614   -0.9583  -15.4353 H   0  0  0  0  0  0  0  0  0  0  0  0
  -10.0680   -0.8934  -18.4386 H   0  0  0  0  0  0  0  0  0  0  0  0
  -11.1147   -2.0071  -17.5734 H   0  0  0  0  0  0  0  0  0  0  0  0
   -7.4585    0.1852  -10.7588 H   0  0  0  0  0  0  0  0  0  0  0  0
   -8.0386    1.8659  -10.7803 H   0  0  0  0  0  0  0  0  0  0  0  0
   -8.5255    0.7505   -9.4854 H   0  0  0  0  0  0  0  0  0  0  0  0
  -11.6015    0.9813  -11.6840 H   0  0  0  0  0  0  0  0  0  0  0  0
  -10.5164    2.3285  -11.3898 H   0  0  0  0  0  0  0  0  0  0  0  0
  -11.0038    1.2830  -10.0374 H   0  0  0  0  0  0  0  0  0  0  0  0
  -10.7498   -1.3862  -11.6828 H   0  0  0  0  0  0  0  0  0  0  0  0
   -9.0448   -1.7370  -11.3263 H   0  0  0  0  0  0  0  0  0  0  0  0
  -10.1541   -1.2064  -10.0417 H   0  0  0  0  0  0  0  0  0  0  0  0
   -7.5675   -3.4031  -19.3110 H   0  0  0  0  0  0  0  0  0  0  0  0
  1 15  1  0  0  0  0
  1 16  2  0  0  0  0
  1 18  1  0  0  0  0
  2  3  1  0  0  0  0
  2  4  1  0  0  0  0
  3  9  1  0  0  0  0
  4 15  1  0  0  0  0
  5  8  1  0  0  0  0
  5 14  1  0  0  0  0
  6  9  1  0  0  0  0
  6 14  1  0  0  0  0
  7  9  1  0  0  0  0
  7 15  1  0  0  0  0
  8 17  1  0  0  0  0
  9 17  1  0  0  0  0
 10 13  1  0  0  0  0
 11 13  1  0  0  0  0
 12 13  1  0  0  0  0
 13 18  1  0  0  0  0
  2 19  1  0  0  0  0
  2 20  1  0  0  0  0
  3 21  1  0  0  0  0
  3 22  1  0  0  0  0
  4 23  1  0  0  0  0
  4 24  1  0  0  0  0
  5 25  1  0  0  0  0
  5 26  1  0  0  0  0
  6 27  1  0  0  0  0
  6 28  1  0  0  0  0
  7 29  1  0  0  0  0
  7 30  1  0  0  0  0
  8 31  1  0  0  0  0
  8 32  1  0  0  0  0
 10 33  1  0  0  0  0
 10 34  1  0  0  0  0
 10 35  1  0  0  0  0
 11 36  1  0  0  0  0
 11 37  1  0  0  0  0
 11 38  1  0  0  0  0
 12 39  1  0  0  0  0
 12 40  1  0  0  0  0
 12 41  1  0  0  0  0
 14 42  1  0  0  0  0
M  END
> <id>
EN300-1229135

> <smiles>
CC(C)(C)OC(=O)N1CCCC2(CNCCO2)C1

> <MDLNUMBER>
MFCD11227062

> <IUPAC Name>
tert-butyl 1-oxa-4,8-diazaspiro[5.5]undecane-8-carboxylate

> <CAS>
1160247-05-1

> <Purity>
95

> <URL>
https://www.enaminestore.com/catalog/EN300-1229135

> <ROCS_ShapeQuery>
amalgated

> <ROCS_TanimotoCombo>
0.822 

> <ROCS_ShapeTanimoto>
0.600 

> <ROCS_ColorTanimoto>
0.222 

> <ROCS_RefTversky>
0.565 

> <ROCS_RefColorTversky>
0.363 

> <ROCS_RefTverskyCombo>
0.928 

> <ROCS_FitTversky>
1.116 

> <ROCS_FitColorTversky>
0.363 

> <ROCS_FitTverskyCombo>
1.479 

> <ROCS_ColorScore>
-2.542

> <ROCS_Overlap>
929.928

> <ROCS_Rank>
381                 

$$$$
untitled-dbase-23263_57
  -OEChem-10092318153D

 51 54  0     1  0  0  0  0  0999 V2000
  -10.3041    0.5170  -11.7240 C   0  0  0  0  0  0  0  0  0  0  0  0
   -9.8929   -0.7146  -11.2155 C   0  0  0  0  0  0  0  0  0  0  0  0
   -9.4484    1.2621  -12.5362 C   0  0  0  0  0  0  0  0  0  0  0  0
   -8.6261   -1.2112  -11.5217 C   0  0  0  0  0  0  0  0  0  0  0  0
   -8.1776    0.7671  -12.8503 C   0  0  0  0  0  0  0  0  0  0  0  0
   -7.7731   -0.4811  -12.3540 C   0  0  0  0  0  0  0  0  0  0  0  0
   -5.8242   -1.9966  -15.8034 C   0  0  0  0  0  0  0  0  0  0  0  0
   -6.7636   -1.9062  -14.8508 C   0  0  0  0  0  0  0  0  0  0  0  0
   -7.2597    1.5651  -13.6989 C   0  0  0  0  0  0  0  0  0  0  0  0
   -7.7966    0.0740  -17.3030 C   0  0  0  0  0  0  0  0  0  0  0  0
   -5.9406   -1.8075  -17.2925 C   0  0  0  0  0  0  0  0  0  0  0  0
   -6.4987   -2.1647  -13.3938 C   0  0  0  0  0  0  0  0  0  0  0  0
   -6.1415    2.5872  -19.2997 C   0  0  0  0  0  0  0  0  0  0  0  0
   -6.6426    3.4957  -18.1860 C   0  0  0  0  0  0  0  0  0  0  0  0
   -5.9365    1.2598  -18.5944 C   0  0  0  0  0  0  0  0  0  0  0  0
   -7.1018    2.9097  -15.7868 C   0  0  0  0  0  0  0  0  0  0  0  0
   -8.4203   -2.4784  -17.7475 C   0  0  0  0  0  0  0  0  0  0  0  0
   -7.4878   -1.5761  -19.3695 C   0  0  0  0  0  0  0  0  0  0  0  0
   -7.4319    2.5648  -17.2465 C   0  0  2  0  0  0  0  0  0  0  0  0
   -7.3187   -1.3506  -17.8227 C   0  0  0  0  0  0  0  0  0  0  0  0
   -7.8438    2.1202  -14.8246 N   0  0  0  0  0  0  0  0  0  0  0  0
   -8.0460   -2.9080  -19.1010 N   0  0  0  0  0  0  0  0  0  0  0  0
   -7.0406    1.2030  -17.6475 N   0  0  0  0  0  0  0  0  0  0  0  0
   -6.0791    1.6665  -13.3811 O   0  0  0  0  0  0  0  0  0  0  0  0
   -8.8341    0.1878  -16.6295 O   0  0  0  0  0  0  0  0  0  0  0  0
   -6.5152   -0.9406  -12.6475 O   0  0  0  0  0  0  0  0  0  0  0  0
  -11.2952    0.8959  -11.4890 H   0  0  0  0  0  0  0  0  0  0  0  0
  -10.5653   -1.2924  -10.5879 H   0  0  0  0  0  0  0  0  0  0  0  0
   -9.7856    2.2264  -12.9004 H   0  0  0  0  0  0  0  0  0  0  0  0
   -8.3354   -2.1737  -11.1163 H   0  0  0  0  0  0  0  0  0  0  0  0
   -4.7822   -2.2700  -15.4498 H   0  0  0  0  0  0  0  0  0  0  0  0
   -7.7730   -1.6134  -15.1166 H   0  0  0  0  0  0  0  0  0  0  0  0
   -5.1334   -1.0907  -17.5914 H   0  0  0  0  0  0  0  0  0  0  0  0
   -5.6481   -2.7551  -17.8162 H   0  0  0  0  0  0  0  0  0  0  0  0
   -7.2902   -2.8371  -13.0016 H   0  0  0  0  0  0  0  0  0  0  0  0
   -5.5252   -2.6906  -13.2696 H   0  0  0  0  0  0  0  0  0  0  0  0
   -6.8589    2.5140  -20.1224 H   0  0  0  0  0  0  0  0  0  0  0  0
   -5.1961    2.9557  -19.7107 H   0  0  0  0  0  0  0  0  0  0  0  0
   -5.8258    4.0283  -17.6865 H   0  0  0  0  0  0  0  0  0  0  0  0
   -7.3235    4.2478  -18.6070 H   0  0  0  0  0  0  0  0  0  0  0  0
   -6.0635    0.4516  -19.3093 H   0  0  0  0  0  0  0  0  0  0  0  0
   -4.9757    1.1860  -18.1019 H   0  0  0  0  0  0  0  0  0  0  0  0
   -6.0258    2.7827  -15.6133 H   0  0  0  0  0  0  0  0  0  0  0  0
   -7.3347    3.9598  -15.5746 H   0  0  0  0  0  0  0  0  0  0  0  0
   -8.2892   -3.2418  -16.9697 H   0  0  0  0  0  0  0  0  0  0  0  0
   -9.4544   -2.1085  -17.6795 H   0  0  0  0  0  0  0  0  0  0  0  0
   -8.2168   -0.9250  -19.8650 H   0  0  0  0  0  0  0  0  0  0  0  0
   -6.5664   -1.5781  -19.9614 H   0  0  0  0  0  0  0  0  0  0  0  0
   -8.4962    2.6990  -17.3979 H   0  0  0  0  0  0  0  0  0  0  0  0
   -8.8282    1.9682  -14.9811 H   0  0  0  0  0  0  0  0  0  0  0  0
   -7.3456   -3.6561  -19.1144 H   0  0  0  0  0  0  0  0  0  0  0  0
  1  2  2  0  0  0  0
  1  3  1  0  0  0  0
  2  4  1  0  0  0  0
  3  5  2  0  0  0  0
  4  6  2  0  0  0  0
  5  6  1  0  0  0  0
  5  9  1  0  0  0  0
  6 26  1  0  0  0  0
  7  8  2  0  0  0  0
  7 11  1  0  0  0  0
  8 12  1  0  0  0  0
  9 21  1  0  0  0  0
  9 24  2  0  0  0  0
 10 20  1  0  0  0  0
 10 23  1  0  0  0  0
 10 25  2  0  0  0  0
 11 20  1  0  0  0  0
 12 26  1  0  0  0  0
 13 14  1  0  0  0  0
 13 15  1  0  0  0  0
 14 19  1  0  0  0  0
 15 23  1  0  0  0  0
 16 19  1  0  0  0  0
 16 21  1  0  0  0  0
 17 20  1  0  0  0  0
 17 22  1  0  0  0  0
 18 20  1  0  0  0  0
 18 22  1  0  0  0  0
 19 23  1  0  0  0  0
  1 27  1  0  0  0  0
  2 28  1  0  0  0  0
  3 29  1  0  0  0  0
  4 30  1  0  0  0  0
  7 31  1  0  0  0  0
  8 32  1  0  0  0  0
 11 33  1  0  0  0  0
 11 34  1  0  0  0  0
 12 35  1  0  0  0  0
 12 36  1  0  0  0  0
 13 37  1  0  0  0  0
 13 38  1  0  0  0  0
 14 39  1  0  0  0  0
 14 40  1  0  0  0  0
 15 41  1  0  0  0  0
 15 42  1  0  0  0  0
 16 43  1  0  0  0  0
 16 44  1  0  0  0  0
 17 45  1  0  0  0  0
 17 46  1  0  0  0  0
 18 47  1  0  0  0  0
 18 48  1  0  0  0  0
 19 49  1  0  0  0  0
 21 50  1  0  0  0  0
 22 51  1  0  0  0  0
M  END
> <id>
EN300-6477912

> <smiles>
OC(=O)C(F)(F)F.O=C1NCC2CCCN2C(=O)C3(CNC3)C/C=C/COC=4C=CC=CC14

> <MDLNUMBER>
MFCD31667274

> <IUPAC Name>
(13'E)-16'-oxa-3',9'-diazaspiro[azetidine-3,11'-tricyclo[15.4.0.0,5,9]henicosane]-1'(17'),13',18',20'-tetraene-2',10'-dione; trifluoroacetic acid

> <URL>
https://www.enaminestore.com/catalog/EN300-6477912

> <Saltdate>
OC(=O)C(F)(F)F

> <ROCS_ShapeQuery>
amalgated

> <ROCS_TanimotoCombo>
0.822 

> <ROCS_ShapeTanimoto>
0.504 

> <ROCS_ColorTanimoto>
0.318 

> <ROCS_RefTversky>
0.576 

> <ROCS_RefColorTversky>
0.543 

> <ROCS_RefTverskyCombo>
1.119 

> <ROCS_FitTversky>
0.802 

> <ROCS_FitColorTversky>
0.433 

> <ROCS_FitTverskyCombo>
1.235 

> <ROCS_ColorScore>
-3.858

> <ROCS_Overlap>
958.427

> <ROCS_Rank>
382                 

$$$$
untitled-dbase-34838_17
  -OEChem-10092318153D

 38 39  0     1  0  0  0  0  0999 V2000
   -8.3996   -0.3890  -14.6581 C   0  0  0  0  0  0  0  0  0  0  0  0
  -10.3340   -2.0394  -17.1898 C   0  0  0  0  0  0  0  0  0  0  0  0
   -9.9622   -0.7166  -17.8913 C   0  0  0  0  0  0  0  0  0  0  0  0
   -8.0246   -3.0091  -16.6542 C   0  0  0  0  0  0  0  0  0  0  0  0
   -7.4028   -0.7924  -17.8263 C   0  0  0  0  0  0  0  0  0  0  0  0
   -9.2513   -2.2380  -16.1245 C   0  0  1  0  0  0  0  0  0  0  0  0
   -8.6904   -0.2378  -17.1826 C   0  0  2  0  0  0  0  0  0  0  0  0
   -7.3416   -2.3419  -17.8772 C   0  0  0  0  0  0  0  0  0  0  0  0
  -10.0788    0.9731  -12.7891 C   0  0  0  0  0  0  0  0  0  0  0  0
   -9.9299   -1.1213  -11.4105 C   0  0  0  0  0  0  0  0  0  0  0  0
   -7.8518    0.1984  -11.9088 C   0  0  0  0  0  0  0  0  0  0  0  0
   -9.2186   -0.2387  -12.4339 C   0  0  0  0  0  0  0  0  0  0  0  0
   -8.8113   -0.8772  -15.8825 N   0  0  0  0  0  0  0  0  0  0  0  0
   -7.9428   -2.8316  -19.1216 N   0  0  0  0  0  0  0  0  0  0  0  0
   -7.5727    0.5087  -14.5153 O   0  0  0  0  0  0  0  0  0  0  0  0
   -9.0234   -1.0214  -13.6169 O   0  0  0  0  0  0  0  0  0  0  0  0
  -11.3145   -1.9251  -16.7119 H   0  0  0  0  0  0  0  0  0  0  0  0
  -10.4091   -2.8760  -17.8905 H   0  0  0  0  0  0  0  0  0  0  0  0
   -9.8348   -0.8385  -18.9709 H   0  0  0  0  0  0  0  0  0  0  0  0
  -10.7722    0.0069  -17.7381 H   0  0  0  0  0  0  0  0  0  0  0  0
   -7.2835   -3.0723  -15.8454 H   0  0  0  0  0  0  0  0  0  0  0  0
   -8.3044   -4.0455  -16.8820 H   0  0  0  0  0  0  0  0  0  0  0  0
   -7.2713   -0.3646  -18.8283 H   0  0  0  0  0  0  0  0  0  0  0  0
   -6.5453   -0.4389  -17.2372 H   0  0  0  0  0  0  0  0  0  0  0  0
   -9.6368   -2.7079  -15.2142 H   0  0  0  0  0  0  0  0  0  0  0  0
   -8.6431    0.8523  -17.1054 H   0  0  0  0  0  0  0  0  0  0  0  0
   -6.2889   -2.6488  -17.8991 H   0  0  0  0  0  0  0  0  0  0  0  0
   -9.5717    1.6092  -13.5235 H   0  0  0  0  0  0  0  0  0  0  0  0
  -11.0485    0.6731  -13.1996 H   0  0  0  0  0  0  0  0  0  0  0  0
  -10.2552    1.5995  -11.9072 H   0  0  0  0  0  0  0  0  0  0  0  0
   -9.3162   -1.9920  -11.1527 H   0  0  0  0  0  0  0  0  0  0  0  0
  -10.8677   -1.5146  -11.8191 H   0  0  0  0  0  0  0  0  0  0  0  0
  -10.1558   -0.5719  -10.4909 H   0  0  0  0  0  0  0  0  0  0  0  0
   -7.2346   -0.6707  -11.6540 H   0  0  0  0  0  0  0  0  0  0  0  0
   -7.3113    0.8023  -12.6449 H   0  0  0  0  0  0  0  0  0  0  0  0
   -7.9571    0.7836  -10.9881 H   0  0  0  0  0  0  0  0  0  0  0  0
   -7.4565   -2.4175  -19.8790 H   0  0  0  0  0  0  0  0  0  0  0  0
   -7.8500   -3.8179  -19.1371 H   0  0  0  0  0  0  0  0  0  0  0  0
  1 13  1  0  0  0  0
  1 15  2  0  0  0  0
  1 16  1  0  0  0  0
  2  3  1  0  0  0  0
  2  6  1  1  0  0  0
  3  7  1  1  0  0  0
  4  6  1  0  0  0  0
  4  8  1  0  0  0  0
  5  7  1  0  0  0  0
  5  8  1  0  0  0  0
  6 13  1  0  0  0  0
  7 13  1  0  0  0  0
  8 14  1  1  0  0  0
  9 12  1  0  0  0  0
 10 12  1  0  0  0  0
 11 12  1  0  0  0  0
 12 16  1  0  0  0  0
  2 17  1  0  0  0  0
  2 18  1  0  0  0  0
  3 19  1  0  0  0  0
  3 20  1  0  0  0  0
  4 21  1  0  0  0  0
  4 22  1  0  0  0  0
  5 23  1  0  0  0  0
  5 24  1  0  0  0  0
  6 25  1  0  0  0  0
  7 26  1  0  0  0  0
  8 27  1  0  0  0  0
  9 28  1  0  0  0  0
  9 29  1  0  0  0  0
  9 30  1  0  0  0  0
 10 31  1  0  0  0  0
 10 32  1  0  0  0  0
 10 33  1  0  0  0  0
 11 34  1  0  0  0  0
 11 35  1  0  0  0  0
 11 36  1  0  0  0  0
 14 37  1  0  0  0  0
 14 38  1  0  0  0  0
M  END
> <id>
EN300-268846

> <smiles>
CC(C)(C)OC(=O)N1[C@H]2CC[C@@H]1C[C@H](N)C2

> <MDLNUMBER>
MFCD18428077

> <IUPAC Name>
tert-butyl (1R,3R,5S)-3-amino-8-azabicyclo[3.2.1]octane-8-carboxylate

> <CAS>
207405-68-3

> <Purity>
95

> <URL>
https://www.enaminestore.com/catalog/EN300-268846

> <ROCS_ShapeQuery>
amalgated

> <ROCS_TanimotoCombo>
0.822 

> <ROCS_ShapeTanimoto>
0.491 

> <ROCS_ColorTanimoto>
0.330 

> <ROCS_RefTversky>
0.481 

> <ROCS_RefColorTversky>
0.584 

> <ROCS_RefTverskyCombo>
1.065 

> <ROCS_FitTversky>
1.046 

> <ROCS_FitColorTversky>
0.432 

> <ROCS_FitTverskyCombo>
1.478 

> <ROCS_ColorScore>
-4.172

> <ROCS_Overlap>
789.069

> <ROCS_Rank>
383                 

$$$$
untitled-dbase-13287_40
  -OEChem-10092318153D

 34 34  0     0  0  0  0  0  0999 V2000
   -9.2558   -0.2926  -14.0607 C   0  0  0  0  0  0  0  0  0  0  0  0
   -8.8265   -0.8698  -15.0222 C   0  0  0  0  0  0  0  0  0  0  0  0
   -9.7702    0.4006  -12.9087 C   0  0  0  0  0  0  0  0  0  0  0  0
   -7.9958   -0.5965  -17.3343 C   0  0  0  0  0  0  0  0  0  0  0  0
   -9.2798   -2.6680  -16.6714 C   0  0  0  0  0  0  0  0  0  0  0  0
   -7.4583   -1.3276  -18.5701 C   0  0  0  0  0  0  0  0  0  0  0  0
   -9.3807   -2.7600  -18.1973 C   0  0  0  0  0  0  0  0  0  0  0  0
   -8.3004   -1.5779  -16.2004 C   0  0  0  0  0  0  0  0  0  0  0  0
   -9.7500    1.0666  -10.1453 C   0  0  0  0  0  0  0  0  0  0  0  0
  -10.1396   -1.3822   -9.7442 C   0  0  0  0  0  0  0  0  0  0  0  0
   -8.0384   -0.6215  -10.8907 C   0  0  0  0  0  0  0  0  0  0  0  0
   -9.5271   -0.3459  -10.6839 C   0  0  0  0  0  0  0  0  0  0  0  0
   -8.0692   -2.6366  -18.8280 N   0  0  0  0  0  0  0  0  0  0  0  0
   -9.7943    1.6217  -12.8705 O   0  0  0  0  0  0  0  0  0  0  0  0
  -10.1918   -0.4622  -11.9462 O   0  0  0  0  0  0  0  0  0  0  0  0
   -7.2406    0.1160  -16.9935 H   0  0  0  0  0  0  0  0  0  0  0  0
   -8.8848   -0.0261  -17.6071 H   0  0  0  0  0  0  0  0  0  0  0  0
  -10.2788   -2.4977  -16.2486 H   0  0  0  0  0  0  0  0  0  0  0  0
   -8.9377   -3.6373  -16.2823 H   0  0  0  0  0  0  0  0  0  0  0  0
   -7.5600   -0.6847  -19.4712 H   0  0  0  0  0  0  0  0  0  0  0  0
   -6.3655   -1.4727  -18.4477 H   0  0  0  0  0  0  0  0  0  0  0  0
   -9.8113   -3.7312  -18.4655 H   0  0  0  0  0  0  0  0  0  0  0  0
  -10.0620   -1.9934  -18.5849 H   0  0  0  0  0  0  0  0  0  0  0  0
   -7.3621   -2.0641  -15.8974 H   0  0  0  0  0  0  0  0  0  0  0  0
   -9.3118    1.8134  -10.8170 H   0  0  0  0  0  0  0  0  0  0  0  0
  -10.8153    1.2891  -10.0255 H   0  0  0  0  0  0  0  0  0  0  0  0
   -9.2579    1.1972   -9.1747 H   0  0  0  0  0  0  0  0  0  0  0  0
   -9.9820   -2.3971  -10.1267 H   0  0  0  0  0  0  0  0  0  0  0  0
  -11.2244   -1.2464   -9.6671 H   0  0  0  0  0  0  0  0  0  0  0  0
   -9.7101   -1.3200   -8.7390 H   0  0  0  0  0  0  0  0  0  0  0  0
   -7.8782   -1.6345  -11.2771 H   0  0  0  0  0  0  0  0  0  0  0  0
   -7.5900    0.0904  -11.5913 H   0  0  0  0  0  0  0  0  0  0  0  0
   -7.4957   -0.5636   -9.9403 H   0  0  0  0  0  0  0  0  0  0  0  0
   -8.1655   -2.7673  -19.8362 H   0  0  0  0  0  0  0  0  0  0  0  0
  1  2  3  0  0  0  0
  1  3  1  0  0  0  0
  2  8  1  0  0  0  0
  3 14  2  0  0  0  0
  3 15  1  0  0  0  0
  4  6  1  0  0  0  0
  4  8  1  0  0  0  0
  5  7  1  0  0  0  0
  5  8  1  0  0  0  0
  6 13  1  0  0  0  0
  7 13  1  0  0  0  0
  9 12  1  0  0  0  0
 10 12  1  0  0  0  0
 11 12  1  0  0  0  0
 12 15  1  0  0  0  0
  4 16  1  0  0  0  0
  4 17  1  0  0  0  0
  5 18  1  0  0  0  0
  5 19  1  0  0  0  0
  6 20  1  0  0  0  0
  6 21  1  0  0  0  0
  7 22  1  0  0  0  0
  7 23  1  0  0  0  0
  8 24  1  0  0  0  0
  9 25  1  0  0  0  0
  9 26  1  0  0  0  0
  9 27  1  0  0  0  0
 10 28  1  0  0  0  0
 10 29  1  0  0  0  0
 10 30  1  0  0  0  0
 11 31  1  0  0  0  0
 11 32  1  0  0  0  0
 11 33  1  0  0  0  0
 13 34  1  0  0  0  0
M  END
> <id>
EN300-786767

> <smiles>
CC(C)(C)OC(=O)C#CC1CCNCC1

> <MDLNUMBER>
MFCD31463202

> <IUPAC Name>
tert-butyl 3-(piperidin-4-yl)prop-2-ynoate

> <CAS>
2138201-32-6

> <URL>
https://www.enaminestore.com/catalog/EN300-786767

> <ROCS_ShapeQuery>
amalgated

> <ROCS_TanimotoCombo>
0.821 

> <ROCS_ShapeTanimoto>
0.543 

> <ROCS_ColorTanimoto>
0.278 

> <ROCS_RefTversky>
0.499 

> <ROCS_RefColorTversky>
0.378 

> <ROCS_RefTverskyCombo>
0.877 

> <ROCS_FitTversky>
1.197 

> <ROCS_FitColorTversky>
0.512 

> <ROCS_FitTverskyCombo>
1.709 

> <ROCS_ColorScore>
-2.611

> <ROCS_Overlap>
816.644

> <ROCS_Rank>
384                 

$$$$
untitled-dbase-34739_89
  -OEChem-10092318153D

 40 40  0     1  0  0  0  0  0999 V2000
   -8.3322   -0.0234  -15.4437 C   0  0  0  0  0  0  0  0  0  0  0  0
   -9.3220   -2.8935  -16.5925 C   0  0  0  0  0  0  0  0  0  0  0  0
   -9.8841   -1.4807  -16.7550 C   0  0  0  0  0  0  0  0  0  0  0  0
   -7.1958   -1.5882  -18.2498 C   0  0  0  0  0  0  0  0  0  0  0  0
   -8.7217   -3.5215  -17.8666 C   0  0  1  0  0  0  0  0  0  0  0  0
   -8.0271   -0.3288  -17.9418 C   0  0  2  0  0  0  0  0  0  0  0  0
   -9.8116   -4.2555  -18.6575 C   0  0  0  0  0  0  0  0  0  0  0  0
   -7.1605    0.9321  -18.0177 C   0  0  0  0  0  0  0  0  0  0  0  0
   -8.8061    1.3572  -12.9761 C   0  0  0  0  0  0  0  0  0  0  0  0
   -9.4916   -0.8823  -12.0683 C   0  0  0  0  0  0  0  0  0  0  0  0
   -7.1408   -0.5275  -12.8783 C   0  0  0  0  0  0  0  0  0  0  0  0
   -8.6089   -0.1545  -13.0798 C   0  0  0  0  0  0  0  0  0  0  0  0
   -8.0375   -2.6380  -18.8141 N   0  0  0  0  0  0  0  0  0  0  0  0
   -8.7891   -0.5009  -16.6881 N   0  0  0  0  0  0  0  0  0  0  0  0
   -7.4279    0.7917  -15.2820 O   0  0  0  0  0  0  0  0  0  0  0  0
   -9.0116   -0.5780  -14.3876 O   0  0  0  0  0  0  0  0  0  0  0  0
   -8.5303   -2.8549  -15.8273 H   0  0  0  0  0  0  0  0  0  0  0  0
  -10.1006   -3.5521  -16.1736 H   0  0  0  0  0  0  0  0  0  0  0  0
  -10.3599   -1.4071  -17.7317 H   0  0  0  0  0  0  0  0  0  0  0  0
  -10.6343   -1.2439  -16.0042 H   0  0  0  0  0  0  0  0  0  0  0  0
   -6.4609   -1.3225  -19.0079 H   0  0  0  0  0  0  0  0  0  0  0  0
   -6.6362   -1.9290  -17.3832 H   0  0  0  0  0  0  0  0  0  0  0  0
   -8.0020   -4.3275  -17.5533 H   0  0  0  0  0  0  0  0  0  0  0  0
   -8.7809   -0.2725  -18.7607 H   0  0  0  0  0  0  0  0  0  0  0  0
  -10.5565   -3.5418  -19.0013 H   0  0  0  0  0  0  0  0  0  0  0  0
  -10.2895   -4.9954  -18.0200 H   0  0  0  0  0  0  0  0  0  0  0  0
   -9.3670   -4.7533  -19.5160 H   0  0  0  0  0  0  0  0  0  0  0  0
   -6.4123    0.9079  -17.2293 H   0  0  0  0  0  0  0  0  0  0  0  0
   -7.7864    1.8123  -17.8937 H   0  0  0  0  0  0  0  0  0  0  0  0
   -6.6645    0.9756  -18.9841 H   0  0  0  0  0  0  0  0  0  0  0  0
   -8.1742    1.8832  -13.7006 H   0  0  0  0  0  0  0  0  0  0  0  0
   -9.8486    1.6410  -13.1533 H   0  0  0  0  0  0  0  0  0  0  0  0
   -8.5114    1.7229  -11.9858 H   0  0  0  0  0  0  0  0  0  0  0  0
   -9.3533   -1.9672  -12.1392 H   0  0  0  0  0  0  0  0  0  0  0  0
  -10.5524   -0.6927  -12.2684 H   0  0  0  0  0  0  0  0  0  0  0  0
   -9.2713   -0.5711  -11.0421 H   0  0  0  0  0  0  0  0  0  0  0  0
   -6.9991   -1.6117  -12.9526 H   0  0  0  0  0  0  0  0  0  0  0  0
   -6.4963   -0.0431  -13.6189 H   0  0  0  0  0  0  0  0  0  0  0  0
   -6.7993   -0.2389  -11.8776 H   0  0  0  0  0  0  0  0  0  0  0  0
   -8.7314   -2.2199  -19.4689 H   0  0  0  0  0  0  0  0  0  0  0  0
  1 14  1  0  0  0  0
  1 15  2  0  0  0  0
  1 16  1  0  0  0  0
  2  3  1  0  0  0  0
  2  5  1  0  0  0  0
  3 14  1  0  0  0  0
  4  6  1  0  0  0  0
  4 13  1  0  0  0  0
  5  7  1  0  0  0  0
  5 13  1  0  0  0  0
  6  8  1  0  0  0  0
  6 14  1  0  0  0  0
  9 12  1  0  0  0  0
 10 12  1  0  0  0  0
 11 12  1  0  0  0  0
 12 16  1  0  0  0  0
  2 17  1  0  0  0  0
  2 18  1  0  0  0  0
  3 19  1  0  0  0  0
  3 20  1  0  0  0  0
  4 21  1  0  0  0  0
  4 22  1  0  0  0  0
  5 23  1  0  0  0  0
  6 24  1  0  0  0  0
  7 25  1  0  0  0  0
  7 26  1  0  0  0  0
  7 27  1  0  0  0  0
  8 28  1  0  0  0  0
  8 29  1  0  0  0  0
  8 30  1  0  0  0  0
  9 31  1  0  0  0  0
  9 32  1  0  0  0  0
  9 33  1  0  0  0  0
 10 34  1  0  0  0  0
 10 35  1  0  0  0  0
 10 36  1  0  0  0  0
 11 37  1  0  0  0  0
 11 38  1  0  0  0  0
 11 39  1  0  0  0  0
 13 40  1  0  0  0  0
M  END
> <id>
EN300-1653429

> <smiles>
CC1CCN(C(C)CN1)C(=O)OC(C)(C)C

> <MDLNUMBER>
MFCD32761855

> <IUPAC Name>
tert-butyl 2,5-dimethyl-1,4-diazepane-1-carboxylate

> <CAS>
2172027-63-1

> <URL>
https://www.enaminestore.com/catalog/EN300-1653429

> <ROCS_ShapeQuery>
amalgated

> <ROCS_TanimotoCombo>
0.821 

> <ROCS_ShapeTanimoto>
0.528 

> <ROCS_ColorTanimoto>
0.293 

> <ROCS_RefTversky>
0.499 

> <ROCS_RefColorTversky>
0.394 

> <ROCS_RefTverskyCombo>
0.893 

> <ROCS_FitTversky>
1.125 

> <ROCS_FitColorTversky>
0.534 

> <ROCS_FitTverskyCombo>
1.659 

> <ROCS_ColorScore>
-2.722

> <ROCS_Overlap>
817.440

> <ROCS_Rank>
385                 

$$$$
untitled-dbase-34671_362
  -OEChem-10092318153D

 44 45  0     0  0  0  0  0  0999 V2000
   -8.3164    0.1012  -14.4779 C   0  0  0  0  0  0  0  0  0  0  0  0
  -10.5980   -3.2715  -19.5898 C   0  0  0  0  0  0  0  0  0  0  0  0
   -9.7873   -4.5269  -19.3249 C   0  0  0  0  0  0  0  0  0  0  0  0
  -10.2504   -2.1575  -18.5950 C   0  0  0  0  0  0  0  0  0  0  0  0
   -8.6036   -2.8141  -16.7076 C   0  0  0  0  0  0  0  0  0  0  0  0
   -8.2497   -0.7039  -18.0095 C   0  0  0  0  0  0  0  0  0  0  0  0
   -8.2865   -4.2380  -19.3641 C   0  0  0  0  0  0  0  0  0  0  0  0
   -9.2124   -1.9932  -15.5674 C   0  0  0  0  0  0  0  0  0  0  0  0
   -8.9125    0.0866  -16.8835 C   0  0  0  0  0  0  0  0  0  0  0  0
   -8.7708   -2.1623  -18.1074 C   0  0  0  0  0  0  0  0  0  0  0  0
  -10.6107   -0.0843  -12.7768 C   0  0  0  0  0  0  0  0  0  0  0  0
   -9.0617   -1.1558  -11.1149 C   0  0  0  0  0  0  0  0  0  0  0  0
   -8.6591    1.2103  -11.8550 C   0  0  0  0  0  0  0  0  0  0  0  0
   -9.1702   -0.1674  -12.2740 C   0  0  0  0  0  0  0  0  0  0  0  0
   -7.9321   -2.8430  -19.1066 N   0  0  0  0  0  0  0  0  0  0  0  0
   -8.7642   -0.5997  -15.6029 N   0  0  0  0  0  0  0  0  0  0  0  0
   -7.9378    1.2711  -14.4955 O   0  0  0  0  0  0  0  0  0  0  0  0
   -8.3440   -0.6564  -13.3368 O   0  0  0  0  0  0  0  0  0  0  0  0
  -10.4154   -2.9168  -20.6163 H   0  0  0  0  0  0  0  0  0  0  0  0
  -11.6743   -3.4995  -19.5338 H   0  0  0  0  0  0  0  0  0  0  0  0
  -10.0561   -4.9483  -18.3499 H   0  0  0  0  0  0  0  0  0  0  0  0
  -10.0306   -5.2870  -20.0783 H   0  0  0  0  0  0  0  0  0  0  0  0
  -10.4734   -1.1880  -19.0746 H   0  0  0  0  0  0  0  0  0  0  0  0
  -10.9340   -2.2232  -17.7321 H   0  0  0  0  0  0  0  0  0  0  0  0
   -7.5485   -3.0066  -16.4764 H   0  0  0  0  0  0  0  0  0  0  0  0
   -9.0868   -3.8028  -16.7116 H   0  0  0  0  0  0  0  0  0  0  0  0
   -8.4416   -0.1861  -18.9549 H   0  0  0  0  0  0  0  0  0  0  0  0
   -7.1656   -0.6950  -17.8634 H   0  0  0  0  0  0  0  0  0  0  0  0
   -7.7548   -4.9071  -18.6621 H   0  0  0  0  0  0  0  0  0  0  0  0
   -7.9039   -4.5126  -20.3641 H   0  0  0  0  0  0  0  0  0  0  0  0
  -10.3052   -2.0437  -15.6269 H   0  0  0  0  0  0  0  0  0  0  0  0
   -8.9287   -2.4033  -14.5912 H   0  0  0  0  0  0  0  0  0  0  0  0
   -8.4581    1.0769  -16.7763 H   0  0  0  0  0  0  0  0  0  0  0  0
   -9.9655    0.2451  -17.1296 H   0  0  0  0  0  0  0  0  0  0  0  0
  -10.6928    0.6241  -13.6088 H   0  0  0  0  0  0  0  0  0  0  0  0
  -10.9774   -1.0596  -13.1130 H   0  0  0  0  0  0  0  0  0  0  0  0
  -11.2788    0.2842  -11.9900 H   0  0  0  0  0  0  0  0  0  0  0  0
   -8.0298   -1.2186  -10.7509 H   0  0  0  0  0  0  0  0  0  0  0  0
   -9.3375   -2.1665  -11.4367 H   0  0  0  0  0  0  0  0  0  0  0  0
   -9.7075   -0.8699  -10.2784 H   0  0  0  0  0  0  0  0  0  0  0  0
   -7.6258    1.1510  -11.4943 H   0  0  0  0  0  0  0  0  0  0  0  0
   -8.6949    1.9233  -12.6850 H   0  0  0  0  0  0  0  0  0  0  0  0
   -9.2535    1.6108  -11.0258 H   0  0  0  0  0  0  0  0  0  0  0  0
   -6.9468   -2.7940  -18.8418 H   0  0  0  0  0  0  0  0  0  0  0  0
  1 16  1  0  0  0  0
  1 17  2  0  0  0  0
  1 18  1  0  0  0  0
  2  3  1  0  0  0  0
  2  4  1  0  0  0  0
  3  7  1  0  0  0  0
  4 10  1  0  0  0  0
  5  8  1  0  0  0  0
  5 10  1  0  0  0  0
  6  9  1  0  0  0  0
  6 10  1  0  0  0  0
  7 15  1  0  0  0  0
  8 16  1  0  0  0  0
  9 16  1  0  0  0  0
 10 15  1  0  0  0  0
 11 14  1  0  0  0  0
 12 14  1  0  0  0  0
 13 14  1  0  0  0  0
 14 18  1  0  0  0  0
  2 19  1  0  0  0  0
  2 20  1  0  0  0  0
  3 21  1  0  0  0  0
  3 22  1  0  0  0  0
  4 23  1  0  0  0  0
  4 24  1  0  0  0  0
  5 25  1  0  0  0  0
  5 26  1  0  0  0  0
  6 27  1  0  0  0  0
  6 28  1  0  0  0  0
  7 29  1  0  0  0  0
  7 30  1  0  0  0  0
  8 31  1  0  0  0  0
  8 32  1  0  0  0  0
  9 33  1  0  0  0  0
  9 34  1  0  0  0  0
 11 35  1  0  0  0  0
 11 36  1  0  0  0  0
 11 37  1  0  0  0  0
 12 38  1  0  0  0  0
 12 39  1  0  0  0  0
 12 40  1  0  0  0  0
 13 41  1  0  0  0  0
 13 42  1  0  0  0  0
 13 43  1  0  0  0  0
 15 44  1  0  0  0  0
M  END
> <id>
EN300-1461627

> <smiles>
CC(C)(C)OC(=O)N1CCC2(CCCCN2)CC1

> <MDLNUMBER>
MFCD09998745

> <IUPAC Name>
tert-butyl 1,9-diazaspiro[5.5]undecane-9-carboxylate

> <CAS>
1031927-14-6

> <Purity>
95

> <URL>
https://www.enaminestore.com/catalog/EN300-1461627

> <ROCS_ShapeQuery>
amalgated

> <ROCS_TanimotoCombo>
0.821 

> <ROCS_ShapeTanimoto>
0.551 

> <ROCS_ColorTanimoto>
0.270 

> <ROCS_RefTversky>
0.533 

> <ROCS_RefColorTversky>
0.398 

> <ROCS_RefTverskyCombo>
0.931 

> <ROCS_FitTversky>
1.064 

> <ROCS_FitColorTversky>
0.457 

> <ROCS_FitTverskyCombo>
1.521 

> <ROCS_ColorScore>
-2.765

> <ROCS_Overlap>
876.993

> <ROCS_Rank>
386                 

$$$$
untitled-dbase-34192_110
  -OEChem-10092318153D

 40 41  0     0  0  0  0  0  0999 V2000
   -8.4769    0.6753  -16.4781 C   0  0  0  0  0  0  0  0  0  0  0  0
   -8.7975   -0.0542  -12.9366 C   0  0  0  0  0  0  0  0  0  0  0  0
   -8.4686    1.2200  -15.0744 C   0  0  0  0  0  0  0  0  0  0  0  0
   -7.3913   -1.5611  -16.6753 C   0  0  0  0  0  0  0  0  0  0  0  0
   -9.7094   -1.1902  -17.6787 C   0  0  0  0  0  0  0  0  0  0  0  0
   -7.0635   -1.8538  -18.1392 C   0  0  0  0  0  0  0  0  0  0  0  0
   -9.4084   -2.5814  -18.2321 C   0  0  0  0  0  0  0  0  0  0  0  0
   -9.3498   -1.0386  -15.1529 C   0  0  0  0  0  0  0  0  0  0  0  0
   -8.7415   -0.8242  -16.5413 C   0  0  0  0  0  0  0  0  0  0  0  0
  -10.0916    0.2641  -10.4076 C   0  0  0  0  0  0  0  0  0  0  0  0
  -10.8733   -2.1029  -10.7169 C   0  0  0  0  0  0  0  0  0  0  0  0
   -8.4160   -1.6077  -10.5600 C   0  0  0  0  0  0  0  0  0  0  0  0
   -9.7736   -1.0922  -11.0354 C   0  0  0  0  0  0  0  0  0  0  0  0
   -8.0664   -2.6834  -18.8069 N   0  0  0  0  0  0  0  0  0  0  0  0
   -8.8240    0.0305  -14.3221 N   0  0  0  0  0  0  0  0  0  0  0  0
   -8.2401    1.3764  -17.4563 O   0  0  0  0  0  0  0  0  0  0  0  0
   -8.0296    0.5825  -12.2187 O   0  0  0  0  0  0  0  0  0  0  0  0
   -9.7295   -0.9367  -12.4582 O   0  0  0  0  0  0  0  0  0  0  0  0
   -7.4775    1.5712  -14.7819 H   0  0  0  0  0  0  0  0  0  0  0  0
   -9.2404    1.9804  -14.9392 H   0  0  0  0  0  0  0  0  0  0  0  0
   -7.4401   -2.5079  -16.1330 H   0  0  0  0  0  0  0  0  0  0  0  0
   -6.5815   -0.9746  -16.2393 H   0  0  0  0  0  0  0  0  0  0  0  0
   -9.6454   -0.4632  -18.4856 H   0  0  0  0  0  0  0  0  0  0  0  0
  -10.7298   -1.1788  -17.2963 H   0  0  0  0  0  0  0  0  0  0  0  0
   -6.9180   -0.9113  -18.6995 H   0  0  0  0  0  0  0  0  0  0  0  0
   -6.0914   -2.3759  -18.1867 H   0  0  0  0  0  0  0  0  0  0  0  0
   -9.4946   -3.3135  -17.4156 H   0  0  0  0  0  0  0  0  0  0  0  0
  -10.1599   -2.8749  -18.9803 H   0  0  0  0  0  0  0  0  0  0  0  0
  -10.4398   -0.9185  -15.1621 H   0  0  0  0  0  0  0  0  0  0  0  0
   -9.1250   -2.0164  -14.7157 H   0  0  0  0  0  0  0  0  0  0  0  0
   -9.3046    0.9923  -10.6340 H   0  0  0  0  0  0  0  0  0  0  0  0
  -11.0465    0.6611  -10.7672 H   0  0  0  0  0  0  0  0  0  0  0  0
  -10.1377    0.1882   -9.3152 H   0  0  0  0  0  0  0  0  0  0  0  0
  -10.6493   -3.0775  -11.1653 H   0  0  0  0  0  0  0  0  0  0  0  0
  -11.8325   -1.7820  -11.1391 H   0  0  0  0  0  0  0  0  0  0  0  0
  -10.9975   -2.2382   -9.6376 H   0  0  0  0  0  0  0  0  0  0  0  0
   -8.1877   -2.5806  -11.0102 H   0  0  0  0  0  0  0  0  0  0  0  0
   -7.6093   -0.9121  -10.8130 H   0  0  0  0  0  0  0  0  0  0  0  0
   -8.4158   -1.7614   -9.4748 H   0  0  0  0  0  0  0  0  0  0  0  0
   -8.1097   -2.4185  -19.8033 H   0  0  0  0  0  0  0  0  0  0  0  0
  1  3  1  0  0  0  0
  1  9  1  0  0  0  0
  1 16  2  0  0  0  0
  2 15  1  0  0  0  0
  2 17  2  0  0  0  0
  2 18  1  0  0  0  0
  3 15  1  0  0  0  0
  4  6  1  0  0  0  0
  4  9  1  0  0  0  0
  5  7  1  0  0  0  0
  5  9  1  0  0  0  0
  6 14  1  0  0  0  0
  7 14  1  0  0  0  0
  8  9  1  0  0  0  0
  8 15  1  0  0  0  0
 10 13  1  0  0  0  0
 11 13  1  0  0  0  0
 12 13  1  0  0  0  0
 13 18  1  0  0  0  0
  3 19  1  0  0  0  0
  3 20  1  0  0  0  0
  4 21  1  0  0  0  0
  4 22  1  0  0  0  0
  5 23  1  0  0  0  0
  5 24  1  0  0  0  0
  6 25  1  0  0  0  0
  6 26  1  0  0  0  0
  7 27  1  0  0  0  0
  7 28  1  0  0  0  0
  8 29  1  0  0  0  0
  8 30  1  0  0  0  0
 10 31  1  0  0  0  0
 10 32  1  0  0  0  0
 10 33  1  0  0  0  0
 11 34  1  0  0  0  0
 11 35  1  0  0  0  0
 11 36  1  0  0  0  0
 12 37  1  0  0  0  0
 12 38  1  0  0  0  0
 12 39  1  0  0  0  0
 14 40  1  0  0  0  0
M  END
> <id>
EN300-387513

> <smiles>
CC(C)(C)OC(=O)N1CC(=O)C2(C1)CCNCC2

> <MDLNUMBER>
MFCD30750924

> <IUPAC Name>
tert-butyl 4-oxo-2,8-diazaspiro[4.5]decane-2-carboxylate

> <CAS>
2138134-25-3

> <URL>
https://www.enaminestore.com/catalog/EN300-387513

> <ROCS_ShapeQuery>
amalgated

> <ROCS_TanimotoCombo>
0.821 

> <ROCS_ShapeTanimoto>
0.589 

> <ROCS_ColorTanimoto>
0.232 

> <ROCS_RefTversky>
0.560 

> <ROCS_RefColorTversky>
0.376 

> <ROCS_RefTverskyCombo>
0.936 

> <ROCS_FitTversky>
1.098 

> <ROCS_FitColorTversky>
0.376 

> <ROCS_FitTverskyCombo>
1.474 

> <ROCS_ColorScore>
-2.633

> <ROCS_Overlap>
921.088

> <ROCS_Rank>
387                 

$$$$
untitled-dbase-46827_0
  -OEChem-10092318153D

 33 35  0     1  0  0  0  0  0999 V2000
   -8.7933   -2.7089  -17.6445 C   0  0  0  0  0  0  0  0  0  0  0  0
   -7.9762   -1.6631  -18.0992 C   0  0  0  0  0  0  0  0  0  0  0  0
   -9.4691   -2.6042  -16.4278 C   0  0  0  0  0  0  0  0  0  0  0  0
   -7.8223   -0.4985  -17.3431 C   0  0  0  0  0  0  0  0  0  0  0  0
   -9.2993   -1.4513  -15.6785 C   0  0  0  0  0  0  0  0  0  0  0  0
   -8.4805   -0.4071  -16.1259 C   0  0  0  0  0  0  0  0  0  0  0  0
   -9.9444   -1.1089  -14.3686 C   0  0  0  0  0  0  0  0  0  0  0  0
   -9.7952    1.0182  -12.9417 C   0  0  0  0  0  0  0  0  0  0  0  0
   -7.8485   -0.5625  -13.0027 C   0  0  0  0  0  0  0  0  0  0  0  0
  -10.1989    0.3928  -11.6065 C   0  0  0  0  0  0  0  0  0  0  0  0
   -8.3049   -1.1080  -11.6456 C   0  0  0  0  0  0  0  0  0  0  0  0
   -8.5308    0.7433  -15.1581 C   0  0  1  0  0  0  0  0  0  0  0  0
   -9.0183    0.0343  -13.8409 C   0  0  0  0  0  0  0  0  0  0  0  0
   -9.0326   -0.1001  -10.8773 N   0  0  0  0  0  0  0  0  0  0  0  0
   -7.2904    1.4939  -15.0284 N   0  0  0  0  0  0  0  0  0  0  0  0
   -8.9060   -3.6044  -18.2494 H   0  0  0  0  0  0  0  0  0  0  0  0
   -7.4645   -1.7580  -19.0532 H   0  0  0  0  0  0  0  0  0  0  0  0
  -10.1108   -3.4080  -16.0832 H   0  0  0  0  0  0  0  0  0  0  0  0
   -7.2025    0.3119  -17.7120 H   0  0  0  0  0  0  0  0  0  0  0  0
  -10.9631   -0.7503  -14.5555 H   0  0  0  0  0  0  0  0  0  0  0  0
   -9.9852   -1.9769  -13.7065 H   0  0  0  0  0  0  0  0  0  0  0  0
  -10.6953    1.3760  -13.4567 H   0  0  0  0  0  0  0  0  0  0  0  0
   -9.1783    1.9056  -12.7471 H   0  0  0  0  0  0  0  0  0  0  0  0
   -7.0987    0.2135  -12.8042 H   0  0  0  0  0  0  0  0  0  0  0  0
   -7.3336   -1.3577  -13.5549 H   0  0  0  0  0  0  0  0  0  0  0  0
  -10.7042    1.1466  -10.9924 H   0  0  0  0  0  0  0  0  0  0  0  0
  -10.9201   -0.4188  -11.7570 H   0  0  0  0  0  0  0  0  0  0  0  0
   -8.9220   -2.0048  -11.7646 H   0  0  0  0  0  0  0  0  0  0  0  0
   -7.4256   -1.4194  -11.0703 H   0  0  0  0  0  0  0  0  0  0  0  0
   -9.3027    1.4277  -15.5064 H   0  0  0  0  0  0  0  0  0  0  0  0
   -8.4077    0.6835  -10.6860 H   0  0  0  0  0  0  0  0  0  0  0  0
   -7.0531    1.8676  -15.9185 H   0  0  0  0  0  0  0  0  0  0  0  0
   -7.4325    2.2262  -14.3713 H   0  0  0  0  0  0  0  0  0  0  0  0
  1  2  2  0  0  0  0
  1  3  1  0  0  0  0
  2  4  1  0  0  0  0
  3  5  2  0  0  0  0
  4  6  2  0  0  0  0
  5  6  1  0  0  0  0
  5  7  1  0  0  0  0
  6 12  1  0  0  0  0
  7 13  1  0  0  0  0
  8 10  1  0  0  0  0
  8 13  1  0  0  0  0
  9 11  1  0  0  0  0
  9 13  1  0  0  0  0
 10 14  1  0  0  0  0
 11 14  1  0  0  0  0
 12 13  1  0  0  0  0
 12 15  1  0  0  0  0
  1 16  1  0  0  0  0
  2 17  1  0  0  0  0
  3 18  1  0  0  0  0
  4 19  1  0  0  0  0
  7 20  1  0  0  0  0
  7 21  1  0  0  0  0
  8 22  1  0  0  0  0
  8 23  1  0  0  0  0
  9 24  1  0  0  0  0
  9 25  1  0  0  0  0
 10 26  1  0  0  0  0
 10 27  1  0  0  0  0
 11 28  1  0  0  0  0
 11 29  1  0  0  0  0
 12 30  1  0  0  0  0
 14 31  1  0  0  0  0
 15 32  1  0  0  0  0
 15 33  1  0  0  0  0
M  END
> <id>
EN300-27702166

> <smiles>
NC1C=2C=CC=CC2CC31CCNCC3

> <MDLNUMBER>
MFCD32690868

> <IUPAC Name>
1,3-dihydrospiro[indene-2,4'-piperidine]-3-amine

> <CAS>
2377354-77-1

> <URL>
https://www.enaminestore.com/catalog/EN300-27702166

> <ROCS_ShapeQuery>
amalgated

> <ROCS_TanimotoCombo>
0.821 

> <ROCS_ShapeTanimoto>
0.528 

> <ROCS_ColorTanimoto>
0.293 

> <ROCS_RefTversky>
0.497 

> <ROCS_RefColorTversky>
0.454 

> <ROCS_RefTverskyCombo>
0.951 

> <ROCS_FitTversky>
1.131 

> <ROCS_FitColorTversky>
0.453 

> <ROCS_FitTverskyCombo>
1.584 

> <ROCS_ColorScore>
-3.179

> <ROCS_Overlap>
814.870

> <ROCS_Rank>
388                 

$$$$
untitled-dbase-14881_0
  -OEChem-10092318153D

 34 36  0     1  0  0  0  0  0999 V2000
   -7.7575    0.3416  -19.1223 C   0  0  0  0  0  0  0  0  0  0  0  0
   -7.0876    1.5239  -18.8226 C   0  0  0  0  0  0  0  0  0  0  0  0
   -7.2582    1.0007  -16.4764 C   0  0  0  0  0  0  0  0  0  0  0  0
   -8.1856   -0.5322  -18.1023 C   0  0  0  0  0  0  0  0  0  0  0  0
   -7.9199   -0.2144  -16.7500 C   0  0  0  0  0  0  0  0  0  0  0  0
   -6.8409    1.8552  -17.4982 C   0  0  0  0  0  0  0  0  0  0  0  0
   -8.0579   -1.0430  -13.1661 C   0  0  0  0  0  0  0  0  0  0  0  0
   -9.0569    0.0399  -13.5209 C   0  0  0  0  0  0  0  0  0  0  0  0
   -9.7142   -2.3941  -17.3581 C   0  0  0  0  0  0  0  0  0  0  0  0
   -7.3408   -1.3209  -14.4820 C   0  0  0  0  0  0  0  0  0  0  0  0
   -9.5975   -0.4102  -14.8724 C   0  0  0  0  0  0  0  0  0  0  0  0
   -8.8485   -2.5034  -16.1094 C   0  0  0  0  0  0  0  0  0  0  0  0
   -8.9084   -1.7992  -18.5165 C   0  0  2  0  0  0  0  0  0  0  0  0
   -8.4071   -1.1079  -15.5998 C   0  0  0  0  0  0  0  0  0  0  0  0
   -7.9578   -2.7929  -19.0304 N   0  0  0  0  0  0  0  0  0  0  0  0
   -6.2101    2.9978  -17.1985 F   0  0  0  0  0  0  0  0  0  0  0  0
   -7.9515    0.0998  -20.1650 H   0  0  0  0  0  0  0  0  0  0  0  0
   -6.7665    2.1865  -19.6204 H   0  0  0  0  0  0  0  0  0  0  0  0
   -7.0651    1.3105  -15.4527 H   0  0  0  0  0  0  0  0  0  0  0  0
   -7.3676   -0.7307  -12.3772 H   0  0  0  0  0  0  0  0  0  0  0  0
   -8.5804   -1.9445  -12.8247 H   0  0  0  0  0  0  0  0  0  0  0  0
   -9.8485    0.1342  -12.7719 H   0  0  0  0  0  0  0  0  0  0  0  0
   -8.5573    1.0108  -13.6085 H   0  0  0  0  0  0  0  0  0  0  0  0
  -10.1060   -3.3825  -17.6289 H   0  0  0  0  0  0  0  0  0  0  0  0
  -10.5892   -1.7641  -17.1527 H   0  0  0  0  0  0  0  0  0  0  0  0
   -6.4858   -0.6434  -14.5758 H   0  0  0  0  0  0  0  0  0  0  0  0
   -6.9192   -2.3325  -14.4795 H   0  0  0  0  0  0  0  0  0  0  0  0
  -10.4190   -1.1162  -14.6960 H   0  0  0  0  0  0  0  0  0  0  0  0
  -10.0219    0.4334  -15.4282 H   0  0  0  0  0  0  0  0  0  0  0  0
   -9.3976   -3.0421  -15.3268 H   0  0  0  0  0  0  0  0  0  0  0  0
   -7.9679   -3.1188  -16.3365 H   0  0  0  0  0  0  0  0  0  0  0  0
   -9.6178   -1.5577  -19.3182 H   0  0  0  0  0  0  0  0  0  0  0  0
   -8.4731   -3.5942  -19.3001 H   0  0  0  0  0  0  0  0  0  0  0  0
   -7.4909   -2.3919  -19.8061 H   0  0  0  0  0  0  0  0  0  0  0  0
  1  2  1  0  0  0  0
  1  4  2  0  0  0  0
  2  6  2  0  0  0  0
  3  5  2  0  0  0  0
  3  6  1  0  0  0  0
  4  5  1  0  0  0  0
  4 13  1  0  0  0  0
  5 14  1  0  0  0  0
  6 16  1  0  0  0  0
  7  8  1  0  0  0  0
  7 10  1  0  0  0  0
  8 11  1  0  0  0  0
  9 12  1  0  0  0  0
  9 13  1  0  0  0  0
 10 14  1  0  0  0  0
 11 14  1  0  0  0  0
 12 14  1  0  0  0  0
 13 15  1  0  0  0  0
  1 17  1  0  0  0  0
  2 18  1  0  0  0  0
  3 19  1  0  0  0  0
  7 20  1  0  0  0  0
  7 21  1  0  0  0  0
  8 22  1  0  0  0  0
  8 23  1  0  0  0  0
  9 24  1  0  0  0  0
  9 25  1  0  0  0  0
 10 26  1  0  0  0  0
 10 27  1  0  0  0  0
 11 28  1  0  0  0  0
 11 29  1  0  0  0  0
 12 30  1  0  0  0  0
 12 31  1  0  0  0  0
 13 32  1  0  0  0  0
 15 33  1  0  0  0  0
 15 34  1  0  0  0  0
M  END
> <id>
EN300-1458067

> <smiles>
NC1CCC2(CCCC2)C=3C=C(F)C=CC13

> <IUPAC Name>
7'-fluoro-3',4'-dihydro-2'H-spiro[cyclopentane-1,1'-naphthalene]-4'-amine

> <CAS>
2168375-72-0

> <URL>
https://www.enaminestore.com/catalog/EN300-1458067

> <ROCS_ShapeQuery>
amalgated

> <ROCS_TanimotoCombo>
0.821 

> <ROCS_ShapeTanimoto>
0.485 

> <ROCS_ColorTanimoto>
0.336 

> <ROCS_RefTversky>
0.478 

> <ROCS_RefColorTversky>
0.437 

> <ROCS_RefTverskyCombo>
0.915 

> <ROCS_FitTversky>
1.031 

> <ROCS_FitColorTversky>
0.591 

> <ROCS_FitTverskyCombo>
1.623 

> <ROCS_ColorScore>
-3.018

> <ROCS_Overlap>
784.487

> <ROCS_Rank>
389                 

$$$$
untitled-dbase-37806_12
  -OEChem-10092318153D

 37 39  0     1  0  0  0  0  0999 V2000
   -7.0722   -0.0468  -18.7720 C   0  0  0  0  0  0  0  0  0  0  0  0
   -6.7587    1.3079  -18.6871 C   0  0  0  0  0  0  0  0  0  0  0  0
   -7.8090    1.4031  -16.5207 C   0  0  0  0  0  0  0  0  0  0  0  0
   -7.7757   -0.6959  -17.7404 C   0  0  0  0  0  0  0  0  0  0  0  0
   -8.1513    0.0400  -16.5857 C   0  0  0  0  0  0  0  0  0  0  0  0
   -7.1260    2.0315  -17.5623 C   0  0  0  0  0  0  0  0  0  0  0  0
   -8.5777   -0.4521  -12.3823 C   0  0  0  0  0  0  0  0  0  0  0  0
   -8.3670   -1.7463  -13.1637 C   0  0  0  0  0  0  0  0  0  0  0  0
   -8.9418    0.7345  -13.2718 C   0  0  0  0  0  0  0  0  0  0  0  0
   -9.4359   -2.5360  -17.2081 C   0  0  0  0  0  0  0  0  0  0  0  0
   -7.8785   -1.4845  -14.5869 C   0  0  0  0  0  0  0  0  0  0  0  0
   -9.7165    0.2900  -14.5118 C   0  0  0  0  0  0  0  0  0  0  0  0
   -9.9490   -1.6048  -16.1061 C   0  0  0  0  0  0  0  0  0  0  0  0
   -8.0569   -2.1870  -17.7824 C   0  0  1  0  0  0  0  0  0  0  0  0
   -8.9000   -0.6736  -15.4410 C   0  0  0  0  0  0  0  0  0  0  0  0
   -7.9558   -2.8253  -19.1001 N   0  0  0  0  0  0  0  0  0  0  0  0
   -6.8178    3.3323  -17.4722 F   0  0  0  0  0  0  0  0  0  0  0  0
   -6.7590   -0.5998  -19.6544 H   0  0  0  0  0  0  0  0  0  0  0  0
   -6.2219    1.7937  -19.4980 H   0  0  0  0  0  0  0  0  0  0  0  0
   -8.0516    2.0021  -15.6495 H   0  0  0  0  0  0  0  0  0  0  0  0
   -9.3648   -0.6019  -11.6285 H   0  0  0  0  0  0  0  0  0  0  0  0
   -7.6588   -0.2151  -11.8235 H   0  0  0  0  0  0  0  0  0  0  0  0
   -7.6323   -2.3679  -12.6374 H   0  0  0  0  0  0  0  0  0  0  0  0
   -9.2978   -2.3244  -13.1785 H   0  0  0  0  0  0  0  0  0  0  0  0
   -9.5228    1.4656  -12.6974 H   0  0  0  0  0  0  0  0  0  0  0  0
   -8.0230    1.2473  -13.5823 H   0  0  0  0  0  0  0  0  0  0  0  0
   -9.4186   -3.5842  -16.8257 H   0  0  0  0  0  0  0  0  0  0  0  0
  -10.1894   -2.5762  -18.0314 H   0  0  0  0  0  0  0  0  0  0  0  0
   -6.9366   -0.9341  -14.5125 H   0  0  0  0  0  0  0  0  0  0  0  0
   -7.6368   -2.4345  -15.0667 H   0  0  0  0  0  0  0  0  0  0  0  0
  -10.6553   -0.1890  -14.2075 H   0  0  0  0  0  0  0  0  0  0  0  0
  -10.0068    1.1982  -15.0500 H   0  0  0  0  0  0  0  0  0  0  0  0
  -10.7787   -0.9919  -16.5294 H   0  0  0  0  0  0  0  0  0  0  0  0
  -10.4664   -2.2349  -15.3497 H   0  0  0  0  0  0  0  0  0  0  0  0
   -7.3296   -2.7057  -17.1209 H   0  0  0  0  0  0  0  0  0  0  0  0
   -7.0258   -2.7130  -19.4207 H   0  0  0  0  0  0  0  0  0  0  0  0
   -8.1816   -3.7831  -18.9903 H   0  0  0  0  0  0  0  0  0  0  0  0
  1  2  1  0  0  0  0
  1  4  2  0  0  0  0
  2  6  2  0  0  0  0
  3  5  2  0  0  0  0
  3  6  1  0  0  0  0
  4  5  1  0  0  0  0
  4 14  1  0  0  0  0
  5 15  1  0  0  0  0
  6 17  1  0  0  0  0
  7  8  1  0  0  0  0
  7  9  1  0  0  0  0
  8 11  1  0  0  0  0
  9 12  1  0  0  0  0
 10 13  1  0  0  0  0
 10 14  1  0  0  0  0
 11 15  1  0  0  0  0
 12 15  1  0  0  0  0
 13 15  1  0  0  0  0
 14 16  1  0  0  0  0
  1 18  1  0  0  0  0
  2 19  1  0  0  0  0
  3 20  1  0  0  0  0
  7 21  1  0  0  0  0
  7 22  1  0  0  0  0
  8 23  1  0  0  0  0
  8 24  1  0  0  0  0
  9 25  1  0  0  0  0
  9 26  1  0  0  0  0
 10 27  1  0  0  0  0
 10 28  1  0  0  0  0
 11 29  1  0  0  0  0
 11 30  1  0  0  0  0
 12 31  1  0  0  0  0
 12 32  1  0  0  0  0
 13 33  1  0  0  0  0
 13 34  1  0  0  0  0
 14 35  1  0  0  0  0
 16 36  1  0  0  0  0
 16 37  1  0  0  0  0
M  END
> <id>
EN300-1458045

> <smiles>
NC1CCC2(CCCCC2)C=3C=C(F)C=CC13

> <IUPAC Name>
7'-fluoro-3',4'-dihydro-2'H-spiro[cyclohexane-1,1'-naphthalene]-4'-amine

> <CAS>
2172463-80-6

> <URL>
https://www.enaminestore.com/catalog/EN300-1458045

> <ROCS_ShapeQuery>
amalgated

> <ROCS_TanimotoCombo>
0.821 

> <ROCS_ShapeTanimoto>
0.508 

> <ROCS_ColorTanimoto>
0.313 

> <ROCS_RefTversky>
0.500 

> <ROCS_RefColorTversky>
0.415 

> <ROCS_RefTverskyCombo>
0.915 

> <ROCS_FitTversky>
1.032 

> <ROCS_FitColorTversky>
0.561 

> <ROCS_FitTverskyCombo>
1.593 

> <ROCS_ColorScore>
-2.861

> <ROCS_Overlap>
821.415

> <ROCS_Rank>
390                 

$$$$
untitled-dbase-27346_160
  -OEChem-10092318153D

 40 41  0     1  0  0  0  0  0999 V2000
   -9.0489    0.2153  -12.5457 C   0  0  0  0  0  0  0  0  0  0  0  0
   -8.4875   -2.5989  -16.6224 C   0  0  0  0  0  0  0  0  0  0  0  0
   -8.2957    1.2038  -14.7482 C   0  0  0  0  0  0  0  0  0  0  0  0
   -8.7523    1.0042  -16.2007 C   0  0  0  0  0  0  0  0  0  0  0  0
   -8.3822   -1.2724  -14.4170 C   0  0  0  0  0  0  0  0  0  0  0  0
   -8.6550   -0.6329  -18.0505 C   0  0  0  0  0  0  0  0  0  0  0  0
   -8.9188   -1.3751  -15.8342 C   0  0  1  0  0  0  0  0  0  0  0  0
   -8.8118   -2.1634  -18.0545 C   0  0  1  0  0  0  0  0  0  0  0  0
  -11.0277   -1.4298  -12.0331 C   0  0  0  0  0  0  0  0  0  0  0  0
   -9.3780   -3.0208  -11.0053 C   0  0  0  0  0  0  0  0  0  0  0  0
  -10.0411   -0.9364   -9.7709 C   0  0  0  0  0  0  0  0  0  0  0  0
   -9.7912   -1.5572  -11.1446 C   0  0  0  0  0  0  0  0  0  0  0  0
   -8.6470    0.0679  -13.8776 N   0  0  0  0  0  0  0  0  0  0  0  0
   -8.3425   -0.3133  -16.6597 N   0  0  2  0  0  0  0  0  0  0  0  0
   -7.9832   -2.8272  -19.0465 N   0  0  0  0  0  0  0  0  0  0  0  0
   -9.6472    1.1962  -12.1075 O   0  0  0  0  0  0  0  0  0  0  0  0
   -8.7072   -0.8604  -11.7695 O   0  0  0  0  0  0  0  0  0  0  0  0
   -7.4175   -2.7867  -16.5129 H   0  0  0  0  0  0  0  0  0  0  0  0
   -9.0347   -3.4971  -16.3405 H   0  0  0  0  0  0  0  0  0  0  0  0
   -7.2115    1.3556  -14.7077 H   0  0  0  0  0  0  0  0  0  0  0  0
   -8.7646    2.0950  -14.3141 H   0  0  0  0  0  0  0  0  0  0  0  0
   -9.8378    1.0911  -16.2470 H   0  0  0  0  0  0  0  0  0  0  0  0
   -8.3242    1.7996  -16.8142 H   0  0  0  0  0  0  0  0  0  0  0  0
   -8.8330   -2.0356  -13.7837 H   0  0  0  0  0  0  0  0  0  0  0  0
   -7.2986   -1.4071  -14.3878 H   0  0  0  0  0  0  0  0  0  0  0  0
   -7.8378   -0.3380  -18.7287 H   0  0  0  0  0  0  0  0  0  0  0  0
   -9.5735   -0.1335  -18.3887 H   0  0  0  0  0  0  0  0  0  0  0  0
   -9.9681   -1.2568  -15.8547 H   0  0  0  0  0  0  0  0  0  0  0  0
   -9.8729   -2.4208  -18.2767 H   0  0  0  0  0  0  0  0  0  0  0  0
  -11.3275   -0.3807  -12.1356 H   0  0  0  0  0  0  0  0  0  0  0  0
  -10.8502   -1.8399  -13.0327 H   0  0  0  0  0  0  0  0  0  0  0  0
  -11.8827   -1.9539  -11.5909 H   0  0  0  0  0  0  0  0  0  0  0  0
   -8.4911   -3.1169  -10.3686 H   0  0  0  0  0  0  0  0  0  0  0  0
   -9.1061   -3.4439  -11.9791 H   0  0  0  0  0  0  0  0  0  0  0  0
  -10.1810   -3.6282  -10.5754 H   0  0  0  0  0  0  0  0  0  0  0  0
   -9.1543   -1.0277   -9.1333 H   0  0  0  0  0  0  0  0  0  0  0  0
  -10.3029    0.1237   -9.8490 H   0  0  0  0  0  0  0  0  0  0  0  0
  -10.8519   -1.4578   -9.2493 H   0  0  0  0  0  0  0  0  0  0  0  0
   -8.1312   -3.8085  -18.9788 H   0  0  0  0  0  0  0  0  0  0  0  0
   -8.2448   -2.4997  -19.9486 H   0  0  0  0  0  0  0  0  0  0  0  0
  1 13  1  0  0  0  0
  1 16  2  0  0  0  0
  1 17  1  0  0  0  0
  2  7  1  1  0  0  0
  2  8  1  0  0  0  0
  3  4  1  0  0  0  0
  3 13  1  0  0  0  0
  4 14  1  0  0  0  0
  5  7  1  0  0  0  0
  5 13  1  0  0  0  0
  6  8  1  0  0  0  0
  6 14  1  0  0  0  0
  7 14  1  0  0  0  0
  8 15  1  1  0  0  0
  9 12  1  0  0  0  0
 10 12  1  0  0  0  0
 11 12  1  0  0  0  0
 12 17  1  0  0  0  0
  2 18  1  0  0  0  0
  2 19  1  0  0  0  0
  3 20  1  0  0  0  0
  3 21  1  0  0  0  0
  4 22  1  0  0  0  0
  4 23  1  0  0  0  0
  5 24  1  0  0  0  0
  5 25  1  0  0  0  0
  6 26  1  0  0  0  0
  6 27  1  0  0  0  0
  7 28  1  0  0  0  0
  8 29  1  0  0  0  0
  9 30  1  0  0  0  0
  9 31  1  0  0  0  0
  9 32  1  0  0  0  0
 10 33  1  0  0  0  0
 10 34  1  0  0  0  0
 10 35  1  0  0  0  0
 11 36  1  0  0  0  0
 11 37  1  0  0  0  0
 11 38  1  0  0  0  0
 15 39  1  0  0  0  0
 15 40  1  0  0  0  0
M  END
> <id>
EN300-88101

> <smiles>
CC(C)(C)OC(=O)N1CCN2C[C@@H](N)C[C@H]2C1

> <MDLNUMBER>
MFCD09971754

> <IUPAC Name>
tert-butyl (7S,8aS)-7-amino-octahydropyrrolo[1,2-a]piperazine-2-carboxylate

> <CAS>
1214629-88-5

> <URL>
https://www.enaminestore.com/catalog/EN300-88101

> <ROCS_ShapeQuery>
amalgated

> <ROCS_TanimotoCombo>
0.821 

> <ROCS_ShapeTanimoto>
0.556 

> <ROCS_ColorTanimoto>
0.265 

> <ROCS_RefTversky>
0.530 

> <ROCS_RefColorTversky>
0.419 

> <ROCS_RefTverskyCombo>
0.949 

> <ROCS_FitTversky>
1.098 

> <ROCS_FitColorTversky>
0.418 

> <ROCS_FitTverskyCombo>
1.516 

> <ROCS_ColorScore>
-2.933

> <ROCS_Overlap>
870.412

> <ROCS_Rank>
391                 

$$$$
untitled-dbase-49983_78
  -OEChem-10092318153D

 63 66  0     1  0  0  0  0  0999 V2000
   -6.0700    3.3048  -17.9416 C   0  0  0  0  0  0  0  0  0  0  0  0
   -7.4500    3.0858  -18.0324 C   0  0  0  0  0  0  0  0  0  0  0  0
   -5.6401    1.1619  -18.9512 C   0  0  0  0  0  0  0  0  0  0  0  0
   -7.0200    0.9412  -19.0281 C   0  0  0  0  0  0  0  0  0  0  0  0
   -5.1678    2.3496  -18.4041 C   0  0  0  0  0  0  0  0  0  0  0  0
   -7.9479    1.9042  -18.5883 C   0  0  0  0  0  0  0  0  0  0  0  0
  -10.5026    2.6449  -15.7104 C   0  0  0  0  0  0  0  0  0  0  0  0
  -10.7180    1.9883  -16.8598 C   0  0  0  0  0  0  0  0  0  0  0  0
   -7.4604   -0.3509  -19.5860 C   0  0  0  0  0  0  0  0  0  0  0  0
   -8.6432    0.1791  -14.7039 C   0  0  0  0  0  0  0  0  0  0  0  0
  -10.9559    2.1530  -14.3604 C   0  0  0  0  0  0  0  0  0  0  0  0
  -10.2783    2.4642  -18.2132 C   0  0  0  0  0  0  0  0  0  0  0  0
   -9.8033    1.9472  -13.3550 C   0  0  0  0  0  0  0  0  0  0  0  0
   -9.6017   -2.8471  -18.5891 C   0  0  0  0  0  0  0  0  0  0  0  0
   -9.6491   -2.6115  -17.0715 C   0  0  0  0  0  0  0  0  0  0  0  0
  -10.1683   -0.5193  -12.6935 C   0  0  0  0  0  0  0  0  0  0  0  0
   -7.9355    0.5316  -12.3550 C   0  0  0  0  0  0  0  0  0  0  0  0
   -8.1913   -2.6802  -19.1608 C   0  0  0  0  0  0  0  0  0  0  0  0
  -10.4692   -0.2832  -11.2112 C   0  0  0  0  0  0  0  0  0  0  0  0
   -8.2911    0.7166  -10.8781 C   0  0  0  0  0  0  0  0  0  0  0  0
   -7.5156   -1.3126  -17.2339 C   0  0  0  0  0  0  0  0  0  0  0  0
   -8.9478   -1.2958  -16.6922 C   0  0  2  0  0  0  0  0  0  0  0  0
   -9.1762    0.5099  -13.2898 C   0  0  0  0  0  0  0  0  0  0  0  0
   -3.7014    2.6028  -18.3166 C   0  0  0  0  0  0  0  0  0  0  0  0
   -9.0514   -1.0214  -15.2649 N   0  0  0  0  0  0  0  0  0  0  0  0
   -9.2424   -0.2912  -10.4173 N   0  0  0  0  0  0  0  0  0  0  0  0
   -7.6096   -1.4226  -18.6966 N   0  0  0  0  0  0  0  0  0  0  0  0
   -7.6642   -0.3865  -20.7976 O   0  0  0  0  0  0  0  0  0  0  0  0
   -7.9050    0.9835  -15.2800 O   0  0  0  0  0  0  0  0  0  0  0  0
   -9.2728    1.5962  -18.7460 O   0  0  0  0  0  0  0  0  0  0  0  0
   -3.3868    3.8109  -17.7617 F   0  0  0  0  0  0  0  0  0  0  0  0
   -3.0306    1.6805  -17.5645 F   0  0  0  0  0  0  0  0  0  0  0  0
   -3.0920    2.5917  -19.5380 F   0  0  0  0  0  0  0  0  0  0  0  0
   -5.7094    4.2330  -17.5023 H   0  0  0  0  0  0  0  0  0  0  0  0
   -8.1030    3.8613  -17.6443 H   0  0  0  0  0  0  0  0  0  0  0  0
   -4.9406    0.4162  -19.3151 H   0  0  0  0  0  0  0  0  0  0  0  0
   -9.9893    3.5978  -15.7165 H   0  0  0  0  0  0  0  0  0  0  0  0
  -11.2340    1.0512  -16.8397 H   0  0  0  0  0  0  0  0  0  0  0  0
  -11.6162    2.9243  -13.9496 H   0  0  0  0  0  0  0  0  0  0  0  0
  -11.5577    1.2463  -14.4478 H   0  0  0  0  0  0  0  0  0  0  0  0
  -11.1253    2.3594  -18.8767 H   0  0  0  0  0  0  0  0  0  0  0  0
   -9.9845    3.4972  -18.2111 H   0  0  0  0  0  0  0  0  0  0  0  0
   -9.0235    2.6866  -13.5524 H   0  0  0  0  0  0  0  0  0  0  0  0
  -10.1997    2.1863  -12.3636 H   0  0  0  0  0  0  0  0  0  0  0  0
   -9.9765   -3.8516  -18.8155 H   0  0  0  0  0  0  0  0  0  0  0  0
  -10.2758   -2.1360  -19.0836 H   0  0  0  0  0  0  0  0  0  0  0  0
  -10.6978   -2.5963  -16.7417 H   0  0  0  0  0  0  0  0  0  0  0  0
   -9.1650   -3.4559  -16.5576 H   0  0  0  0  0  0  0  0  0  0  0  0
   -9.7899   -1.5418  -12.8087 H   0  0  0  0  0  0  0  0  0  0  0  0
  -11.1154   -0.4742  -13.2480 H   0  0  0  0  0  0  0  0  0  0  0  0
   -7.2684    1.3553  -12.6558 H   0  0  0  0  0  0  0  0  0  0  0  0
   -7.3350   -0.3820  -12.4589 H   0  0  0  0  0  0  0  0  0  0  0  0
   -7.5465   -3.4868  -18.8090 H   0  0  0  0  0  0  0  0  0  0  0  0
   -8.2250   -2.7217  -20.2481 H   0  0  0  0  0  0  0  0  0  0  0  0
  -10.9570    0.6870  -11.0936 H   0  0  0  0  0  0  0  0  0  0  0  0
  -11.1642   -1.0308  -10.8245 H   0  0  0  0  0  0  0  0  0  0  0  0
   -7.3863    0.6999  -10.2524 H   0  0  0  0  0  0  0  0  0  0  0  0
   -8.7380    1.7109  -10.7369 H   0  0  0  0  0  0  0  0  0  0  0  0
   -6.9668   -0.4282  -16.9322 H   0  0  0  0  0  0  0  0  0  0  0  0
   -6.9672   -2.1847  -16.8737 H   0  0  0  0  0  0  0  0  0  0  0  0
   -9.5062   -0.4859  -17.2079 H   0  0  0  0  0  0  0  0  0  0  0  0
   -9.3981   -1.7725  -14.6684 H   0  0  0  0  0  0  0  0  0  0  0  0
   -9.4790   -0.1028   -9.4406 H   0  0  0  0  0  0  0  0  0  0  0  0
  1  2  1  0  0  0  0
  1  5  2  0  0  0  0
  2  6  2  0  0  0  0
  3  4  2  0  0  0  0
  3  5  1  0  0  0  0
  4  6  1  0  0  0  0
  4  9  1  0  0  0  0
  5 24  1  0  0  0  0
  6 30  1  0  0  0  0
  7  8  2  3  0  0  0
  7 11  1  0  0  0  0
  8 12  1  0  0  0  0
  9 27  1  0  0  0  0
  9 28  2  0  0  0  0
 10 23  1  0  0  0  0
 10 25  1  0  0  0  0
 10 29  2  0  0  0  0
 11 13  1  0  0  0  0
 12 30  1  0  0  0  0
 13 23  1  0  0  0  0
 14 15  1  0  0  0  0
 14 18  1  0  0  0  0
 15 22  1  6  0  0  0
 16 19  1  0  0  0  0
 16 23  1  0  0  0  0
 17 20  1  0  0  0  0
 17 23  1  0  0  0  0
 18 27  1  0  0  0  0
 19 26  1  0  0  0  0
 20 26  1  0  0  0  0
 21 22  1  0  0  0  0
 21 27  1  0  0  0  0
 22 25  1  0  0  0  0
 24 31  1  0  0  0  0
 24 32  1  0  0  0  0
 24 33  1  0  0  0  0
  1 34  1  0  0  0  0
  2 35  1  0  0  0  0
  3 36  1  0  0  0  0
  7 37  1  0  0  0  0
  8 38  1  0  0  0  0
 11 39  1  0  0  0  0
 11 40  1  0  0  0  0
 12 41  1  0  0  0  0
 12 42  1  0  0  0  0
 13 43  1  0  0  0  0
 13 44  1  0  0  0  0
 14 45  1  0  0  0  0
 14 46  1  0  0  0  0
 15 47  1  0  0  0  0
 15 48  1  0  0  0  0
 16 49  1  0  0  0  0
 16 50  1  0  0  0  0
 17 51  1  0  0  0  0
 17 52  1  0  0  0  0
 18 53  1  0  0  0  0
 18 54  1  0  0  0  0
 19 55  1  0  0  0  0
 19 56  1  0  0  0  0
 20 57  1  0  0  0  0
 20 58  1  0  0  0  0
 21 59  1  0  0  0  0
 21 60  1  0  0  0  0
 22 61  1  0  0  0  0
 25 62  1  0  0  0  0
 26 63  1  0  0  0  0
M  END
> <id>
EN300-26694471

> <smiles>
OC(=O)C(F)(F)F.FC(F)(F)C=1C=CC=2OCC=CCCC3(CCNCC3)C(=O)N[C@@H]4CCCN(C4)C(=O)C2C1

> <IUPAC Name>
(18'R)-5'-(trifluoromethyl)-9'-oxa-1',17'-diazaspiro[piperidine-4,15'-tricyclo[16.3.1.0,3,8]docosane]-3'(8'),4',6',11'-tetraene-2',16'-dione; trifluoroacetic acid

> <CAS>
2761356-42-5

> <Purity>
95

> <URL>
https://www.enaminestore.com/catalog/EN300-26694471

> <Saltdate>
OC(=O)C(F)(F)F

> <ROCS_ShapeQuery>
amalgated

> <ROCS_TanimotoCombo>
0.821 

> <ROCS_ShapeTanimoto>
0.551 

> <ROCS_ColorTanimoto>
0.270 

> <ROCS_RefTversky>
0.671 

> <ROCS_RefColorTversky>
0.478 

> <ROCS_RefTverskyCombo>
1.149 

> <ROCS_FitTversky>
0.755 

> <ROCS_FitColorTversky>
0.382 

> <ROCS_FitTverskyCombo>
1.137 

> <ROCS_ColorScore>
-3.397

> <ROCS_Overlap>
1127.065

> <ROCS_Rank>
392                 

$$$$
untitled-dbase-14440_1
  -OEChem-10092318153D

 33 36  0     1  0  0  0  0  0999 V2000
  -10.0178   -1.6479  -14.7206 C   0  0  0  0  0  0  0  0  0  0  0  0
   -7.8944    0.1871  -15.1311 C   0  0  0  0  0  0  0  0  0  0  0  0
   -9.5597   -1.3511  -15.9895 C   0  0  0  0  0  0  0  0  0  0  0  0
   -8.5162   -0.4415  -16.1924 C   0  0  0  0  0  0  0  0  0  0  0  0
   -9.4214   -1.0020  -13.6257 C   0  0  0  0  0  0  0  0  0  0  0  0
   -8.3342   -0.1044  -13.8298 C   0  0  0  0  0  0  0  0  0  0  0  0
   -9.6380   -0.6789  -18.2016 C   0  0  0  0  0  0  0  0  0  0  0  0
   -9.4487   -0.3963  -11.2554 C   0  0  0  0  0  0  0  0  0  0  0  0
   -7.9813   -0.0148  -11.4100 C   0  0  0  0  0  0  0  0  0  0  0  0
   -9.1004   -3.0949  -17.7092 C   0  0  0  0  0  0  0  0  0  0  0  0
   -7.2484   -1.4794  -18.0700 C   0  0  0  0  0  0  0  0  0  0  0  0
   -9.9957   -1.8977  -17.3265 C   0  0  1  0  0  0  0  0  0  0  0  0
   -8.2267   -0.3545  -17.6705 C   0  0  2  0  0  0  0  0  0  0  0  0
   -9.8717   -1.2690  -12.3337 N   0  0  0  0  0  0  0  0  0  0  0  0
   -7.7203    0.5066  -12.7377 N   0  0  0  0  0  0  0  0  0  0  0  0
   -7.8915   -2.7431  -18.4788 N   0  0  0  0  0  0  0  0  0  0  0  0
  -10.8100   -2.3770  -14.5782 H   0  0  0  0  0  0  0  0  0  0  0  0
   -7.0913    0.8969  -15.3058 H   0  0  0  0  0  0  0  0  0  0  0  0
   -9.6525   -0.9006  -19.2711 H   0  0  0  0  0  0  0  0  0  0  0  0
  -10.3272    0.1529  -18.0140 H   0  0  0  0  0  0  0  0  0  0  0  0
   -9.6070   -0.9027  -10.2955 H   0  0  0  0  0  0  0  0  0  0  0  0
  -10.0709    0.5047  -11.2525 H   0  0  0  0  0  0  0  0  0  0  0  0
   -7.7079    0.7405  -10.6631 H   0  0  0  0  0  0  0  0  0  0  0  0
   -7.3469   -0.8896  -11.2325 H   0  0  0  0  0  0  0  0  0  0  0  0
   -8.7812   -3.6266  -16.7993 H   0  0  0  0  0  0  0  0  0  0  0  0
   -9.6883   -3.8198  -18.2939 H   0  0  0  0  0  0  0  0  0  0  0  0
   -6.6067   -1.1308  -18.8944 H   0  0  0  0  0  0  0  0  0  0  0  0
   -6.5712   -1.6988  -17.2299 H   0  0  0  0  0  0  0  0  0  0  0  0
  -11.0611   -2.1355  -17.3583 H   0  0  0  0  0  0  0  0  0  0  0  0
   -7.8838    0.6362  -17.9763 H   0  0  0  0  0  0  0  0  0  0  0  0
  -10.2400   -2.1870  -12.1176 H   0  0  0  0  0  0  0  0  0  0  0  0
   -7.3601    1.4481  -12.8392 H   0  0  0  0  0  0  0  0  0  0  0  0
   -7.2132   -3.4961  -18.3689 H   0  0  0  0  0  0  0  0  0  0  0  0
  1  3  2  0  0  0  0
  1  5  1  0  0  0  0
  2  4  2  0  0  0  0
  2  6  1  0  0  0  0
  3  4  1  0  0  0  0
  3 12  1  0  0  0  0
  4 13  1  0  0  0  0
  5  6  2  0  0  0  0
  5 14  1  0  0  0  0
  6 15  1  0  0  0  0
  7 12  1  0  0  0  0
  7 13  1  0  0  0  0
  8  9  1  0  0  0  0
  8 14  1  0  0  0  0
  9 15  1  0  0  0  0
 10 12  1  0  0  0  0
 10 16  1  0  0  0  0
 11 13  1  0  0  0  0
 11 16  1  0  0  0  0
  1 17  1  0  0  0  0
  2 18  1  0  0  0  0
  7 19  1  0  0  0  0
  7 20  1  0  0  0  0
  8 21  1  0  0  0  0
  8 22  1  0  0  0  0
  9 23  1  0  0  0  0
  9 24  1  0  0  0  0
 10 25  1  0  0  0  0
 10 26  1  0  0  0  0
 11 27  1  0  0  0  0
 11 28  1  0  0  0  0
 12 29  1  0  0  0  0
 13 30  1  0  0  0  0
 14 31  1  0  0  0  0
 15 32  1  0  0  0  0
 16 33  1  0  0  0  0
M  END
> <id>
EN300-843299

> <smiles>
C1C2CNCC1C=3C=C4NCCNC4=CC23

> <IUPAC Name>
5,8,14-triazatetracyclo[10.3.1.0^{2,11}.0^{4,9}]hexadeca-2,4(9),10-triene

> <CAS>
2137027-05-3

> <URL>
https://www.enaminestore.com/catalog/EN300-843299

> <ROCS_ShapeQuery>
amalgated

> <ROCS_TanimotoCombo>
0.820 

> <ROCS_ShapeTanimoto>
0.517 

> <ROCS_ColorTanimoto>
0.303 

> <ROCS_RefTversky>
0.506 

> <ROCS_RefColorTversky>
0.606 

> <ROCS_RefTverskyCombo>
1.112 

> <ROCS_FitTversky>
1.047 

> <ROCS_FitColorTversky>
0.377 

> <ROCS_FitTverskyCombo>
1.424 

> <ROCS_ColorScore>
-4.393

> <ROCS_Overlap>
830.751

> <ROCS_Rank>
393                 

$$$$
untitled-dbase-35518_1
  -OEChem-10092318153D

 25 27  0     0  0  0  0  0  0999 V2000
   -6.4271    2.0958  -18.6344 C   0  0  0  0  0  0  0  0  0  0  0  0
   -6.0630    0.8475  -17.8117 C   0  0  0  0  0  0  0  0  0  0  0  0
   -7.8307    1.4962  -18.8288 C   0  0  0  0  0  0  0  0  0  0  0  0
   -7.6708   -1.7734  -16.6687 C   0  0  0  0  0  0  0  0  0  0  0  0
   -9.4545   -1.1189  -17.6949 C   0  0  0  0  0  0  0  0  0  0  0  0
   -8.6490   -2.4293  -17.6587 C   0  0  0  0  0  0  0  0  0  0  0  0
   -7.5242    0.7095  -17.6117 C   0  0  0  0  0  0  0  0  0  0  0  0
   -8.2621   -0.4785  -17.0870 C   0  0  0  0  0  0  0  0  0  0  0  0
   -8.2407    0.7873  -16.3167 C   0  0  0  0  0  0  0  0  0  0  0  0
   -7.9755   -2.6240  -18.9460 N   0  0  0  0  0  0  0  0  0  0  0  0
   -7.5472    0.8764  -15.1309 F   0  0  0  0  0  0  0  0  0  0  0  0
   -9.3797    1.5492  -16.1853 F   0  0  0  0  0  0  0  0  0  0  0  0
   -6.4175    3.0283  -18.0568 H   0  0  0  0  0  0  0  0  0  0  0  0
   -5.8463    2.2440  -19.5489 H   0  0  0  0  0  0  0  0  0  0  0  0
   -5.6106    0.0389  -18.3965 H   0  0  0  0  0  0  0  0  0  0  0  0
   -5.4466    1.0405  -16.9301 H   0  0  0  0  0  0  0  0  0  0  0  0
   -8.6509    2.2163  -18.7739 H   0  0  0  0  0  0  0  0  0  0  0  0
   -7.9406    0.8944  -19.7375 H   0  0  0  0  0  0  0  0  0  0  0  0
   -7.8135   -2.0660  -15.6179 H   0  0  0  0  0  0  0  0  0  0  0  0
   -6.5962   -1.8562  -16.9021 H   0  0  0  0  0  0  0  0  0  0  0  0
   -9.7049   -0.7168  -18.6907 H   0  0  0  0  0  0  0  0  0  0  0  0
  -10.3742   -1.1272  -17.0913 H   0  0  0  0  0  0  0  0  0  0  0  0
   -9.1841   -3.3066  -17.2792 H   0  0  0  0  0  0  0  0  0  0  0  0
   -7.3105   -3.3544  -18.8436 H   0  0  0  0  0  0  0  0  0  0  0  0
   -8.6604   -2.8675  -19.6228 H   0  0  0  0  0  0  0  0  0  0  0  0
  1  2  1  0  0  0  0
  1  3  1  0  0  0  0
  2  7  1  0  0  0  0
  3  7  1  0  0  0  0
  4  6  1  0  0  0  0
  4  8  1  0  0  0  0
  5  6  1  0  0  0  0
  5  8  1  0  0  0  0
  6 10  1  0  0  0  0
  7  8  1  0  0  0  0
  7  9  1  0  0  0  0
  8  9  1  0  0  0  0
  9 11  1  0  0  0  0
  9 12  1  0  0  0  0
  1 13  1  0  0  0  0
  1 14  1  0  0  0  0
  2 15  1  0  0  0  0
  2 16  1  0  0  0  0
  3 17  1  0  0  0  0
  3 18  1  0  0  0  0
  4 19  1  0  0  0  0
  4 20  1  0  0  0  0
  5 21  1  0  0  0  0
  5 22  1  0  0  0  0
  6 23  1  0  0  0  0
 10 24  1  0  0  0  0
 10 25  1  0  0  0  0
M  END
> <id>
EN300-7465109

> <smiles>
NC1CC2(C1)C(F)(F)C32CCC3

> <MDLNUMBER>
MFCD32203133

> <IUPAC Name>
9,9-difluorodispiro[3.0.3^{5}.1^{4}]nonan-2-amine

> <CAS>
2378506-71-7

> <URL>
https://www.enaminestore.com/catalog/EN300-7465109

> <ROCS_ShapeQuery>
amalgated

> <ROCS_TanimotoCombo>
0.820 

> <ROCS_ShapeTanimoto>
0.363 

> <ROCS_ColorTanimoto>
0.458 

> <ROCS_RefTversky>
0.363 

> <ROCS_RefColorTversky>
0.504 

> <ROCS_RefTverskyCombo>
0.868 

> <ROCS_FitTversky>
1.000 

> <ROCS_FitColorTversky>
0.832 

> <ROCS_FitTverskyCombo>
1.832 

> <ROCS_ColorScore>
-3.454

> <ROCS_Overlap>
593.154

> <ROCS_Rank>
394                 

$$$$
untitled-dbase-27868_1
  -OEChem-10092318153D

 25 27  0     0  0  0  0  0  0999 V2000
   -6.4271    2.0958  -18.6344 C   0  0  0  0  0  0  0  0  0  0  0  0
   -6.0630    0.8475  -17.8117 C   0  0  0  0  0  0  0  0  0  0  0  0
   -7.8307    1.4962  -18.8288 C   0  0  0  0  0  0  0  0  0  0  0  0
   -7.6708   -1.7734  -16.6687 C   0  0  0  0  0  0  0  0  0  0  0  0
   -9.4545   -1.1189  -17.6949 C   0  0  0  0  0  0  0  0  0  0  0  0
   -8.6490   -2.4293  -17.6587 C   0  0  0  0  0  0  0  0  0  0  0  0
   -7.5242    0.7095  -17.6117 C   0  0  0  0  0  0  0  0  0  0  0  0
   -8.2621   -0.4785  -17.0870 C   0  0  0  0  0  0  0  0  0  0  0  0
   -8.2407    0.7873  -16.3167 C   0  0  0  0  0  0  0  0  0  0  0  0
   -7.9755   -2.6240  -18.9460 N   0  0  0  0  0  0  0  0  0  0  0  0
   -7.5472    0.8764  -15.1309 F   0  0  0  0  0  0  0  0  0  0  0  0
   -9.3797    1.5492  -16.1853 F   0  0  0  0  0  0  0  0  0  0  0  0
   -6.4175    3.0283  -18.0568 H   0  0  0  0  0  0  0  0  0  0  0  0
   -5.8463    2.2440  -19.5489 H   0  0  0  0  0  0  0  0  0  0  0  0
   -5.6106    0.0389  -18.3965 H   0  0  0  0  0  0  0  0  0  0  0  0
   -5.4466    1.0405  -16.9301 H   0  0  0  0  0  0  0  0  0  0  0  0
   -8.6509    2.2163  -18.7739 H   0  0  0  0  0  0  0  0  0  0  0  0
   -7.9406    0.8944  -19.7375 H   0  0  0  0  0  0  0  0  0  0  0  0
   -7.8135   -2.0660  -15.6179 H   0  0  0  0  0  0  0  0  0  0  0  0
   -6.5962   -1.8562  -16.9021 H   0  0  0  0  0  0  0  0  0  0  0  0
   -9.7049   -0.7168  -18.6907 H   0  0  0  0  0  0  0  0  0  0  0  0
  -10.3742   -1.1272  -17.0913 H   0  0  0  0  0  0  0  0  0  0  0  0
   -9.1841   -3.3066  -17.2792 H   0  0  0  0  0  0  0  0  0  0  0  0
   -7.3105   -3.3544  -18.8436 H   0  0  0  0  0  0  0  0  0  0  0  0
   -8.6604   -2.8675  -19.6228 H   0  0  0  0  0  0  0  0  0  0  0  0
  1  2  1  0  0  0  0
  1  3  1  0  0  0  0
  2  7  1  0  0  0  0
  3  7  1  0  0  0  0
  4  6  1  0  0  0  0
  4  8  1  0  0  0  0
  5  6  1  0  0  0  0
  5  8  1  0  0  0  0
  6 10  1  0  0  0  0
  7  8  1  0  0  0  0
  7  9  1  0  0  0  0
  8  9  1  0  0  0  0
  9 11  1  0  0  0  0
  9 12  1  0  0  0  0
  1 13  1  0  0  0  0
  1 14  1  0  0  0  0
  2 15  1  0  0  0  0
  2 16  1  0  0  0  0
  3 17  1  0  0  0  0
  3 18  1  0  0  0  0
  4 19  1  0  0  0  0
  4 20  1  0  0  0  0
  5 21  1  0  0  0  0
  5 22  1  0  0  0  0
  6 23  1  0  0  0  0
 10 24  1  0  0  0  0
 10 25  1  0  0  0  0
M  END
> <id>
EN300-7465108

> <smiles>
Cl.NC1CC2(C1)C(F)(F)C32CCC3

> <MDLNUMBER>
MFCD32203536

> <IUPAC Name>
9,9-difluorodispiro[3.0.3^{5}.1^{4}]nonan-2-amine hydrochloride

> <CAS>
2378507-04-9

> <Purity>
95

> <URL>
https://www.enaminestore.com/catalog/EN300-7465108

> <Saltdate>
Cl

> <ROCS_ShapeQuery>
amalgated

> <ROCS_TanimotoCombo>
0.820 

> <ROCS_ShapeTanimoto>
0.363 

> <ROCS_ColorTanimoto>
0.458 

> <ROCS_RefTversky>
0.363 

> <ROCS_RefColorTversky>
0.504 

> <ROCS_RefTverskyCombo>
0.868 

> <ROCS_FitTversky>
1.000 

> <ROCS_FitColorTversky>
0.832 

> <ROCS_FitTverskyCombo>
1.832 

> <ROCS_ColorScore>
-3.454

> <ROCS_Overlap>
593.154

> <ROCS_Rank>
395                 

$$$$
untitled-dbase-4418_0
  -OEChem-10092318153D

 28 30  0     0  0  0  0  0  0999 V2000
   -6.1455    2.6916  -19.3836 C   0  0  0  0  0  0  0  0  0  0  0  0
   -5.9661    3.2721  -18.1308 C   0  0  0  0  0  0  0  0  0  0  0  0
   -6.8377    1.4827  -19.5194 C   0  0  0  0  0  0  0  0  0  0  0  0
   -6.4716    2.6650  -16.9787 C   0  0  0  0  0  0  0  0  0  0  0  0
   -7.3579    0.8473  -18.3714 C   0  0  0  0  0  0  0  0  0  0  0  0
   -8.0951   -0.3596  -18.1425 C   0  0  0  0  0  0  0  0  0  0  0  0
   -7.1616    1.4566  -17.1304 C   0  0  0  0  0  0  0  0  0  0  0  0
   -8.3220   -0.4414  -16.7808 C   0  0  0  0  0  0  0  0  0  0  0  0
   -8.5580   -1.3519  -19.1542 C   0  0  0  0  0  0  0  0  0  0  0  0
   -9.0330   -1.4928  -16.0057 C   0  0  0  0  0  0  0  0  0  0  0  0
   -8.5224   -2.8939  -16.3457 C   0  0  0  0  0  0  0  0  0  0  0  0
   -8.8387   -3.3628  -17.7725 C   0  0  0  0  0  0  0  0  0  0  0  0
   -7.7571    0.6549  -16.1857 N   0  0  0  0  0  0  0  0  0  0  0  0
   -8.0675   -2.6944  -18.8280 N   0  0  0  0  0  0  0  0  0  0  0  0
   -5.7437    3.1802  -20.2674 H   0  0  0  0  0  0  0  0  0  0  0  0
   -5.4265    4.2118  -18.0463 H   0  0  0  0  0  0  0  0  0  0  0  0
   -6.9676    1.0455  -20.5053 H   0  0  0  0  0  0  0  0  0  0  0  0
   -6.3327    3.1181  -16.0027 H   0  0  0  0  0  0  0  0  0  0  0  0
   -9.6502   -1.3330  -19.2482 H   0  0  0  0  0  0  0  0  0  0  0  0
   -8.1588   -1.0812  -20.1382 H   0  0  0  0  0  0  0  0  0  0  0  0
   -8.8975   -1.3218  -14.9307 H   0  0  0  0  0  0  0  0  0  0  0  0
  -10.1096   -1.4269  -16.2037 H   0  0  0  0  0  0  0  0  0  0  0  0
   -7.4405   -2.9566  -16.1690 H   0  0  0  0  0  0  0  0  0  0  0  0
   -8.9907   -3.6013  -15.6493 H   0  0  0  0  0  0  0  0  0  0  0  0
   -8.5830   -4.4286  -17.8214 H   0  0  0  0  0  0  0  0  0  0  0  0
   -9.9151   -3.3012  -17.9732 H   0  0  0  0  0  0  0  0  0  0  0  0
   -7.7717    0.8483  -15.1938 H   0  0  0  0  0  0  0  0  0  0  0  0
   -8.1412   -3.2645  -19.6719 H   0  0  0  0  0  0  0  0  0  0  0  0
  1  2  2  0  0  0  0
  1  3  1  0  0  0  0
  2  4  1  0  0  0  0
  3  5  2  0  0  0  0
  4  7  2  0  0  0  0
  5  6  1  0  0  0  0
  5  7  1  0  0  0  0
  6  8  2  0  0  0  0
  6  9  1  0  0  0  0
  7 13  1  0  0  0  0
  8 10  1  0  0  0  0
  8 13  1  0  0  0  0
  9 14  1  0  0  0  0
 10 11  1  0  0  0  0
 11 12  1  0  0  0  0
 12 14  1  0  0  0  0
  1 15  1  0  0  0  0
  2 16  1  0  0  0  0
  3 17  1  0  0  0  0
  4 18  1  0  0  0  0
  9 19  1  0  0  0  0
  9 20  1  0  0  0  0
 10 21  1  0  0  0  0
 10 22  1  0  0  0  0
 11 23  1  0  0  0  0
 11 24  1  0  0  0  0
 12 25  1  0  0  0  0
 12 26  1  0  0  0  0
 13 27  1  0  0  0  0
 14 28  1  0  0  0  0
M  END
> <id>
EN300-188335

> <smiles>
Cl.C1CNCC2=C(C1)NC=3C=CC=CC23

> <MDLNUMBER>
MFCD28125030

> <IUPAC Name>
1H,2H,3H,4H,5H,6H-azepino[4,3-b]indole hydrochloride

> <CAS>
1803607-15-9

> <URL>
https://www.enaminestore.com/catalog/EN300-188335

> <Saltdate>
Cl

> <ROCS_ShapeQuery>
amalgated

> <ROCS_TanimotoCombo>
0.820 

> <ROCS_ShapeTanimoto>
0.416 

> <ROCS_ColorTanimoto>
0.404 

> <ROCS_RefTversky>
0.418 

> <ROCS_RefColorTversky>
0.539 

> <ROCS_RefTverskyCombo>
0.957 

> <ROCS_FitTversky>
0.988 

> <ROCS_FitColorTversky>
0.617 

> <ROCS_FitTverskyCombo>
1.606 

> <ROCS_ColorScore>
-3.750

> <ROCS_Overlap>
684.458

> <ROCS_Rank>
396                 

$$$$
untitled-dbase-4419_0
  -OEChem-10092318153D

 28 30  0     0  0  0  0  0  0999 V2000
   -6.1455    2.6916  -19.3836 C   0  0  0  0  0  0  0  0  0  0  0  0
   -5.9661    3.2721  -18.1308 C   0  0  0  0  0  0  0  0  0  0  0  0
   -6.8377    1.4827  -19.5194 C   0  0  0  0  0  0  0  0  0  0  0  0
   -6.4716    2.6650  -16.9787 C   0  0  0  0  0  0  0  0  0  0  0  0
   -7.3579    0.8473  -18.3714 C   0  0  0  0  0  0  0  0  0  0  0  0
   -8.0951   -0.3596  -18.1425 C   0  0  0  0  0  0  0  0  0  0  0  0
   -7.1616    1.4566  -17.1304 C   0  0  0  0  0  0  0  0  0  0  0  0
   -8.3220   -0.4414  -16.7808 C   0  0  0  0  0  0  0  0  0  0  0  0
   -8.5580   -1.3519  -19.1542 C   0  0  0  0  0  0  0  0  0  0  0  0
   -9.0330   -1.4928  -16.0057 C   0  0  0  0  0  0  0  0  0  0  0  0
   -8.5224   -2.8939  -16.3457 C   0  0  0  0  0  0  0  0  0  0  0  0
   -8.8387   -3.3628  -17.7725 C   0  0  0  0  0  0  0  0  0  0  0  0
   -7.7571    0.6549  -16.1857 N   0  0  0  0  0  0  0  0  0  0  0  0
   -8.0675   -2.6944  -18.8280 N   0  0  0  0  0  0  0  0  0  0  0  0
   -5.7437    3.1802  -20.2674 H   0  0  0  0  0  0  0  0  0  0  0  0
   -5.4265    4.2118  -18.0463 H   0  0  0  0  0  0  0  0  0  0  0  0
   -6.9676    1.0455  -20.5053 H   0  0  0  0  0  0  0  0  0  0  0  0
   -6.3327    3.1181  -16.0027 H   0  0  0  0  0  0  0  0  0  0  0  0
   -9.6502   -1.3330  -19.2482 H   0  0  0  0  0  0  0  0  0  0  0  0
   -8.1588   -1.0812  -20.1382 H   0  0  0  0  0  0  0  0  0  0  0  0
   -8.8975   -1.3218  -14.9307 H   0  0  0  0  0  0  0  0  0  0  0  0
  -10.1096   -1.4269  -16.2037 H   0  0  0  0  0  0  0  0  0  0  0  0
   -7.4405   -2.9566  -16.1690 H   0  0  0  0  0  0  0  0  0  0  0  0
   -8.9907   -3.6013  -15.6493 H   0  0  0  0  0  0  0  0  0  0  0  0
   -8.5830   -4.4286  -17.8214 H   0  0  0  0  0  0  0  0  0  0  0  0
   -9.9151   -3.3012  -17.9732 H   0  0  0  0  0  0  0  0  0  0  0  0
   -7.7717    0.8483  -15.1938 H   0  0  0  0  0  0  0  0  0  0  0  0
   -8.1412   -3.2645  -19.6719 H   0  0  0  0  0  0  0  0  0  0  0  0
  1  2  2  0  0  0  0
  1  3  1  0  0  0  0
  2  4  1  0  0  0  0
  3  5  2  0  0  0  0
  4  7  2  0  0  0  0
  5  6  1  0  0  0  0
  5  7  1  0  0  0  0
  6  8  2  0  0  0  0
  6  9  1  0  0  0  0
  7 13  1  0  0  0  0
  8 10  1  0  0  0  0
  8 13  1  0  0  0  0
  9 14  1  0  0  0  0
 10 11  1  0  0  0  0
 11 12  1  0  0  0  0
 12 14  1  0  0  0  0
  1 15  1  0  0  0  0
  2 16  1  0  0  0  0
  3 17  1  0  0  0  0
  4 18  1  0  0  0  0
  9 19  1  0  0  0  0
  9 20  1  0  0  0  0
 10 21  1  0  0  0  0
 10 22  1  0  0  0  0
 11 23  1  0  0  0  0
 11 24  1  0  0  0  0
 12 25  1  0  0  0  0
 12 26  1  0  0  0  0
 13 27  1  0  0  0  0
 14 28  1  0  0  0  0
M  END
> <id>
EN300-188336

> <smiles>
C1CNCC2=C(C1)NC=3C=CC=CC23

> <MDLNUMBER>
MFCD20542893

> <IUPAC Name>
1H,2H,3H,4H,5H,6H-azepino[4,3-b]indole

> <CAS>
14362-51-7

> <URL>
https://www.enaminestore.com/catalog/EN300-188336

> <ROCS_ShapeQuery>
amalgated

> <ROCS_TanimotoCombo>
0.820 

> <ROCS_ShapeTanimoto>
0.416 

> <ROCS_ColorTanimoto>
0.404 

> <ROCS_RefTversky>
0.418 

> <ROCS_RefColorTversky>
0.539 

> <ROCS_RefTverskyCombo>
0.957 

> <ROCS_FitTversky>
0.988 

> <ROCS_FitColorTversky>
0.617 

> <ROCS_FitTverskyCombo>
1.606 

> <ROCS_ColorScore>
-3.750

> <ROCS_Overlap>
684.458

> <ROCS_Rank>
397                 

$$$$
untitled-dbase-50315_45
  -OEChem-10092318153D

 35 36  0     1  0  0  0  0  0999 V2000
   -8.8619   -0.2205  -14.5741 C   0  0  0  0  0  0  0  0  0  0  0  0
   -9.9711   -0.9343  -17.5124 C   0  0  0  0  0  0  0  0  0  0  0  0
   -7.3556   -0.9826  -17.6726 C   0  0  0  0  0  0  0  0  0  0  0  0
   -8.6257   -3.0444  -16.7943 C   0  0  0  0  0  0  0  0  0  0  0  0
   -8.6077   -0.2898  -17.1380 C   0  0  2  0  0  0  0  0  0  0  0  0
   -9.6226   -1.9557  -16.3928 C   0  0  1  0  0  0  0  0  0  0  0  0
   -7.5677   -2.5081  -17.7850 C   0  0  0  0  0  0  0  0  0  0  0  0
  -10.2973    0.8236  -12.2759 C   0  0  0  0  0  0  0  0  0  0  0  0
   -9.8537   -1.4192  -11.2356 C   0  0  0  0  0  0  0  0  0  0  0  0
   -7.9326    0.0841  -11.8335 C   0  0  0  0  0  0  0  0  0  0  0  0
   -9.3414   -0.3669  -12.2166 C   0  0  0  0  0  0  0  0  0  0  0  0
   -8.9082   -0.8229  -15.8072 N   0  0  0  0  0  0  0  0  0  0  0  0
   -7.9502   -2.8569  -19.1591 N   0  0  0  0  0  0  0  0  0  0  0  0
   -8.5319    0.9530  -14.4091 O   0  0  0  0  0  0  0  0  0  0  0  0
   -9.2890   -0.9756  -13.5150 O   0  0  0  0  0  0  0  0  0  0  0  0
  -10.8425   -0.3071  -17.2965 H   0  0  0  0  0  0  0  0  0  0  0  0
  -10.0647   -1.3304  -18.5248 H   0  0  0  0  0  0  0  0  0  0  0  0
   -7.0910   -0.5458  -18.6488 H   0  0  0  0  0  0  0  0  0  0  0  0
   -6.4995   -0.7852  -17.0085 H   0  0  0  0  0  0  0  0  0  0  0  0
   -8.1155   -3.4399  -15.9005 H   0  0  0  0  0  0  0  0  0  0  0  0
   -9.1777   -3.8955  -17.2279 H   0  0  0  0  0  0  0  0  0  0  0  0
   -8.5949    0.8126  -17.1865 H   0  0  0  0  0  0  0  0  0  0  0  0
  -10.4913   -2.3019  -15.8114 H   0  0  0  0  0  0  0  0  0  0  0  0
   -6.6270   -2.9995  -17.5777 H   0  0  0  0  0  0  0  0  0  0  0  0
   -9.9331    1.5812  -12.9790 H   0  0  0  0  0  0  0  0  0  0  0  0
  -11.3029    0.5185  -12.5835 H   0  0  0  0  0  0  0  0  0  0  0  0
  -10.3687    1.3168  -11.2997 H   0  0  0  0  0  0  0  0  0  0  0  0
   -9.1708   -2.2752  -11.1898 H   0  0  0  0  0  0  0  0  0  0  0  0
  -10.8234   -1.8148  -11.5587 H   0  0  0  0  0  0  0  0  0  0  0  0
   -9.9651   -1.0102  -10.2261 H   0  0  0  0  0  0  0  0  0  0  0  0
   -7.2467   -0.7697  -11.7909 H   0  0  0  0  0  0  0  0  0  0  0  0
   -7.5341    0.8122  -12.5475 H   0  0  0  0  0  0  0  0  0  0  0  0
   -7.9261    0.5361  -10.8351 H   0  0  0  0  0  0  0  0  0  0  0  0
   -8.8254   -3.3246  -19.1296 H   0  0  0  0  0  0  0  0  0  0  0  0
   -8.0191   -2.0178  -19.6851 H   0  0  0  0  0  0  0  0  0  0  0  0
  1 12  1  0  0  0  0
  1 14  2  0  0  0  0
  1 15  1  0  0  0  0
  2  5  1  1  0  0  0
  2  6  1  1  0  0  0
  3  5  1  0  0  0  0
  3  7  1  0  0  0  0
  4  6  1  0  0  0  0
  4  7  1  0  0  0  0
  5 12  1  0  0  0  0
  6 12  1  0  0  0  0
  7 13  1  1  0  0  0
  8 11  1  0  0  0  0
  9 11  1  0  0  0  0
 10 11  1  0  0  0  0
 11 15  1  0  0  0  0
  2 16  1  0  0  0  0
  2 17  1  0  0  0  0
  3 18  1  0  0  0  0
  3 19  1  0  0  0  0
  4 20  1  0  0  0  0
  4 21  1  0  0  0  0
  5 22  1  0  0  0  0
  6 23  1  0  0  0  0
  7 24  1  0  0  0  0
  8 25  1  0  0  0  0
  8 26  1  0  0  0  0
  8 27  1  0  0  0  0
  9 28  1  0  0  0  0
  9 29  1  0  0  0  0
  9 30  1  0  0  0  0
 10 31  1  0  0  0  0
 10 32  1  0  0  0  0
 10 33  1  0  0  0  0
 13 34  1  0  0  0  0
 13 35  1  0  0  0  0
M  END
> <id>
EN300-37375575

> <smiles>
CC(C)(C)OC(=O)N1[C@H]2C[C@@H]1C[C@H](N)C2

> <IUPAC Name>
tert-butyl (1R,3s,5S)-3-amino-6-azabicyclo[3.1.1]heptane-6-carboxylate

> <CAS>
2763740-57-2

> <Purity>
95

> <URL>
https://www.enaminestore.com/catalog/EN300-37375575

> <ROCS_ShapeQuery>
amalgated

> <ROCS_TanimotoCombo>
0.820 

> <ROCS_ShapeTanimoto>
0.497 

> <ROCS_ColorTanimoto>
0.323 

> <ROCS_RefTversky>
0.476 

> <ROCS_RefColorTversky>
0.586 

> <ROCS_RefTverskyCombo>
1.062 

> <ROCS_FitTversky>
1.095 

> <ROCS_FitColorTversky>
0.419 

> <ROCS_FitTverskyCombo>
1.514 

> <ROCS_ColorScore>
-4.196

> <ROCS_Overlap>
780.004

> <ROCS_Rank>
398                 

$$$$
untitled-dbase-15020_38
  -OEChem-10092318153D

 44 45  0     1  0  0  0  0  0999 V2000
   -8.4495   -0.0273  -14.4583 C   0  0  0  0  0  0  0  0  0  0  0  0
   -8.7169   -0.6878  -18.0919 C   0  0  0  0  0  0  0  0  0  0  0  0
   -8.9510   -2.9048  -16.8410 C   0  0  0  0  0  0  0  0  0  0  0  0
  -10.2636   -2.4907  -18.9992 C   0  0  0  0  0  0  0  0  0  0  0  0
   -7.8983   -0.3387  -16.8546 C   0  0  0  0  0  0  0  0  0  0  0  0
   -9.4149   -1.9784  -15.7210 C   0  0  0  0  0  0  0  0  0  0  0  0
   -8.5118   -4.0280  -19.6407 C   0  0  0  0  0  0  0  0  0  0  0  0
   -9.9194   -3.5896  -20.0109 C   0  0  1  0  0  0  0  0  0  0  0  0
   -8.9584   -2.2056  -18.2273 C   0  0  0  0  0  0  0  0  0  0  0  0
  -10.9150   -4.7384  -20.0181 C   0  0  0  0  0  0  0  0  0  0  0  0
   -9.6203    1.5569  -12.3838 C   0  0  0  0  0  0  0  0  0  0  0  0
   -9.9422   -0.6136  -11.1614 C   0  0  0  0  0  0  0  0  0  0  0  0
   -7.6240    0.1751  -11.7202 C   0  0  0  0  0  0  0  0  0  0  0  0
   -9.0831    0.1421  -12.1729 C   0  0  0  0  0  0  0  0  0  0  0  0
   -7.9277   -2.8066  -19.0952 N   0  0  0  0  0  0  0  0  0  0  0  0
   -8.5833   -0.7714  -15.6345 N   0  0  0  0  0  0  0  0  0  0  0  0
   -7.7791    0.9987  -14.3603 O   0  0  0  0  0  0  0  0  0  0  0  0
   -9.1589   -0.5643  -13.4164 O   0  0  0  0  0  0  0  0  0  0  0  0
   -9.6818   -0.1687  -18.0300 H   0  0  0  0  0  0  0  0  0  0  0  0
   -8.2125   -0.2953  -18.9829 H   0  0  0  0  0  0  0  0  0  0  0  0
   -7.9493   -3.2764  -16.6122 H   0  0  0  0  0  0  0  0  0  0  0  0
   -9.6133   -3.7745  -16.8773 H   0  0  0  0  0  0  0  0  0  0  0  0
  -10.6696   -1.6024  -19.5093 H   0  0  0  0  0  0  0  0  0  0  0  0
  -11.0516   -2.8526  -18.3162 H   0  0  0  0  0  0  0  0  0  0  0  0
   -6.9226   -0.8364  -16.8729 H   0  0  0  0  0  0  0  0  0  0  0  0
   -7.7109    0.7389  -16.8274 H   0  0  0  0  0  0  0  0  0  0  0  0
  -10.4685   -1.7222  -15.8775 H   0  0  0  0  0  0  0  0  0  0  0  0
   -9.3546   -2.4775  -14.7453 H   0  0  0  0  0  0  0  0  0  0  0  0
   -8.5240   -4.8138  -18.8792 H   0  0  0  0  0  0  0  0  0  0  0  0
   -7.9510   -4.3838  -20.5067 H   0  0  0  0  0  0  0  0  0  0  0  0
   -9.9092   -3.1454  -21.0315 H   0  0  0  0  0  0  0  0  0  0  0  0
  -10.9587   -5.2064  -19.0328 H   0  0  0  0  0  0  0  0  0  0  0  0
  -10.6172   -5.4915  -20.7501 H   0  0  0  0  0  0  0  0  0  0  0  0
  -11.9109   -4.3735  -20.2767 H   0  0  0  0  0  0  0  0  0  0  0  0
   -9.0063    2.1027  -13.1092 H   0  0  0  0  0  0  0  0  0  0  0  0
  -10.6548    1.5464  -12.7420 H   0  0  0  0  0  0  0  0  0  0  0  0
   -9.5826    2.1325  -11.4519 H   0  0  0  0  0  0  0  0  0  0  0  0
   -9.5604   -1.6293  -11.0070 H   0  0  0  0  0  0  0  0  0  0  0  0
  -10.9699   -0.7224  -11.5263 H   0  0  0  0  0  0  0  0  0  0  0  0
   -9.9701   -0.1029  -10.1935 H   0  0  0  0  0  0  0  0  0  0  0  0
   -7.2385   -0.8396  -11.5689 H   0  0  0  0  0  0  0  0  0  0  0  0
   -6.9862    0.6815  -12.4519 H   0  0  0  0  0  0  0  0  0  0  0  0
   -7.5263    0.6898  -10.7576 H   0  0  0  0  0  0  0  0  0  0  0  0
   -7.0783   -3.0183  -18.5889 H   0  0  0  0  0  0  0  0  0  0  0  0
  1 16  1  0  0  0  0
  1 17  2  0  0  0  0
  1 18  1  0  0  0  0
  2  5  1  0  0  0  0
  2  9  1  0  0  0  0
  3  6  1  0  0  0  0
  3  9  1  0  0  0  0
  4  8  1  0  0  0  0
  4  9  1  0  0  0  0
  5 16  1  0  0  0  0
  6 16  1  0  0  0  0
  7  8  1  0  0  0  0
  7 15  1  0  0  0  0
  8 10  1  0  0  0  0
  9 15  1  0  0  0  0
 11 14  1  0  0  0  0
 12 14  1  0  0  0  0
 13 14  1  0  0  0  0
 14 18  1  0  0  0  0
  2 19  1  0  0  0  0
  2 20  1  0  0  0  0
  3 21  1  0  0  0  0
  3 22  1  0  0  0  0
  4 23  1  0  0  0  0
  4 24  1  0  0  0  0
  5 25  1  0  0  0  0
  5 26  1  0  0  0  0
  6 27  1  0  0  0  0
  6 28  1  0  0  0  0
  7 29  1  0  0  0  0
  7 30  1  0  0  0  0
  8 31  1  0  0  0  0
 10 32  1  0  0  0  0
 10 33  1  0  0  0  0
 10 34  1  0  0  0  0
 11 35  1  0  0  0  0
 11 36  1  0  0  0  0
 11 37  1  0  0  0  0
 12 38  1  0  0  0  0
 12 39  1  0  0  0  0
 12 40  1  0  0  0  0
 13 41  1  0  0  0  0
 13 42  1  0  0  0  0
 13 43  1  0  0  0  0
 15 44  1  0  0  0  0
M  END
> <id>
EN300-1124616

> <smiles>
CC1CNC2(C1)CCN(CC2)C(=O)OC(C)(C)C

> <MDLNUMBER>
MFCD28396426

> <IUPAC Name>
tert-butyl 3-methyl-1,8-diazaspiro[4.5]decane-8-carboxylate

> <CAS>
1934962-15-8

> <URL>
https://www.enaminestore.com/catalog/EN300-1124616

> <ROCS_ShapeQuery>
amalgated

> <ROCS_TanimotoCombo>
0.820 

> <ROCS_ShapeTanimoto>
0.538 

> <ROCS_ColorTanimoto>
0.282 

> <ROCS_RefTversky>
0.526 

> <ROCS_RefColorTversky>
0.412 

> <ROCS_RefTverskyCombo>
0.937 

> <ROCS_FitTversky>
1.045 

> <ROCS_FitColorTversky>
0.473 

> <ROCS_FitTverskyCombo>
1.518 

> <ROCS_ColorScore>
-2.861

> <ROCS_Overlap>
864.451

> <ROCS_Rank>
399                 

$$$$
untitled-dbase-35885_54
  -OEChem-10092318153D

 43 45  0     0  0  0  0  0  0999 V2000
   -8.5641   -2.9558  -17.9638 C   0  0  0  0  0  0  0  0  0  0  0  0
   -9.7361   -2.0097  -18.2119 C   0  0  0  0  0  0  0  0  0  0  0  0
   -7.2589   -2.1987  -17.7929 C   0  0  0  0  0  0  0  0  0  0  0  0
   -9.5817   -0.6419  -17.5373 C   0  0  0  0  0  0  0  0  0  0  0  0
   -7.2915   -1.1982  -16.6321 C   0  0  0  0  0  0  0  0  0  0  0  0
   -9.6183    1.0602  -12.5661 C   0  0  0  0  0  0  0  0  0  0  0  0
   -7.9356   -0.7786  -12.5074 C   0  0  0  0  0  0  0  0  0  0  0  0
  -10.3710    0.3629  -11.4250 C   0  0  0  0  0  0  0  0  0  0  0  0
   -8.7368   -1.4309  -11.3743 C   0  0  0  0  0  0  0  0  0  0  0  0
   -8.5934    0.7874  -15.7240 C   0  0  0  0  0  0  0  0  0  0  0  0
   -9.3510   -1.5566  -15.1649 C   0  0  0  0  0  0  0  0  0  0  0  0
   -8.7077   -0.6603  -16.2625 C   0  0  0  0  0  0  0  0  0  0  0  0
   -8.8381    0.0536  -13.4386 C   0  0  0  0  0  0  0  0  0  0  0  0
  -10.1777   -1.0479   -9.4820 C   0  0  0  0  0  0  0  0  0  0  0  0
   -7.9856    0.7758  -14.3977 N   0  0  0  0  0  0  0  0  0  0  0  0
   -9.4537   -0.4196  -10.5865 N   0  0  0  0  0  0  0  0  0  0  0  0
   -9.8295   -0.7896  -14.0595 O   0  0  0  0  0  0  0  0  0  0  0  0
   -8.7628   -3.5613  -17.0730 H   0  0  0  0  0  0  0  0  0  0  0  0
   -8.4766   -3.6504  -18.8080 H   0  0  0  0  0  0  0  0  0  0  0  0
   -9.8592   -1.8628  -19.3004 H   0  0  0  0  0  0  0  0  0  0  0  0
  -10.6737   -2.4885  -17.8748 H   0  0  0  0  0  0  0  0  0  0  0  0
   -6.4320   -2.9119  -17.6475 H   0  0  0  0  0  0  0  0  0  0  0  0
   -7.0241   -1.6591  -18.7246 H   0  0  0  0  0  0  0  0  0  0  0  0
   -9.1426    0.0533  -18.2698 H   0  0  0  0  0  0  0  0  0  0  0  0
  -10.5816   -0.2442  -17.3078 H   0  0  0  0  0  0  0  0  0  0  0  0
   -6.8082   -1.6717  -15.7618 H   0  0  0  0  0  0  0  0  0  0  0  0
   -6.6437   -0.3449  -16.9001 H   0  0  0  0  0  0  0  0  0  0  0  0
  -10.3487    1.6245  -13.1566 H   0  0  0  0  0  0  0  0  0  0  0  0
   -8.9260    1.7989  -12.1380 H   0  0  0  0  0  0  0  0  0  0  0  0
   -7.1496   -0.1491  -12.0700 H   0  0  0  0  0  0  0  0  0  0  0  0
   -7.4389   -1.5774  -13.0724 H   0  0  0  0  0  0  0  0  0  0  0  0
  -10.8542    1.1376  -10.8163 H   0  0  0  0  0  0  0  0  0  0  0  0
  -11.1695   -0.2702  -11.8345 H   0  0  0  0  0  0  0  0  0  0  0  0
   -9.4319   -2.1736  -11.7852 H   0  0  0  0  0  0  0  0  0  0  0  0
   -8.0335   -1.9695  -10.7283 H   0  0  0  0  0  0  0  0  0  0  0  0
   -7.9785    1.3932  -16.3870 H   0  0  0  0  0  0  0  0  0  0  0  0
   -9.5725    1.2604  -15.6797 H   0  0  0  0  0  0  0  0  0  0  0  0
  -10.1744   -2.1549  -15.5770 H   0  0  0  0  0  0  0  0  0  0  0  0
   -8.6303   -2.2782  -14.7641 H   0  0  0  0  0  0  0  0  0  0  0  0
   -9.4755   -1.6288   -8.8660 H   0  0  0  0  0  0  0  0  0  0  0  0
  -10.6506   -0.2703   -8.8643 H   0  0  0  0  0  0  0  0  0  0  0  0
  -10.9520   -1.7173   -9.8851 H   0  0  0  0  0  0  0  0  0  0  0  0
   -7.0800    0.3258  -14.4492 H   0  0  0  0  0  0  0  0  0  0  0  0
  1  2  1  0  0  0  0
  1  3  1  0  0  0  0
  2  4  1  0  0  0  0
  3  5  1  0  0  0  0
  4 12  1  0  0  0  0
  5 12  1  0  0  0  0
  6  8  1  0  0  0  0
  6 13  1  0  0  0  0
  7  9  1  0  0  0  0
  7 13  1  0  0  0  0
  8 16  1  0  0  0  0
  9 16  1  0  0  0  0
 10 12  1  0  0  0  0
 10 15  1  0  0  0  0
 11 12  1  0  0  0  0
 11 17  1  0  0  0  0
 13 15  1  0  0  0  0
 13 17  1  0  0  0  0
 14 16  1  0  0  0  0
  1 18  1  0  0  0  0
  1 19  1  0  0  0  0
  2 20  1  0  0  0  0
  2 21  1  0  0  0  0
  3 22  1  0  0  0  0
  3 23  1  0  0  0  0
  4 24  1  0  0  0  0
  4 25  1  0  0  0  0
  5 26  1  0  0  0  0
  5 27  1  0  0  0  0
  6 28  1  0  0  0  0
  6 29  1  0  0  0  0
  7 30  1  0  0  0  0
  7 31  1  0  0  0  0
  8 32  1  0  0  0  0
  8 33  1  0  0  0  0
  9 34  1  0  0  0  0
  9 35  1  0  0  0  0
 10 36  1  0  0  0  0
 10 37  1  0  0  0  0
 11 38  1  0  0  0  0
 11 39  1  0  0  0  0
 14 40  1  0  0  0  0
 14 41  1  0  0  0  0
 14 42  1  0  0  0  0
 15 43  1  0  0  0  0
M  END
> <id>
EN300-1279837

> <smiles>
CN1CCC2(CC1)NCC3(CCCCC3)CO2

> <IUPAC Name>
3-methyl-7-oxa-3,16-diazadispiro[5.2.5^{9}.2^{6}]hexadecane

> <CAS>
2171815-28-2

> <URL>
https://www.enaminestore.com/catalog/EN300-1279837

> <ROCS_ShapeQuery>
amalgated

> <ROCS_TanimotoCombo>
0.820 

> <ROCS_ShapeTanimoto>
0.571 

> <ROCS_ColorTanimoto>
0.249 

> <ROCS_RefTversky>
0.538 

> <ROCS_RefColorTversky>
0.399 

> <ROCS_RefTverskyCombo>
0.937 

> <ROCS_FitTversky>
1.120 

> <ROCS_FitColorTversky>
0.399 

> <ROCS_FitTverskyCombo>
1.518 

> <ROCS_ColorScore>
-2.791

> <ROCS_Overlap>
883.433

> <ROCS_Rank>
400                 

$$$$
untitled-dbase-38321_0
  -OEChem-10092318153D

 31 33  0     1  0  0  0  0  0999 V2000
   -8.9178   -0.0959  -11.2361 C   0  0  0  0  0  0  0  0  0  0  0  0
   -8.2902   -1.1838  -11.8492 C   0  0  0  0  0  0  0  0  0  0  0  0
   -9.6578    0.7612  -13.3836 C   0  0  0  0  0  0  0  0  0  0  0  0
   -9.0314   -0.3258  -14.0264 C   0  0  0  0  0  0  0  0  0  0  0  0
   -8.8973   -0.7376  -15.3823 C   0  0  0  0  0  0  0  0  0  0  0  0
   -9.5921    0.8626  -11.9894 C   0  0  0  0  0  0  0  0  0  0  0  0
   -8.3634   -1.2743  -13.2439 C   0  0  0  0  0  0  0  0  0  0  0  0
   -8.1697   -1.9091  -15.3866 C   0  0  0  0  0  0  0  0  0  0  0  0
   -9.4219   -0.1199  -16.6331 C   0  0  0  0  0  0  0  0  0  0  0  0
   -7.7644   -2.6927  -16.5846 C   0  0  0  0  0  0  0  0  0  0  0  0
   -8.7327   -0.7092  -17.8813 C   0  0  0  0  0  0  0  0  0  0  0  0
   -8.6090   -2.2494  -17.8020 C   0  0  1  0  0  0  0  0  0  0  0  0
  -10.2530    2.0122  -11.3038 C   0  0  0  0  0  0  0  0  0  0  0  0
   -7.8476   -2.2255  -14.0983 N   0  0  0  0  0  0  0  0  0  0  0  0
   -8.0090   -2.7695  -19.0289 N   0  0  0  0  0  0  0  0  0  0  0  0
   -8.8738   -0.0062  -10.1530 H   0  0  0  0  0  0  0  0  0  0  0  0
   -7.7668   -1.9299  -11.2607 H   0  0  0  0  0  0  0  0  0  0  0  0
  -10.1849    1.5121  -13.9662 H   0  0  0  0  0  0  0  0  0  0  0  0
  -10.5005   -0.3094  -16.6929 H   0  0  0  0  0  0  0  0  0  0  0  0
   -9.2794    0.9663  -16.6160 H   0  0  0  0  0  0  0  0  0  0  0  0
   -6.6974   -2.5127  -16.7704 H   0  0  0  0  0  0  0  0  0  0  0  0
   -7.8923   -3.7673  -16.4080 H   0  0  0  0  0  0  0  0  0  0  0  0
   -9.2999   -0.4120  -18.7719 H   0  0  0  0  0  0  0  0  0  0  0  0
   -7.7319   -0.2668  -17.9811 H   0  0  0  0  0  0  0  0  0  0  0  0
   -9.6146   -2.6720  -17.7104 H   0  0  0  0  0  0  0  0  0  0  0  0
   -9.5543    2.8518  -11.2097 H   0  0  0  0  0  0  0  0  0  0  0  0
  -11.1350    2.3527  -11.8605 H   0  0  0  0  0  0  0  0  0  0  0  0
  -10.5982    1.7310  -10.3008 H   0  0  0  0  0  0  0  0  0  0  0  0
   -7.3108   -3.0321  -13.8101 H   0  0  0  0  0  0  0  0  0  0  0  0
   -7.9711   -3.7582  -18.9588 H   0  0  0  0  0  0  0  0  0  0  0  0
   -8.5786   -2.4921  -19.7920 H   0  0  0  0  0  0  0  0  0  0  0  0
  1  2  1  0  0  0  0
  1  6  2  0  0  0  0
  2  7  2  0  0  0  0
  3  4  2  0  0  0  0
  3  6  1  0  0  0  0
  4  5  1  0  0  0  0
  4  7  1  0  0  0  0
  5  8  2  0  0  0  0
  5  9  1  0  0  0  0
  6 13  1  0  0  0  0
  7 14  1  0  0  0  0
  8 10  1  0  0  0  0
  8 14  1  0  0  0  0
  9 11  1  0  0  0  0
 10 12  1  0  0  0  0
 11 12  1  0  0  0  0
 12 15  1  0  0  0  0
  1 16  1  0  0  0  0
  2 17  1  0  0  0  0
  3 18  1  0  0  0  0
  9 19  1  0  0  0  0
  9 20  1  0  0  0  0
 10 21  1  0  0  0  0
 10 22  1  0  0  0  0
 11 23  1  0  0  0  0
 11 24  1  0  0  0  0
 12 25  1  0  0  0  0
 13 26  1  0  0  0  0
 13 27  1  0  0  0  0
 13 28  1  0  0  0  0
 14 29  1  0  0  0  0
 15 30  1  0  0  0  0
 15 31  1  0  0  0  0
M  END
> <id>
EN300-746275

> <smiles>
CC=1C=CC=2NC=3CC(N)CCC3C2C1

> <MDLNUMBER>
MFCD26593747

> <IUPAC Name>
6-methyl-2,3,4,9-tetrahydro-1H-carbazol-2-amine

> <CAS>
1706459-08-6

> <Purity>
95

> <URL>
https://www.enaminestore.com/catalog/EN300-746275

> <ROCS_ShapeQuery>
amalgated

> <ROCS_TanimotoCombo>
0.819 

> <ROCS_ShapeTanimoto>
0.440 

> <ROCS_ColorTanimoto>
0.379 

> <ROCS_RefTversky>
0.442 

> <ROCS_RefColorTversky>
0.515 

> <ROCS_RefTverskyCombo>
0.958 

> <ROCS_FitTversky>
0.990 

> <ROCS_FitColorTversky>
0.589 

> <ROCS_FitTverskyCombo>
1.579 

> <ROCS_ColorScore>
-3.583

> <ROCS_Overlap>
725.187

> <ROCS_Rank>
401                 

$$$$
untitled-dbase-12348_171
  -OEChem-10092318153D

 42 43  0     0  0  0  0  0  0999 V2000
   -8.0775    0.6321  -13.4966 C   0  0  0  0  0  0  0  0  0  0  0  0
   -9.8985   -1.5573  -17.5723 C   0  0  0  0  0  0  0  0  0  0  0  0
   -7.6831   -1.8945  -16.4477 C   0  0  0  0  0  0  0  0  0  0  0  0
   -9.4076   -2.7918  -18.3437 C   0  0  0  0  0  0  0  0  0  0  0  0
   -7.0888   -2.4919  -17.7320 C   0  0  0  0  0  0  0  0  0  0  0  0
   -7.8743    1.6936  -15.7308 C   0  0  0  0  0  0  0  0  0  0  0  0
   -9.3773   -0.2353  -15.4870 C   0  0  0  0  0  0  0  0  0  0  0  0
   -7.3103    1.0526  -16.9881 C   0  0  0  0  0  0  0  0  0  0  0  0
   -8.7779   -0.8562  -16.7614 C   0  0  0  0  0  0  0  0  0  0  0  0
  -10.1332    1.3483  -12.0317 C   0  0  0  0  0  0  0  0  0  0  0  0
  -10.6352   -1.0801  -11.6316 C   0  0  0  0  0  0  0  0  0  0  0  0
   -8.6986    0.0065  -10.4581 C   0  0  0  0  0  0  0  0  0  0  0  0
   -9.5348   -0.0264  -11.7365 C   0  0  0  0  0  0  0  0  0  0  0  0
   -8.0441   -2.6252  -18.8379 N   0  0  0  0  0  0  0  0  0  0  0  0
   -8.4210    0.6704  -14.8485 N   0  0  0  0  0  0  0  0  0  0  0  0
   -7.3132    1.4276  -12.9534 O   0  0  0  0  0  0  0  0  0  0  0  0
   -8.2696    0.1961  -17.6087 O   0  0  0  0  0  0  0  0  0  0  0  0
   -8.6849   -0.3973  -12.8279 O   0  0  0  0  0  0  0  0  0  0  0  0
  -10.3311   -0.8508  -18.2986 H   0  0  0  0  0  0  0  0  0  0  0  0
  -10.7171   -1.8559  -16.8968 H   0  0  0  0  0  0  0  0  0  0  0  0
   -8.1037   -2.7057  -15.8401 H   0  0  0  0  0  0  0  0  0  0  0  0
   -6.8676   -1.4599  -15.8624 H   0  0  0  0  0  0  0  0  0  0  0  0
   -9.4414   -3.6667  -17.6816 H   0  0  0  0  0  0  0  0  0  0  0  0
  -10.0839   -3.0157  -19.1802 H   0  0  0  0  0  0  0  0  0  0  0  0
   -6.2148   -1.8956  -18.0657 H   0  0  0  0  0  0  0  0  0  0  0  0
   -6.6773   -3.4952  -17.5052 H   0  0  0  0  0  0  0  0  0  0  0  0
   -7.1089    2.2886  -15.2242 H   0  0  0  0  0  0  0  0  0  0  0  0
   -8.7059    2.3598  -15.9885 H   0  0  0  0  0  0  0  0  0  0  0  0
  -10.2491    0.3828  -15.7396 H   0  0  0  0  0  0  0  0  0  0  0  0
   -9.7207   -1.0125  -14.7965 H   0  0  0  0  0  0  0  0  0  0  0  0
   -7.0541    1.8319  -17.7127 H   0  0  0  0  0  0  0  0  0  0  0  0
   -6.3893    0.4993  -16.7805 H   0  0  0  0  0  0  0  0  0  0  0  0
   -9.3465    2.1075  -12.1078 H   0  0  0  0  0  0  0  0  0  0  0  0
  -10.7064    1.3468  -12.9645 H   0  0  0  0  0  0  0  0  0  0  0  0
  -10.7950    1.6693  -11.2192 H   0  0  0  0  0  0  0  0  0  0  0  0
  -10.2104   -2.0680  -11.4199 H   0  0  0  0  0  0  0  0  0  0  0  0
  -11.1774   -1.1740  -12.5795 H   0  0  0  0  0  0  0  0  0  0  0  0
  -11.3546   -0.8359  -10.8433 H   0  0  0  0  0  0  0  0  0  0  0  0
   -8.2693   -0.9794  -10.2461 H   0  0  0  0  0  0  0  0  0  0  0  0
   -7.8812    0.7313  -10.5294 H   0  0  0  0  0  0  0  0  0  0  0  0
   -9.3195    0.2659   -9.5929 H   0  0  0  0  0  0  0  0  0  0  0  0
   -7.7904   -3.4422  -19.3913 H   0  0  0  0  0  0  0  0  0  0  0  0
  1 15  1  0  0  0  0
  1 16  2  0  0  0  0
  1 18  1  0  0  0  0
  2  4  1  0  0  0  0
  2  9  1  0  0  0  0
  3  5  1  0  0  0  0
  3  9  1  0  0  0  0
  4 14  1  0  0  0  0
  5 14  1  0  0  0  0
  6  8  1  0  0  0  0
  6 15  1  0  0  0  0
  7  9  1  0  0  0  0
  7 15  1  0  0  0  0
  8 17  1  0  0  0  0
  9 17  1  0  0  0  0
 10 13  1  0  0  0  0
 11 13  1  0  0  0  0
 12 13  1  0  0  0  0
 13 18  1  0  0  0  0
  2 19  1  0  0  0  0
  2 20  1  0  0  0  0
  3 21  1  0  0  0  0
  3 22  1  0  0  0  0
  4 23  1  0  0  0  0
  4 24  1  0  0  0  0
  5 25  1  0  0  0  0
  5 26  1  0  0  0  0
  6 27  1  0  0  0  0
  6 28  1  0  0  0  0
  7 29  1  0  0  0  0
  7 30  1  0  0  0  0
  8 31  1  0  0  0  0
  8 32  1  0  0  0  0
 10 33  1  0  0  0  0
 10 34  1  0  0  0  0
 10 35  1  0  0  0  0
 11 36  1  0  0  0  0
 11 37  1  0  0  0  0
 11 38  1  0  0  0  0
 12 39  1  0  0  0  0
 12 40  1  0  0  0  0
 12 41  1  0  0  0  0
 14 42  1  0  0  0  0
M  END
> <id>
EN300-268937

> <smiles>
CC(C)(C)OC(=O)N1CCOC2(CCNCC2)C1

> <MDLNUMBER>
MFCD11227066

> <IUPAC Name>
tert-butyl 1-oxa-4,9-diazaspiro[5.5]undecane-4-carboxylate

> <CAS>
1023595-11-0

> <Purity>
95

> <URL>
https://www.enaminestore.com/catalog/EN300-268937

> <MP>
73-76

> <ROCS_ShapeQuery>
amalgated

> <ROCS_TanimotoCombo>
0.819 

> <ROCS_ShapeTanimoto>
0.592 

> <ROCS_ColorTanimoto>
0.228 

> <ROCS_RefTversky>
0.560 

> <ROCS_RefColorTversky>
0.371 

> <ROCS_RefTverskyCombo>
0.931 

> <ROCS_FitTversky>
1.106 

> <ROCS_FitColorTversky>
0.371 

> <ROCS_FitTverskyCombo>
1.477 

> <ROCS_ColorScore>
-2.596

> <ROCS_Overlap>
920.971

> <ROCS_Rank>
402                 

$$$$
untitled-dbase-10605_2
  -OEChem-10092318153D

 37 38  0     1  0  0  0  0  0999 V2000
   -7.0370    1.2449  -19.0481 C   0  0  0  0  0  0  0  0  0  0  0  0
   -6.9821    1.8280  -17.7918 C   0  0  0  0  0  0  0  0  0  0  0  0
   -7.6167   -0.0104  -19.1940 C   0  0  0  0  0  0  0  0  0  0  0  0
   -7.5070    1.1588  -16.6821 C   0  0  0  0  0  0  0  0  0  0  0  0
   -8.1321   -0.7098  -18.0832 C   0  0  0  0  0  0  0  0  0  0  0  0
   -8.0865   -0.1182  -16.7979 C   0  0  0  0  0  0  0  0  0  0  0  0
   -8.4297   -0.4120  -14.3251 C   0  0  0  0  0  0  0  0  0  0  0  0
   -9.5585   -1.9304  -15.9647 C   0  0  0  0  0  0  0  0  0  0  0  0
   -8.7557   -2.0681  -18.3277 C   0  0  2  0  0  0  0  0  0  0  0  0
   -8.9693   -2.8313  -17.0309 C   0  0  2  0  0  0  0  0  0  0  0  0
   -9.1059    1.1597  -12.0216 C   0  0  0  0  0  0  0  0  0  0  0  0
  -10.6492   -0.7273  -11.4159 C   0  0  0  0  0  0  0  0  0  0  0  0
   -8.1740   -1.1308  -11.5526 C   0  0  0  0  0  0  0  0  0  0  0  0
   -9.3523   -0.3447  -12.1257 C   0  0  0  0  0  0  0  0  0  0  0  0
   -8.6635   -0.8002  -15.6617 N   0  0  0  0  0  0  0  0  0  0  0  0
   -7.4022    0.1015  -13.8896 O   0  0  0  0  0  0  0  0  0  0  0  0
   -7.8952   -2.8397  -19.1675 O   0  0  0  0  0  0  0  0  0  0  0  0
   -9.4999   -0.6879  -13.5090 O   0  0  0  0  0  0  0  0  0  0  0  0
  -10.2087   -4.3197  -17.3516 Br  0  0  0  0  0  0  0  0  0  0  0  0
   -6.6408    1.7681  -19.9128 H   0  0  0  0  0  0  0  0  0  0  0  0
   -6.5469    2.8160  -17.6706 H   0  0  0  0  0  0  0  0  0  0  0  0
   -7.6671   -0.4471  -20.1890 H   0  0  0  0  0  0  0  0  0  0  0  0
   -7.4807    1.7021  -15.7442 H   0  0  0  0  0  0  0  0  0  0  0  0
  -10.5224   -1.5046  -16.2740 H   0  0  0  0  0  0  0  0  0  0  0  0
   -9.7515   -2.5216  -15.0634 H   0  0  0  0  0  0  0  0  0  0  0  0
   -9.7008   -1.9092  -18.8629 H   0  0  0  0  0  0  0  0  0  0  0  0
   -8.0471   -3.3100  -16.6804 H   0  0  0  0  0  0  0  0  0  0  0  0
   -8.1759    1.4383  -12.5299 H   0  0  0  0  0  0  0  0  0  0  0  0
   -9.9279    1.7344  -12.4607 H   0  0  0  0  0  0  0  0  0  0  0  0
   -8.9900    1.4655  -10.9755 H   0  0  0  0  0  0  0  0  0  0  0  0
  -10.8300   -1.8059  -11.4881 H   0  0  0  0  0  0  0  0  0  0  0  0
  -11.5102   -0.2379  -11.8855 H   0  0  0  0  0  0  0  0  0  0  0  0
  -10.6274   -0.4495  -10.3571 H   0  0  0  0  0  0  0  0  0  0  0  0
   -8.3505   -2.2099  -11.6272 H   0  0  0  0  0  0  0  0  0  0  0  0
   -7.2407   -0.8963  -12.0747 H   0  0  0  0  0  0  0  0  0  0  0  0
   -8.0412   -0.9121  -10.4868 H   0  0  0  0  0  0  0  0  0  0  0  0
   -8.3331   -3.6944  -19.2950 H   0  0  0  0  0  0  0  0  0  0  0  0
  1  2  2  0  0  0  0
  1  3  1  0  0  0  0
  2  4  1  0  0  0  0
  3  5  2  0  0  0  0
  4  6  2  0  0  0  0
  5  6  1  0  0  0  0
  5  9  1  0  0  0  0
  6 15  1  0  0  0  0
  7 15  1  0  0  0  0
  7 16  2  0  0  0  0
  7 18  1  0  0  0  0
  8 10  1  0  0  0  0
  8 15  1  0  0  0  0
  9 10  1  0  0  0  0
  9 17  1  6  0  0  0
 10 19  1  1  0  0  0
 11 14  1  0  0  0  0
 12 14  1  0  0  0  0
 13 14  1  0  0  0  0
 14 18  1  0  0  0  0
  1 20  1  0  0  0  0
  2 21  1  0  0  0  0
  3 22  1  0  0  0  0
  4 23  1  0  0  0  0
  8 24  1  0  0  0  0
  8 25  1  0  0  0  0
  9 26  1  0  0  0  0
 10 27  1  0  0  0  0
 11 28  1  0  0  0  0
 11 29  1  0  0  0  0
 11 30  1  0  0  0  0
 12 31  1  0  0  0  0
 12 32  1  0  0  0  0
 12 33  1  0  0  0  0
 13 34  1  0  0  0  0
 13 35  1  0  0  0  0
 13 36  1  0  0  0  0
 17 37  1  0  0  0  0
M  END
> <id>
EN300-373561

> <smiles>
CC(C)(C)OC(=O)N1C[C@@H](Br)[C@H](O)C=2C=CC=CC12 |&1:9,11,r|

> <MDLNUMBER>
MFCD30727010

> <IUPAC Name>
rac-tert-butyl (3R,4R)-3-bromo-4-hydroxy-1,2,3,4-tetrahydroquinoline-1-carboxylate

> <CAS>
185943-03-7

> <Purity>
95

> <URL>
https://www.enaminestore.com/catalog/EN300-373561

> <ROCS_ShapeQuery>
amalgated

> <ROCS_TanimotoCombo>
0.819 

> <ROCS_ShapeTanimoto>
0.660 

> <ROCS_ColorTanimoto>
0.159 

> <ROCS_RefTversky>
0.609 

> <ROCS_RefColorTversky>
0.275 

> <ROCS_RefTverskyCombo>
0.884 

> <ROCS_FitTversky>
1.145 

> <ROCS_FitColorTversky>
0.275 

> <ROCS_FitTverskyCombo>
1.419 

> <ROCS_ColorScore>
-1.924

> <ROCS_Overlap>
1003.364

> <ROCS_Rank>
403                 

$$$$
untitled-dbase-34632_346
  -OEChem-10092318153D

 41 42  0     0  0  0  0  0  0999 V2000
   -9.0391   -0.0420  -13.3364 C   0  0  0  0  0  0  0  0  0  0  0  0
   -9.4502   -1.8685  -17.0499 C   0  0  0  0  0  0  0  0  0  0  0  0
   -7.0742   -1.5175  -16.1932 C   0  0  0  0  0  0  0  0  0  0  0  0
   -8.4512    0.4933  -16.8803 C   0  0  0  0  0  0  0  0  0  0  0  0
   -9.2472   -2.9986  -18.0583 C   0  0  0  0  0  0  0  0  0  0  0  0
   -7.4441   -1.3234  -14.7206 C   0  0  0  0  0  0  0  0  0  0  0  0
   -8.1029    0.9491  -15.4609 C   0  0  0  0  0  0  0  0  0  0  0  0
   -7.8017   -1.2415  -18.6185 C   0  0  0  0  0  0  0  0  0  0  0  0
   -8.1780   -1.0045  -17.1505 C   0  0  0  0  0  0  0  0  0  0  0  0
  -10.6358   -1.2796  -11.3105 C   0  0  0  0  0  0  0  0  0  0  0  0
   -8.4922   -1.5081  -10.0213 C   0  0  0  0  0  0  0  0  0  0  0  0
   -9.3622    0.7741  -10.6069 C   0  0  0  0  0  0  0  0  0  0  0  0
   -9.2525   -0.6821  -11.0566 C   0  0  0  0  0  0  0  0  0  0  0  0
   -8.0359   -2.6712  -18.8102 N   0  0  0  0  0  0  0  0  0  0  0  0
   -8.2534   -0.1299  -14.4893 N   0  0  0  0  0  0  0  0  0  0  0  0
  -10.0960    0.5835  -13.2696 O   0  0  0  0  0  0  0  0  0  0  0  0
   -8.5055   -0.7272  -12.2776 O   0  0  0  0  0  0  0  0  0  0  0  0
  -10.3665   -1.3107  -17.2605 H   0  0  0  0  0  0  0  0  0  0  0  0
   -9.5513   -2.2994  -16.0470 H   0  0  0  0  0  0  0  0  0  0  0  0
   -6.1398   -0.9821  -16.3977 H   0  0  0  0  0  0  0  0  0  0  0  0
   -6.8733   -2.5780  -16.3765 H   0  0  0  0  0  0  0  0  0  0  0  0
   -9.5060    0.7459  -17.0787 H   0  0  0  0  0  0  0  0  0  0  0  0
   -7.8626    1.1021  -17.5882 H   0  0  0  0  0  0  0  0  0  0  0  0
   -9.1299   -3.9555  -17.5359 H   0  0  0  0  0  0  0  0  0  0  0  0
  -10.1009   -3.0877  -18.7381 H   0  0  0  0  0  0  0  0  0  0  0  0
   -8.0257   -2.1874  -14.3523 H   0  0  0  0  0  0  0  0  0  0  0  0
   -6.5199   -1.3032  -14.1192 H   0  0  0  0  0  0  0  0  0  0  0  0
   -7.0792    1.3417  -15.4453 H   0  0  0  0  0  0  0  0  0  0  0  0
   -8.7590    1.7674  -15.1402 H   0  0  0  0  0  0  0  0  0  0  0  0
   -8.4069   -0.6466  -19.3123 H   0  0  0  0  0  0  0  0  0  0  0  0
   -6.7442   -1.0083  -18.8052 H   0  0  0  0  0  0  0  0  0  0  0  0
  -11.1848   -0.6896  -12.0530 H   0  0  0  0  0  0  0  0  0  0  0  0
  -10.5697   -2.3127  -11.6670 H   0  0  0  0  0  0  0  0  0  0  0  0
  -11.2409   -1.2668  -10.3968 H   0  0  0  0  0  0  0  0  0  0  0  0
   -7.4991   -1.0830   -9.8360 H   0  0  0  0  0  0  0  0  0  0  0  0
   -8.3281   -2.5301  -10.3815 H   0  0  0  0  0  0  0  0  0  0  0  0
   -9.0309   -1.5581   -9.0696 H   0  0  0  0  0  0  0  0  0  0  0  0
   -8.3701    1.2029  -10.4247 H   0  0  0  0  0  0  0  0  0  0  0  0
   -9.8728    1.3897  -11.3545 H   0  0  0  0  0  0  0  0  0  0  0  0
   -9.9101    0.8495   -9.6606 H   0  0  0  0  0  0  0  0  0  0  0  0
   -7.2418   -3.2196  -18.4799 H   0  0  0  0  0  0  0  0  0  0  0  0
  1 15  1  0  0  0  0
  1 16  2  0  0  0  0
  1 17  1  0  0  0  0
  2  5  1  0  0  0  0
  2  9  1  0  0  0  0
  3  6  1  0  0  0  0
  3  9  1  0  0  0  0
  4  7  1  0  0  0  0
  4  9  1  0  0  0  0
  5 14  1  0  0  0  0
  6 15  1  0  0  0  0
  7 15  1  0  0  0  0
  8  9  1  0  0  0  0
  8 14  1  0  0  0  0
 10 13  1  0  0  0  0
 11 13  1  0  0  0  0
 12 13  1  0  0  0  0
 13 17  1  0  0  0  0
  2 18  1  0  0  0  0
  2 19  1  0  0  0  0
  3 20  1  0  0  0  0
  3 21  1  0  0  0  0
  4 22  1  0  0  0  0
  4 23  1  0  0  0  0
  5 24  1  0  0  0  0
  5 25  1  0  0  0  0
  6 26  1  0  0  0  0
  6 27  1  0  0  0  0
  7 28  1  0  0  0  0
  7 29  1  0  0  0  0
  8 30  1  0  0  0  0
  8 31  1  0  0  0  0
 10 32  1  0  0  0  0
 10 33  1  0  0  0  0
 10 34  1  0  0  0  0
 11 35  1  0  0  0  0
 11 36  1  0  0  0  0
 11 37  1  0  0  0  0
 12 38  1  0  0  0  0
 12 39  1  0  0  0  0
 12 40  1  0  0  0  0
 14 41  1  0  0  0  0
M  END
> <id>
EN300-90565

> <smiles>
CC(C)(C)OC(=O)N1CCC2(CCNC2)CC1

> <MDLNUMBER>
MFCD09608078

> <IUPAC Name>
tert-butyl 2,8-diazaspiro[4.5]decane-8-carboxylate

> <CAS>
236406-39-6

> <Purity>
95

> <URL>
https://www.enaminestore.com/catalog/EN300-90565

> <ROCS_ShapeQuery>
amalgated

> <ROCS_TanimotoCombo>
0.819 

> <ROCS_ShapeTanimoto>
0.588 

> <ROCS_ColorTanimoto>
0.230 

> <ROCS_RefTversky>
0.548 

> <ROCS_RefColorTversky>
0.350 

> <ROCS_RefTverskyCombo>
0.898 

> <ROCS_FitTversky>
1.143 

> <ROCS_FitColorTversky>
0.402 

> <ROCS_FitTverskyCombo>
1.545 

> <ROCS_ColorScore>
-2.435

> <ROCS_Overlap>
900.340

> <ROCS_Rank>
404                 

$$$$
untitled-dbase-37807_12
  -OEChem-10092318153D

 40 42  0     1  0  0  0  0  0999 V2000
   -7.0737   -0.0446  -18.7713 C   0  0  0  0  0  0  0  0  0  0  0  0
   -6.7615    1.3103  -18.6869 C   0  0  0  0  0  0  0  0  0  0  0  0
   -7.8102    1.4051  -16.5197 C   0  0  0  0  0  0  0  0  0  0  0  0
   -7.7758   -0.6942  -17.7389 C   0  0  0  0  0  0  0  0  0  0  0  0
   -8.1512    0.0416  -16.5841 C   0  0  0  0  0  0  0  0  0  0  0  0
   -7.1286    2.0339  -17.5620 C   0  0  0  0  0  0  0  0  0  0  0  0
   -8.5739   -0.4499  -12.3803 C   0  0  0  0  0  0  0  0  0  0  0  0
   -8.3625   -1.7441  -13.1616 C   0  0  0  0  0  0  0  0  0  0  0  0
   -8.9398    0.7360  -13.2697 C   0  0  0  0  0  0  0  0  0  0  0  0
   -9.4337   -2.5358  -17.2049 C   0  0  0  0  0  0  0  0  0  0  0  0
   -7.8753   -1.4822  -14.5852 C   0  0  0  0  0  0  0  0  0  0  0  0
   -9.7151    0.2905  -14.5091 C   0  0  0  0  0  0  0  0  0  0  0  0
   -9.9469   -1.6049  -16.1028 C   0  0  0  0  0  0  0  0  0  0  0  0
   -8.0555   -2.1855  -17.7804 C   0  0  1  0  0  0  0  0  0  0  0  0
   -8.8983   -0.6725  -15.4386 C   0  0  0  0  0  0  0  0  0  0  0  0
   -6.7868    3.4829  -17.4630 C   0  0  0  0  0  0  0  0  0  0  0  0
   -7.9548   -2.8241  -19.0980 N   0  0  0  0  0  0  0  0  0  0  0  0
   -6.7606   -0.5981  -19.6535 H   0  0  0  0  0  0  0  0  0  0  0  0
   -6.2245    1.7879  -19.5036 H   0  0  0  0  0  0  0  0  0  0  0  0
   -8.0568    1.9963  -15.6435 H   0  0  0  0  0  0  0  0  0  0  0  0
   -9.3603   -0.6003  -11.6259 H   0  0  0  0  0  0  0  0  0  0  0  0
   -7.6547   -0.2119  -11.8225 H   0  0  0  0  0  0  0  0  0  0  0  0
   -7.6268   -2.3649  -12.6357 H   0  0  0  0  0  0  0  0  0  0  0  0
   -9.2926   -2.3235  -13.1754 H   0  0  0  0  0  0  0  0  0  0  0  0
   -9.5209    1.4670  -12.6951 H   0  0  0  0  0  0  0  0  0  0  0  0
   -8.0218    1.2500  -13.5809 H   0  0  0  0  0  0  0  0  0  0  0  0
   -9.4147   -3.5838  -16.8220 H   0  0  0  0  0  0  0  0  0  0  0  0
  -10.1879   -2.5770  -18.0275 H   0  0  0  0  0  0  0  0  0  0  0  0
   -6.9338   -0.9307  -14.5114 H   0  0  0  0  0  0  0  0  0  0  0  0
   -7.6331   -2.4320  -15.0651 H   0  0  0  0  0  0  0  0  0  0  0  0
  -10.6529   -0.1896  -14.2039 H   0  0  0  0  0  0  0  0  0  0  0  0
  -10.0070    1.1987  -15.0464 H   0  0  0  0  0  0  0  0  0  0  0  0
  -10.7774   -0.9927  -16.5255 H   0  0  0  0  0  0  0  0  0  0  0  0
  -10.4634   -2.2353  -15.3458 H   0  0  0  0  0  0  0  0  0  0  0  0
   -7.3270   -2.7036  -17.1195 H   0  0  0  0  0  0  0  0  0  0  0  0
   -7.5933    4.0953  -17.8846 H   0  0  0  0  0  0  0  0  0  0  0  0
   -6.6301    3.7845  -16.4193 H   0  0  0  0  0  0  0  0  0  0  0  0
   -5.8583    3.7109  -18.0024 H   0  0  0  0  0  0  0  0  0  0  0  0
   -7.0251   -2.7109  -19.4195 H   0  0  0  0  0  0  0  0  0  0  0  0
   -8.1795   -3.7822  -18.9879 H   0  0  0  0  0  0  0  0  0  0  0  0
  1  2  1  0  0  0  0
  1  4  2  0  0  0  0
  2  6  2  0  0  0  0
  3  5  2  0  0  0  0
  3  6  1  0  0  0  0
  4  5  1  0  0  0  0
  4 14  1  0  0  0  0
  5 15  1  0  0  0  0
  6 16  1  0  0  0  0
  7  8  1  0  0  0  0
  7  9  1  0  0  0  0
  8 11  1  0  0  0  0
  9 12  1  0  0  0  0
 10 13  1  0  0  0  0
 10 14  1  0  0  0  0
 11 15  1  0  0  0  0
 12 15  1  0  0  0  0
 13 15  1  0  0  0  0
 14 17  1  0  0  0  0
  1 18  1  0  0  0  0
  2 19  1  0  0  0  0
  3 20  1  0  0  0  0
  7 21  1  0  0  0  0
  7 22  1  0  0  0  0
  8 23  1  0  0  0  0
  8 24  1  0  0  0  0
  9 25  1  0  0  0  0
  9 26  1  0  0  0  0
 10 27  1  0  0  0  0
 10 28  1  0  0  0  0
 11 29  1  0  0  0  0
 11 30  1  0  0  0  0
 12 31  1  0  0  0  0
 12 32  1  0  0  0  0
 13 33  1  0  0  0  0
 13 34  1  0  0  0  0
 14 35  1  0  0  0  0
 16 36  1  0  0  0  0
 16 37  1  0  0  0  0
 16 38  1  0  0  0  0
 17 39  1  0  0  0  0
 17 40  1  0  0  0  0
M  END
> <id>
EN300-1458052

> <smiles>
CC=1C=CC=2C(N)CCC3(CCCCC3)C2C1

> <IUPAC Name>
7'-methyl-3',4'-dihydro-2'H-spiro[cyclohexane-1,1'-naphthalene]-4'-amine

> <CAS>
2172124-39-7

> <URL>
https://www.enaminestore.com/catalog/EN300-1458052

> <ROCS_ShapeQuery>
amalgated

> <ROCS_TanimotoCombo>
0.819 

> <ROCS_ShapeTanimoto>
0.506 

> <ROCS_ColorTanimoto>
0.313 

> <ROCS_RefTversky>
0.498 

> <ROCS_RefColorTversky>
0.415 

> <ROCS_RefTverskyCombo>
0.912 

> <ROCS_FitTversky>
1.034 

> <ROCS_FitColorTversky>
0.561 

> <ROCS_FitTverskyCombo>
1.594 

> <ROCS_ColorScore>
-2.861

> <ROCS_Overlap>
817.507

> <ROCS_Rank>
405                 

$$$$
untitled-dbase-34335_632
  -OEChem-10092318153D

 41 42  0     0  0  0  0  0  0999 V2000
   -8.3184    0.0302  -13.8495 C   0  0  0  0  0  0  0  0  0  0  0  0
  -10.6016   -2.0285  -18.3993 C   0  0  0  0  0  0  0  0  0  0  0  0
  -10.1663   -3.4309  -17.9724 C   0  0  0  0  0  0  0  0  0  0  0  0
   -9.9944   -0.8618  -17.6180 C   0  0  0  0  0  0  0  0  0  0  0  0
   -8.6862   -3.7643  -18.2169 C   0  0  0  0  0  0  0  0  0  0  0  0
   -7.5483   -1.5876  -18.1270 C   0  0  0  0  0  0  0  0  0  0  0  0
   -8.4920   -1.7717  -15.6878 C   0  0  0  0  0  0  0  0  0  0  0  0
   -8.0301    0.2009  -16.3900 C   0  0  0  0  0  0  0  0  0  0  0  0
   -8.5669   -1.0867  -17.0901 C   0  0  0  0  0  0  0  0  0  0  0  0
   -9.7627    1.1780  -11.6705 C   0  0  0  0  0  0  0  0  0  0  0  0
  -10.2657   -1.1893  -10.9981 C   0  0  0  0  0  0  0  0  0  0  0  0
   -7.8878   -0.3826  -11.0511 C   0  0  0  0  0  0  0  0  0  0  0  0
   -9.2681   -0.2675  -11.6962 C   0  0  0  0  0  0  0  0  0  0  0  0
   -7.9711   -2.7268  -18.9459 N   0  0  0  0  0  0  0  0  0  0  0  0
   -8.2963   -0.4520  -15.1286 N   0  0  0  0  0  0  0  0  0  0  0  0
   -7.6564    0.9888  -13.4614 O   0  0  0  0  0  0  0  0  0  0  0  0
   -9.1706   -0.6915  -13.0604 O   0  0  0  0  0  0  0  0  0  0  0  0
  -10.3035   -1.8973  -19.4651 H   0  0  0  0  0  0  0  0  0  0  0  0
  -11.7154   -1.9567  -18.4171 H   0  0  0  0  0  0  0  0  0  0  0  0
  -10.3542   -3.5431  -16.8946 H   0  0  0  0  0  0  0  0  0  0  0  0
  -10.7987   -4.1852  -18.4625 H   0  0  0  0  0  0  0  0  0  0  0  0
  -10.0159    0.0490  -18.2471 H   0  0  0  0  0  0  0  0  0  0  0  0
  -10.6706   -0.6345  -16.7711 H   0  0  0  0  0  0  0  0  0  0  0  0
   -8.1982   -3.9013  -17.2653 H   0  0  0  0  0  0  0  0  0  0  0  0
   -8.6258   -4.6924  -18.7606 H   0  0  0  0  0  0  0  0  0  0  0  0
   -7.1765   -0.7453  -18.7649 H   0  0  0  0  0  0  0  0  0  0  0  0
   -6.6254   -1.9247  -17.5973 H   0  0  0  0  0  0  0  0  0  0  0  0
   -9.4067   -2.2647  -15.3470 H   0  0  0  0  0  0  0  0  0  0  0  0
   -7.6304   -2.4223  -15.5075 H   0  0  0  0  0  0  0  0  0  0  0  0
   -6.9658    0.4234  -16.5234 H   0  0  0  0  0  0  0  0  0  0  0  0
   -8.6133    1.1146  -16.5441 H   0  0  0  0  0  0  0  0  0  0  0  0
   -9.0493    1.8429  -12.1707 H   0  0  0  0  0  0  0  0  0  0  0  0
  -10.7361    1.2801  -12.1612 H   0  0  0  0  0  0  0  0  0  0  0  0
   -9.8544    1.5417  -10.6407 H   0  0  0  0  0  0  0  0  0  0  0  0
   -9.9149   -2.2275  -11.0142 H   0  0  0  0  0  0  0  0  0  0  0  0
  -11.2320   -1.1819  -11.5154 H   0  0  0  0  0  0  0  0  0  0  0  0
  -10.4279   -0.8942   -9.9564 H   0  0  0  0  0  0  0  0  0  0  0  0
   -7.5328   -1.4194  -11.0694 H   0  0  0  0  0  0  0  0  0  0  0  0
   -7.1501    0.2443  -11.5624 H   0  0  0  0  0  0  0  0  0  0  0  0
   -7.9247   -0.0870   -9.9964 H   0  0  0  0  0  0  0  0  0  0  0  0
   -7.1817   -3.1212  -19.4469 H   0  0  0  0  0  0  0  0  0  0  0  0
  1 15  1  0  0  0  0
  1 16  2  0  0  0  0
  1 17  1  0  0  0  0
  2  3  1  0  0  0  0
  2  4  1  0  0  0  0
  3  5  1  0  0  0  0
  4  9  1  0  0  0  0
  5 14  1  0  0  0  0
  6  9  1  0  0  0  0
  6 14  1  0  0  0  0
  7  9  1  0  0  0  0
  7 15  1  0  0  0  0
  8  9  1  0  0  0  0
  8 15  1  0  0  0  0
 10 13  1  0  0  0  0
 11 13  1  0  0  0  0
 12 13  1  0  0  0  0
 13 17  1  0  0  0  0
  2 18  1  0  0  0  0
  2 19  1  0  0  0  0
  3 20  1  0  0  0  0
  3 21  1  0  0  0  0
  4 22  1  0  0  0  0
  4 23  1  0  0  0  0
  5 24  1  0  0  0  0
  5 25  1  0  0  0  0
  6 26  1  0  0  0  0
  6 27  1  0  0  0  0
  7 28  1  0  0  0  0
  7 29  1  0  0  0  0
  8 30  1  0  0  0  0
  8 31  1  0  0  0  0
 10 32  1  0  0  0  0
 10 33  1  0  0  0  0
 10 34  1  0  0  0  0
 11 35  1  0  0  0  0
 11 36  1  0  0  0  0
 11 37  1  0  0  0  0
 12 38  1  0  0  0  0
 12 39  1  0  0  0  0
 12 40  1  0  0  0  0
 14 41  1  0  0  0  0
M  END
> <id>
EN300-309490

> <smiles>
CC(C)(C)OC(=O)N1CC2(C1)CCCCNC2

> <MDLNUMBER>
MFCD14581210

> <IUPAC Name>
tert-butyl 2,6-diazaspiro[3.6]decane-2-carboxylate

> <CAS>
1251009-12-7

> <Purity>
95

> <URL>
https://www.enaminestore.com/catalog/EN300-309490

> <ROCS_ShapeQuery>
amalgated

> <ROCS_TanimotoCombo>
0.819 

> <ROCS_ShapeTanimoto>
0.593 

> <ROCS_ColorTanimoto>
0.226 

> <ROCS_RefTversky>
0.550 

> <ROCS_RefColorTversky>
0.344 

> <ROCS_RefTverskyCombo>
0.894 

> <ROCS_FitTversky>
1.153 

> <ROCS_FitColorTversky>
0.396 

> <ROCS_FitTverskyCombo>
1.549 

> <ROCS_ColorScore>
-2.394

> <ROCS_Overlap>
903.012

> <ROCS_Rank>
406                 

$$$$
untitled-dbase-7979_0
  -OEChem-10092318153D

 27 29  0     0  0  0  0  0  0999 V2000
   -7.8616   -0.4507  -17.2100 C   0  0  0  0  0  0  0  0  0  0  0  0
   -8.1442   -1.3850  -18.2081 C   0  0  0  0  0  0  0  0  0  0  0  0
   -9.4238   -2.6991  -16.6330 C   0  0  0  0  0  0  0  0  0  0  0  0
   -9.1396   -1.7627  -15.6350 C   0  0  0  0  0  0  0  0  0  0  0  0
   -8.3564   -0.6304  -15.9141 C   0  0  0  0  0  0  0  0  0  0  0  0
   -8.9229   -2.5056  -17.9200 C   0  0  0  0  0  0  0  0  0  0  0  0
   -9.6646   -1.9514  -14.2573 C   0  0  0  0  0  0  0  0  0  0  0  0
   -9.3146   -0.9140  -13.2381 C   0  0  0  0  0  0  0  0  0  0  0  0
   -8.5586    0.1334  -13.6217 C   0  0  0  0  0  0  0  0  0  0  0  0
   -9.8094   -1.0908  -11.8297 C   0  0  0  0  0  0  0  0  0  0  0  0
   -8.2069    1.2106  -12.6234 C   0  0  0  0  0  0  0  0  0  0  0  0
   -9.0556    1.1494  -11.3482 C   0  0  0  0  0  0  0  0  0  0  0  0
   -8.0836    0.2955  -14.9018 N   0  0  0  0  0  0  0  0  0  0  0  0
   -9.1414   -0.2229  -10.8527 N   0  0  0  0  0  0  0  0  0  0  0  0
  -10.3588   -2.9202  -13.9740 O   0  0  0  0  0  0  0  0  0  0  0  0
   -9.1899   -3.3984  -18.8822 F   0  0  0  0  0  0  0  0  0  0  0  0
   -7.2532    0.4173  -17.4517 H   0  0  0  0  0  0  0  0  0  0  0  0
   -7.7562   -1.2390  -19.2120 H   0  0  0  0  0  0  0  0  0  0  0  0
  -10.0284   -3.5781  -16.4289 H   0  0  0  0  0  0  0  0  0  0  0  0
  -10.8903   -0.9055  -11.8063 H   0  0  0  0  0  0  0  0  0  0  0  0
   -9.6503   -2.1269  -11.5102 H   0  0  0  0  0  0  0  0  0  0  0  0
   -7.1452    1.1093  -12.3635 H   0  0  0  0  0  0  0  0  0  0  0  0
   -8.3364    2.2004  -13.0784 H   0  0  0  0  0  0  0  0  0  0  0  0
   -8.5981    1.7845  -10.5817 H   0  0  0  0  0  0  0  0  0  0  0  0
  -10.0606    1.5487  -11.5353 H   0  0  0  0  0  0  0  0  0  0  0  0
   -7.5208    1.1098  -15.1107 H   0  0  0  0  0  0  0  0  0  0  0  0
   -9.6627   -0.2396   -9.9766 H   0  0  0  0  0  0  0  0  0  0  0  0
  1  2  1  0  0  0  0
  1  5  2  0  0  0  0
  2  6  2  0  0  0  0
  3  4  2  0  0  0  0
  3  6  1  0  0  0  0
  4  5  1  0  0  0  0
  4  7  1  0  0  0  0
  5 13  1  0  0  0  0
  6 16  1  0  0  0  0
  7  8  1  0  0  0  0
  7 15  2  0  0  0  0
  8  9  2  0  0  0  0
  8 10  1  0  0  0  0
  9 11  1  0  0  0  0
  9 13  1  0  0  0  0
 10 14  1  0  0  0  0
 11 12  1  0  0  0  0
 12 14  1  0  0  0  0
  1 17  1  0  0  0  0
  2 18  1  0  0  0  0
  3 19  1  0  0  0  0
 10 20  1  0  0  0  0
 10 21  1  0  0  0  0
 11 22  1  0  0  0  0
 11 23  1  0  0  0  0
 12 24  1  0  0  0  0
 12 25  1  0  0  0  0
 13 26  1  0  0  0  0
 14 27  1  0  0  0  0
M  END
> <id>
EN300-264871

> <smiles>
FC=1C=CC=2NC=3CCNCC3C(=O)C2C1

> <MDLNUMBER>
MFCD21086549

> <IUPAC Name>
8-fluoro-1H,2H,3H,4H,5H,10H-benzo[b]1,6-naphthyridin-10-one

> <CAS>
1338652-61-1

> <URL>
https://www.enaminestore.com/catalog/EN300-264871

> <ROCS_ShapeQuery>
amalgated

> <ROCS_TanimotoCombo>
0.819 

> <ROCS_ShapeTanimoto>
0.526 

> <ROCS_ColorTanimoto>
0.293 

> <ROCS_RefTversky>
0.509 

> <ROCS_RefColorTversky>
0.453 

> <ROCS_RefTverskyCombo>
0.963 

> <ROCS_FitTversky>
1.066 

> <ROCS_FitColorTversky>
0.453 

> <ROCS_FitTverskyCombo>
1.518 

> <ROCS_ColorScore>
-3.172

> <ROCS_Overlap>
836.791

> <ROCS_Rank>
407                 

$$$$
untitled-dbase-25546_0
  -OEChem-10092318153D

 27 29  0     0  0  0  0  0  0999 V2000
   -7.8616   -0.4507  -17.2100 C   0  0  0  0  0  0  0  0  0  0  0  0
   -8.1442   -1.3850  -18.2081 C   0  0  0  0  0  0  0  0  0  0  0  0
   -9.4238   -2.6991  -16.6330 C   0  0  0  0  0  0  0  0  0  0  0  0
   -9.1396   -1.7627  -15.6350 C   0  0  0  0  0  0  0  0  0  0  0  0
   -8.3564   -0.6304  -15.9141 C   0  0  0  0  0  0  0  0  0  0  0  0
   -8.9229   -2.5056  -17.9200 C   0  0  0  0  0  0  0  0  0  0  0  0
   -9.6646   -1.9514  -14.2573 C   0  0  0  0  0  0  0  0  0  0  0  0
   -9.3146   -0.9140  -13.2381 C   0  0  0  0  0  0  0  0  0  0  0  0
   -8.5586    0.1334  -13.6217 C   0  0  0  0  0  0  0  0  0  0  0  0
   -9.8094   -1.0908  -11.8297 C   0  0  0  0  0  0  0  0  0  0  0  0
   -8.2069    1.2106  -12.6234 C   0  0  0  0  0  0  0  0  0  0  0  0
   -9.0556    1.1494  -11.3482 C   0  0  0  0  0  0  0  0  0  0  0  0
   -8.0836    0.2955  -14.9018 N   0  0  0  0  0  0  0  0  0  0  0  0
   -9.1414   -0.2229  -10.8527 N   0  0  0  0  0  0  0  0  0  0  0  0
  -10.3588   -2.9202  -13.9740 O   0  0  0  0  0  0  0  0  0  0  0  0
   -9.1899   -3.3984  -18.8822 F   0  0  0  0  0  0  0  0  0  0  0  0
   -7.2532    0.4173  -17.4517 H   0  0  0  0  0  0  0  0  0  0  0  0
   -7.7562   -1.2390  -19.2120 H   0  0  0  0  0  0  0  0  0  0  0  0
  -10.0284   -3.5781  -16.4289 H   0  0  0  0  0  0  0  0  0  0  0  0
  -10.8903   -0.9055  -11.8063 H   0  0  0  0  0  0  0  0  0  0  0  0
   -9.6503   -2.1269  -11.5102 H   0  0  0  0  0  0  0  0  0  0  0  0
   -7.1452    1.1093  -12.3635 H   0  0  0  0  0  0  0  0  0  0  0  0
   -8.3364    2.2004  -13.0784 H   0  0  0  0  0  0  0  0  0  0  0  0
   -8.5981    1.7845  -10.5817 H   0  0  0  0  0  0  0  0  0  0  0  0
  -10.0606    1.5487  -11.5353 H   0  0  0  0  0  0  0  0  0  0  0  0
   -7.5208    1.1098  -15.1107 H   0  0  0  0  0  0  0  0  0  0  0  0
   -9.6627   -0.2396   -9.9766 H   0  0  0  0  0  0  0  0  0  0  0  0
  1  2  1  0  0  0  0
  1  5  2  0  0  0  0
  2  6  2  0  0  0  0
  3  4  2  0  0  0  0
  3  6  1  0  0  0  0
  4  5  1  0  0  0  0
  4  7  1  0  0  0  0
  5 13  1  0  0  0  0
  6 16  1  0  0  0  0
  7  8  1  0  0  0  0
  7 15  2  0  0  0  0
  8  9  2  0  0  0  0
  8 10  1  0  0  0  0
  9 11  1  0  0  0  0
  9 13  1  0  0  0  0
 10 14  1  0  0  0  0
 11 12  1  0  0  0  0
 12 14  1  0  0  0  0
  1 17  1  0  0  0  0
  2 18  1  0  0  0  0
  3 19  1  0  0  0  0
 10 20  1  0  0  0  0
 10 21  1  0  0  0  0
 11 22  1  0  0  0  0
 11 23  1  0  0  0  0
 12 24  1  0  0  0  0
 12 25  1  0  0  0  0
 13 26  1  0  0  0  0
 14 27  1  0  0  0  0
M  END
> <id>
EN300-6503943

> <smiles>
Cl.FC=1C=CC=2NC=3CCNCC3C(=O)C2C1

> <MDLNUMBER>
MFCD31719806

> <IUPAC Name>
8-fluoro-1H,2H,3H,4H,5H,10H-benzo[b]1,6-naphthyridin-10-one hydrochloride

> <CAS>
2253630-93-0

> <Purity>
95

> <URL>
https://www.enaminestore.com/catalog/EN300-6503943

> <Saltdate>
Cl

> <ROCS_ShapeQuery>
amalgated

> <ROCS_TanimotoCombo>
0.819 

> <ROCS_ShapeTanimoto>
0.526 

> <ROCS_ColorTanimoto>
0.293 

> <ROCS_RefTversky>
0.509 

> <ROCS_RefColorTversky>
0.453 

> <ROCS_RefTverskyCombo>
0.963 

> <ROCS_FitTversky>
1.066 

> <ROCS_FitColorTversky>
0.453 

> <ROCS_FitTverskyCombo>
1.518 

> <ROCS_ColorScore>
-3.172

> <ROCS_Overlap>
836.791

> <ROCS_Rank>
408                 

$$$$
untitled-dbase-25559_0
  -OEChem-10092318153D

 27 29  0     0  0  0  0  0  0999 V2000
   -7.8616   -0.4507  -17.2100 C   0  0  0  0  0  0  0  0  0  0  0  0
   -8.1442   -1.3850  -18.2081 C   0  0  0  0  0  0  0  0  0  0  0  0
   -9.4238   -2.6991  -16.6330 C   0  0  0  0  0  0  0  0  0  0  0  0
   -9.1396   -1.7627  -15.6350 C   0  0  0  0  0  0  0  0  0  0  0  0
   -8.3564   -0.6304  -15.9141 C   0  0  0  0  0  0  0  0  0  0  0  0
   -8.9229   -2.5056  -17.9200 C   0  0  0  0  0  0  0  0  0  0  0  0
   -9.6646   -1.9514  -14.2573 C   0  0  0  0  0  0  0  0  0  0  0  0
   -9.3146   -0.9140  -13.2381 C   0  0  0  0  0  0  0  0  0  0  0  0
   -8.5586    0.1334  -13.6217 C   0  0  0  0  0  0  0  0  0  0  0  0
   -9.8094   -1.0908  -11.8297 C   0  0  0  0  0  0  0  0  0  0  0  0
   -8.2069    1.2106  -12.6234 C   0  0  0  0  0  0  0  0  0  0  0  0
   -9.0556    1.1494  -11.3482 C   0  0  0  0  0  0  0  0  0  0  0  0
   -8.0836    0.2955  -14.9018 N   0  0  0  0  0  0  0  0  0  0  0  0
   -9.1414   -0.2229  -10.8527 N   0  0  0  0  0  0  0  0  0  0  0  0
  -10.3588   -2.9202  -13.9740 O   0  0  0  0  0  0  0  0  0  0  0  0
   -9.1899   -3.3984  -18.8822 F   0  0  0  0  0  0  0  0  0  0  0  0
   -7.2532    0.4173  -17.4517 H   0  0  0  0  0  0  0  0  0  0  0  0
   -7.7562   -1.2390  -19.2120 H   0  0  0  0  0  0  0  0  0  0  0  0
  -10.0284   -3.5781  -16.4289 H   0  0  0  0  0  0  0  0  0  0  0  0
  -10.8903   -0.9055  -11.8063 H   0  0  0  0  0  0  0  0  0  0  0  0
   -9.6503   -2.1269  -11.5102 H   0  0  0  0  0  0  0  0  0  0  0  0
   -7.1452    1.1093  -12.3635 H   0  0  0  0  0  0  0  0  0  0  0  0
   -8.3364    2.2004  -13.0784 H   0  0  0  0  0  0  0  0  0  0  0  0
   -8.5981    1.7845  -10.5817 H   0  0  0  0  0  0  0  0  0  0  0  0
  -10.0606    1.5487  -11.5353 H   0  0  0  0  0  0  0  0  0  0  0  0
   -7.5208    1.1098  -15.1107 H   0  0  0  0  0  0  0  0  0  0  0  0
   -9.6627   -0.2396   -9.9766 H   0  0  0  0  0  0  0  0  0  0  0  0
  1  2  1  0  0  0  0
  1  5  2  0  0  0  0
  2  6  2  0  0  0  0
  3  4  2  0  0  0  0
  3  6  1  0  0  0  0
  4  5  1  0  0  0  0
  4  7  1  0  0  0  0
  5 13  1  0  0  0  0
  6 16  1  0  0  0  0
  7  8  1  0  0  0  0
  7 15  2  0  0  0  0
  8  9  2  0  0  0  0
  8 10  1  0  0  0  0
  9 11  1  0  0  0  0
  9 13  1  0  0  0  0
 10 14  1  0  0  0  0
 11 12  1  0  0  0  0
 12 14  1  0  0  0  0
  1 17  1  0  0  0  0
  2 18  1  0  0  0  0
  3 19  1  0  0  0  0
 10 20  1  0  0  0  0
 10 21  1  0  0  0  0
 11 22  1  0  0  0  0
 11 23  1  0  0  0  0
 12 24  1  0  0  0  0
 12 25  1  0  0  0  0
 13 26  1  0  0  0  0
 14 27  1  0  0  0  0
M  END
> <id>
EN300-6504542

> <smiles>
Cl.Cl.FC=1C=CC=2NC=3CCNCC3C(=O)C2C1

> <MDLNUMBER>
MFCD31719912

> <IUPAC Name>
8-fluoro-1H,2H,3H,4H,5H,10H-benzo[b]1,6-naphthyridin-10-one dihydrochloride

> <CAS>
2253630-28-1

> <Purity>
95

> <URL>
https://www.enaminestore.com/catalog/EN300-6504542

> <Saltdate>
Cl

> <ROCS_ShapeQuery>
amalgated

> <ROCS_TanimotoCombo>
0.819 

> <ROCS_ShapeTanimoto>
0.526 

> <ROCS_ColorTanimoto>
0.293 

> <ROCS_RefTversky>
0.509 

> <ROCS_RefColorTversky>
0.453 

> <ROCS_RefTverskyCombo>
0.963 

> <ROCS_FitTversky>
1.066 

> <ROCS_FitColorTversky>
0.453 

> <ROCS_FitTverskyCombo>
1.518 

> <ROCS_ColorScore>
-3.172

> <ROCS_Overlap>
836.791

> <ROCS_Rank>
409                 

$$$$
untitled-dbase-16984_0
  -OEChem-10092318153D

 37 39  0     1  0  0  0  0  0999 V2000
   -7.7610    0.3452  -19.1242 C   0  0  0  0  0  0  0  0  0  0  0  0
   -7.0888    1.5268  -18.8270 C   0  0  0  0  0  0  0  0  0  0  0  0
   -7.2503    1.0031  -16.4802 C   0  0  0  0  0  0  0  0  0  0  0  0
   -8.1858   -0.5285  -18.1028 C   0  0  0  0  0  0  0  0  0  0  0  0
   -7.9143   -0.2113  -16.7515 C   0  0  0  0  0  0  0  0  0  0  0  0
   -6.8364    1.8574  -17.5035 C   0  0  0  0  0  0  0  0  0  0  0  0
   -8.0385   -1.0408  -13.1673 C   0  0  0  0  0  0  0  0  0  0  0  0
   -9.0379    0.0432  -13.5177 C   0  0  0  0  0  0  0  0  0  0  0  0
   -9.7133   -2.3890  -17.3529 C   0  0  0  0  0  0  0  0  0  0  0  0
   -7.3271   -1.3190  -14.4861 C   0  0  0  0  0  0  0  0  0  0  0  0
   -9.5845   -0.4060  -14.8671 C   0  0  0  0  0  0  0  0  0  0  0  0
   -8.8426   -2.4995  -16.1077 C   0  0  0  0  0  0  0  0  0  0  0  0
   -8.9116   -1.7947  -18.5143 C   0  0  2  0  0  0  0  0  0  0  0  0
   -8.3978   -1.1046  -15.5995 C   0  0  0  0  0  0  0  0  0  0  0  0
   -6.1306    3.1290  -17.1731 C   0  0  0  0  0  0  0  0  0  0  0  0
   -7.9641   -2.7891  -19.0324 N   0  0  0  0  0  0  0  0  0  0  0  0
   -7.9596    0.1034  -20.1663 H   0  0  0  0  0  0  0  0  0  0  0  0
   -6.7739    2.1830  -19.6334 H   0  0  0  0  0  0  0  0  0  0  0  0
   -7.0577    1.3044  -15.4531 H   0  0  0  0  0  0  0  0  0  0  0  0
   -7.3448   -0.7293  -12.3809 H   0  0  0  0  0  0  0  0  0  0  0  0
   -8.5606   -1.9418  -12.8239 H   0  0  0  0  0  0  0  0  0  0  0  0
   -9.8265    0.1385  -12.7656 H   0  0  0  0  0  0  0  0  0  0  0  0
   -8.5379    1.0138  -13.6069 H   0  0  0  0  0  0  0  0  0  0  0  0
  -10.1067   -3.3770  -17.6224 H   0  0  0  0  0  0  0  0  0  0  0  0
  -10.5869   -1.7586  -17.1438 H   0  0  0  0  0  0  0  0  0  0  0  0
   -6.4712   -0.6430  -14.5830 H   0  0  0  0  0  0  0  0  0  0  0  0
   -6.9074   -2.3314  -14.4856 H   0  0  0  0  0  0  0  0  0  0  0  0
  -10.4060   -1.1110  -14.6878 H   0  0  0  0  0  0  0  0  0  0  0  0
  -10.0101    0.4383  -15.4210 H   0  0  0  0  0  0  0  0  0  0  0  0
   -9.3884   -3.0386  -15.3229 H   0  0  0  0  0  0  0  0  0  0  0  0
   -7.9635   -3.1156  -16.3389 H   0  0  0  0  0  0  0  0  0  0  0  0
   -9.6240   -1.5521  -19.3133 H   0  0  0  0  0  0  0  0  0  0  0  0
   -6.8533    3.9430  -17.0382 H   0  0  0  0  0  0  0  0  0  0  0  0
   -5.5418    3.0302  -16.2519 H   0  0  0  0  0  0  0  0  0  0  0  0
   -5.4298    3.4141  -17.9687 H   0  0  0  0  0  0  0  0  0  0  0  0
   -8.4813   -3.5898  -19.3004 H   0  0  0  0  0  0  0  0  0  0  0  0
   -7.4998   -2.3883  -19.8098 H   0  0  0  0  0  0  0  0  0  0  0  0
  1  2  1  0  0  0  0
  1  4  2  0  0  0  0
  2  6  2  0  0  0  0
  3  5  2  0  0  0  0
  3  6  1  0  0  0  0
  4  5  1  0  0  0  0
  4 13  1  0  0  0  0
  5 14  1  0  0  0  0
  6 15  1  0  0  0  0
  7  8  1  0  0  0  0
  7 10  1  0  0  0  0
  8 11  1  0  0  0  0
  9 12  1  0  0  0  0
  9 13  1  0  0  0  0
 10 14  1  0  0  0  0
 11 14  1  0  0  0  0
 12 14  1  0  0  0  0
 13 16  1  0  0  0  0
  1 17  1  0  0  0  0
  2 18  1  0  0  0  0
  3 19  1  0  0  0  0
  7 20  1  0  0  0  0
  7 21  1  0  0  0  0
  8 22  1  0  0  0  0
  8 23  1  0  0  0  0
  9 24  1  0  0  0  0
  9 25  1  0  0  0  0
 10 26  1  0  0  0  0
 10 27  1  0  0  0  0
 11 28  1  0  0  0  0
 11 29  1  0  0  0  0
 12 30  1  0  0  0  0
 12 31  1  0  0  0  0
 13 32  1  0  0  0  0
 15 33  1  0  0  0  0
 15 34  1  0  0  0  0
 15 35  1  0  0  0  0
 16 36  1  0  0  0  0
 16 37  1  0  0  0  0
M  END
> <id>
EN300-1458074

> <smiles>
CC=1C=CC=2C(N)CCC3(CCCC3)C2C1

> <IUPAC Name>
7'-methyl-3',4'-dihydro-2'H-spiro[cyclopentane-1,1'-naphthalene]-4'-amine

> <CAS>
2166867-07-6

> <URL>
https://www.enaminestore.com/catalog/EN300-1458074

> <ROCS_ShapeQuery>
amalgated

> <ROCS_TanimotoCombo>
0.819 

> <ROCS_ShapeTanimoto>
0.483 

> <ROCS_ColorTanimoto>
0.336 

> <ROCS_RefTversky>
0.475 

> <ROCS_RefColorTversky>
0.437 

> <ROCS_RefTverskyCombo>
0.913 

> <ROCS_FitTversky>
1.032 

> <ROCS_FitColorTversky>
0.591 

> <ROCS_FitTverskyCombo>
1.624 

> <ROCS_ColorScore>
-3.019

> <ROCS_Overlap>
780.251

> <ROCS_Rank>
410                 

$$$$
untitled-dbase-27786_17
  -OEChem-10092318153D

 38 39  0     0  0  0  0  0  0999 V2000
   -8.5617   -0.9564  -16.4519 C   0  0  0  0  0  0  0  0  0  0  0  0
   -8.9050   -2.2500  -16.3796 C   0  0  0  0  0  0  0  0  0  0  0  0
   -8.0231   -0.4934  -17.7603 C   0  0  0  0  0  0  0  0  0  0  0  0
   -8.7149   -3.1353  -17.5575 C   0  0  0  0  0  0  0  0  0  0  0  0
   -8.6575   -0.2272  -12.7873 C   0  0  0  0  0  0  0  0  0  0  0  0
   -9.4953   -2.8502  -15.1349 C   0  0  0  0  0  0  0  0  0  0  0  0
   -8.6778    0.0008  -15.2996 C   0  0  0  0  0  0  0  0  0  0  0  0
  -10.0023   -1.7846  -14.1672 C   0  0  0  0  0  0  0  0  0  0  0  0
  -10.7290    0.7332  -11.4939 C   0  0  0  0  0  0  0  0  0  0  0  0
  -10.9297   -1.4574  -10.2812 C   0  0  0  0  0  0  0  0  0  0  0  0
   -9.0922    0.1440   -9.6750 C   0  0  0  0  0  0  0  0  0  0  0  0
   -7.6412    0.9628  -17.9042 C   0  0  0  0  0  0  0  0  0  0  0  0
   -9.9643   -0.3973  -10.8070 C   0  0  0  0  0  0  0  0  0  0  0  0
   -7.8494   -1.2471  -18.7982 N   0  0  0  0  0  0  0  0  0  0  0  0
   -8.1919   -2.5477  -18.6830 N   0  0  0  0  0  0  0  0  0  0  0  0
   -9.0499   -0.6826  -14.0518 N   0  0  0  0  0  0  0  0  0  0  0  0
   -9.0115   -4.3277  -17.5058 O   0  0  0  0  0  0  0  0  0  0  0  0
   -7.9723    0.7751  -12.5922 O   0  0  0  0  0  0  0  0  0  0  0  0
   -9.1165   -1.0275  -11.7742 O   0  0  0  0  0  0  0  0  0  0  0  0
   -7.8693    1.6218  -16.7560 F   0  0  0  0  0  0  0  0  0  0  0  0
   -6.3381    1.0784  -18.2095 F   0  0  0  0  0  0  0  0  0  0  0  0
   -8.3595    1.5450  -18.8789 F   0  0  0  0  0  0  0  0  0  0  0  0
  -10.3324   -3.5108  -15.3895 H   0  0  0  0  0  0  0  0  0  0  0  0
   -8.7316   -3.4642  -14.6420 H   0  0  0  0  0  0  0  0  0  0  0  0
   -7.7305    0.5278  -15.1531 H   0  0  0  0  0  0  0  0  0  0  0  0
   -9.4581    0.7436  -15.4997 H   0  0  0  0  0  0  0  0  0  0  0  0
  -10.9454   -1.3556  -14.5287 H   0  0  0  0  0  0  0  0  0  0  0  0
  -10.2061   -2.2343  -13.1901 H   0  0  0  0  0  0  0  0  0  0  0  0
  -10.0396    1.4961  -11.8727 H   0  0  0  0  0  0  0  0  0  0  0  0
  -11.3313    0.3629  -12.3299 H   0  0  0  0  0  0  0  0  0  0  0  0
  -11.3942    1.2415  -10.7865 H   0  0  0  0  0  0  0  0  0  0  0  0
  -10.3853   -2.2704   -9.7876 H   0  0  0  0  0  0  0  0  0  0  0  0
  -11.4909   -1.9162  -11.1033 H   0  0  0  0  0  0  0  0  0  0  0  0
  -11.6439   -1.0348   -9.5672 H   0  0  0  0  0  0  0  0  0  0  0  0
   -8.5436   -0.6667   -9.1821 H   0  0  0  0  0  0  0  0  0  0  0  0
   -8.3680    0.8793  -10.0402 H   0  0  0  0  0  0  0  0  0  0  0  0
   -9.7077    0.6162   -8.9007 H   0  0  0  0  0  0  0  0  0  0  0  0
   -8.0512   -3.1401  -19.4951 H   0  0  0  0  0  0  0  0  0  0  0  0
  1  2  2  0  0  0  0
  1  3  1  0  0  0  0
  1  7  1  0  0  0  0
  2  4  1  0  0  0  0
  2  6  1  0  0  0  0
  3 12  1  0  0  0  0
  3 14  2  0  0  0  0
  4 15  1  0  0  0  0
  4 17  2  0  0  0  0
  5 16  1  0  0  0  0
  5 18  2  0  0  0  0
  5 19  1  0  0  0  0
  6  8  1  0  0  0  0
  7 16  1  0  0  0  0
  8 16  1  0  0  0  0
  9 13  1  0  0  0  0
 10 13  1  0  0  0  0
 11 13  1  0  0  0  0
 12 20  1  0  0  0  0
 12 21  1  0  0  0  0
 12 22  1  0  0  0  0
 13 19  1  0  0  0  0
 14 15  1  0  0  0  0
  6 23  1  0  0  0  0
  6 24  1  0  0  0  0
  7 25  1  0  0  0  0
  7 26  1  0  0  0  0
  8 27  1  0  0  0  0
  8 28  1  0  0  0  0
  9 29  1  0  0  0  0
  9 30  1  0  0  0  0
  9 31  1  0  0  0  0
 10 32  1  0  0  0  0
 10 33  1  0  0  0  0
 10 34  1  0  0  0  0
 11 35  1  0  0  0  0
 11 36  1  0  0  0  0
 11 37  1  0  0  0  0
 15 38  1  0  0  0  0
M  END
> <id>
EN300-7437716

> <smiles>
CC(C)(C)OC(=O)N1CCC2=C(C1)C(=NNC2=O)C(F)(F)F

> <MDLNUMBER>
MFCD32198281

> <IUPAC Name>
tert-butyl 1-oxo-4-(trifluoromethyl)-1H,2H,5H,6H,7H,8H-pyrido[3,4-d]pyridazine-6-carboxylate

> <CAS>
2375269-69-3

> <Purity>
95

> <URL>
https://www.enaminestore.com/catalog/EN300-7437716

> <ROCS_ShapeQuery>
amalgated

> <ROCS_TanimotoCombo>
0.819 

> <ROCS_ShapeTanimoto>
0.688 

> <ROCS_ColorTanimoto>
0.131 

> <ROCS_RefTversky>
0.664 

> <ROCS_RefColorTversky>
0.231 

> <ROCS_RefTverskyCombo>
0.895 

> <ROCS_FitTversky>
1.055 

> <ROCS_FitColorTversky>
0.231 

> <ROCS_FitTverskyCombo>
1.286 

> <ROCS_ColorScore>
-1.618

> <ROCS_Overlap>
1099.624

> <ROCS_Rank>
411                 

$$$$
untitled-dbase-44577_44
  -OEChem-10092318153D

 41 42  0     1  0  0  0  0  0999 V2000
   -8.2165   -0.5019  -13.6498 C   0  0  0  0  0  0  0  0  0  0  0  0
   -9.7170   -0.6999  -17.6341 C   0  0  0  0  0  0  0  0  0  0  0  0
   -7.2063   -1.1132  -17.4056 C   0  0  0  0  0  0  0  0  0  0  0  0
   -8.8578   -2.9272  -16.7245 C   0  0  0  0  0  0  0  0  0  0  0  0
   -8.4244    0.5275  -15.8977 C   0  0  0  0  0  0  0  0  0  0  0  0
  -10.0438   -1.2538  -15.2274 C   0  0  0  0  0  0  0  0  0  0  0  0
   -8.3553   -0.0808  -17.3119 C   0  0  2  0  0  0  0  0  0  0  0  0
   -9.9616   -1.8451  -16.6491 C   0  0  1  0  0  0  0  0  0  0  0  0
   -7.6534   -2.5697  -17.6105 C   0  0  0  0  0  0  0  0  0  0  0  0
  -10.4281   -0.0472  -11.8913 C   0  0  0  0  0  0  0  0  0  0  0  0
   -9.8049   -2.2420  -10.8405 C   0  0  0  0  0  0  0  0  0  0  0  0
   -8.1833   -0.3248  -10.7875 C   0  0  0  0  0  0  0  0  0  0  0  0
   -9.2858   -1.0159  -11.5885 C   0  0  0  0  0  0  0  0  0  0  0  0
   -8.8535   -0.4544  -14.8948 N   0  0  0  0  0  0  0  0  0  0  0  0
   -7.9643   -2.8167  -19.0222 N   0  0  0  0  0  0  0  0  0  0  0  0
   -7.2934    0.2386  -13.3154 O   0  0  0  0  0  0  0  0  0  0  0  0
   -8.7321   -1.4697  -12.8289 O   0  0  0  0  0  0  0  0  0  0  0  0
  -10.5070    0.0522  -17.5460 H   0  0  0  0  0  0  0  0  0  0  0  0
   -9.7355   -1.0698  -18.6636 H   0  0  0  0  0  0  0  0  0  0  0  0
   -6.5551   -0.8095  -18.2446 H   0  0  0  0  0  0  0  0  0  0  0  0
   -6.5750   -1.0422  -16.5033 H   0  0  0  0  0  0  0  0  0  0  0  0
   -8.5108   -3.1691  -15.7051 H   0  0  0  0  0  0  0  0  0  0  0  0
   -9.3261   -3.8541  -17.1022 H   0  0  0  0  0  0  0  0  0  0  0  0
   -7.4643    0.9553  -15.6231 H   0  0  0  0  0  0  0  0  0  0  0  0
   -9.1651    1.3259  -15.8806 H   0  0  0  0  0  0  0  0  0  0  0  0
  -10.8936   -0.5760  -15.1621 H   0  0  0  0  0  0  0  0  0  0  0  0
  -10.1911   -2.0503  -14.5049 H   0  0  0  0  0  0  0  0  0  0  0  0
   -8.1463    0.7312  -18.0082 H   0  0  0  0  0  0  0  0  0  0  0  0
  -10.9209   -2.3159  -16.8640 H   0  0  0  0  0  0  0  0  0  0  0  0
   -6.8207   -3.2349  -17.3619 H   0  0  0  0  0  0  0  0  0  0  0  0
  -10.0595    0.8342  -12.4281 H   0  0  0  0  0  0  0  0  0  0  0  0
  -11.2091   -0.5207  -12.4950 H   0  0  0  0  0  0  0  0  0  0  0  0
  -10.8830    0.3226  -10.9653 H   0  0  0  0  0  0  0  0  0  0  0  0
   -8.9887   -2.9397  -10.6211 H   0  0  0  0  0  0  0  0  0  0  0  0
  -10.5277   -2.7948  -11.4514 H   0  0  0  0  0  0  0  0  0  0  0  0
  -10.2876   -1.9656   -9.8975 H   0  0  0  0  0  0  0  0  0  0  0  0
   -7.3638   -1.0194  -10.5701 H   0  0  0  0  0  0  0  0  0  0  0  0
   -7.7731    0.5361  -11.3254 H   0  0  0  0  0  0  0  0  0  0  0  0
   -8.5627    0.0187   -9.8183 H   0  0  0  0  0  0  0  0  0  0  0  0
   -7.1549   -2.6085  -19.5549 H   0  0  0  0  0  0  0  0  0  0  0  0
   -8.2150   -3.7709  -19.1174 H   0  0  0  0  0  0  0  0  0  0  0  0
  1 14  1  0  0  0  0
  1 16  2  0  0  0  0
  1 17  1  0  0  0  0
  2  7  1  0  0  0  0
  2  8  1  0  0  0  0
  3  7  1  0  0  0  0
  3  9  1  0  0  0  0
  4  8  1  0  0  0  0
  4  9  1  0  0  0  0
  5  7  1  0  0  0  0
  5 14  1  0  0  0  0
  6  8  1  0  0  0  0
  6 14  1  0  0  0  0
  9 15  1  0  0  0  0
 10 13  1  0  0  0  0
 11 13  1  0  0  0  0
 12 13  1  0  0  0  0
 13 17  1  0  0  0  0
  2 18  1  0  0  0  0
  2 19  1  0  0  0  0
  3 20  1  0  0  0  0
  3 21  1  0  0  0  0
  4 22  1  0  0  0  0
  4 23  1  0  0  0  0
  5 24  1  0  0  0  0
  5 25  1  0  0  0  0
  6 26  1  0  0  0  0
  6 27  1  0  0  0  0
  7 28  1  0  0  0  0
  8 29  1  0  0  0  0
  9 30  1  0  0  0  0
 10 31  1  0  0  0  0
 10 32  1  0  0  0  0
 10 33  1  0  0  0  0
 11 34  1  0  0  0  0
 11 35  1  0  0  0  0
 11 36  1  0  0  0  0
 12 37  1  0  0  0  0
 12 38  1  0  0  0  0
 12 39  1  0  0  0  0
 15 40  1  0  0  0  0
 15 41  1  0  0  0  0
M  END
> <id>
EN300-7006954

> <smiles>
CC(C)(C)OC(=O)N1CC2CC(N)CC(C2)C1

> <MDLNUMBER>
MFCD30749655

> <IUPAC Name>
tert-butyl 7-amino-3-azabicyclo[3.3.1]nonane-3-carboxylate

> <CAS>
1529601-51-1

> <URL>
https://www.enaminestore.com/catalog/EN300-7006954

> <ROCS_ShapeQuery>
amalgated

> <ROCS_TanimotoCombo>
0.818 

> <ROCS_ShapeTanimoto>
0.515 

> <ROCS_ColorTanimoto>
0.304 

> <ROCS_RefTversky>
0.503 

> <ROCS_RefColorTversky>
0.445 

> <ROCS_RefTverskyCombo>
0.948 

> <ROCS_FitTversky>
1.050 

> <ROCS_FitColorTversky>
0.488 

> <ROCS_FitTverskyCombo>
1.539 

> <ROCS_ColorScore>
-3.100

> <ROCS_Overlap>
825.403

> <ROCS_Rank>
412                 

$$$$
untitled-dbase-43628_44
  -OEChem-10092318153D

 41 42  0     1  0  0  0  0  0999 V2000
   -8.2165   -0.5019  -13.6498 C   0  0  0  0  0  0  0  0  0  0  0  0
   -9.7170   -0.6999  -17.6341 C   0  0  0  0  0  0  0  0  0  0  0  0
   -7.2063   -1.1132  -17.4056 C   0  0  0  0  0  0  0  0  0  0  0  0
   -8.8578   -2.9272  -16.7245 C   0  0  0  0  0  0  0  0  0  0  0  0
   -8.4244    0.5275  -15.8977 C   0  0  0  0  0  0  0  0  0  0  0  0
  -10.0438   -1.2538  -15.2274 C   0  0  0  0  0  0  0  0  0  0  0  0
   -8.3553   -0.0808  -17.3119 C   0  0  2  0  0  0  0  0  0  0  0  0
   -9.9616   -1.8451  -16.6491 C   0  0  1  0  0  0  0  0  0  0  0  0
   -7.6534   -2.5697  -17.6105 C   0  0  0  0  0  0  0  0  0  0  0  0
  -10.4281   -0.0472  -11.8913 C   0  0  0  0  0  0  0  0  0  0  0  0
   -9.8049   -2.2420  -10.8405 C   0  0  0  0  0  0  0  0  0  0  0  0
   -8.1833   -0.3248  -10.7875 C   0  0  0  0  0  0  0  0  0  0  0  0
   -9.2858   -1.0159  -11.5885 C   0  0  0  0  0  0  0  0  0  0  0  0
   -8.8535   -0.4544  -14.8948 N   0  0  0  0  0  0  0  0  0  0  0  0
   -7.9643   -2.8167  -19.0222 N   0  0  0  0  0  0  0  0  0  0  0  0
   -7.2934    0.2386  -13.3154 O   0  0  0  0  0  0  0  0  0  0  0  0
   -8.7321   -1.4697  -12.8289 O   0  0  0  0  0  0  0  0  0  0  0  0
  -10.5070    0.0522  -17.5460 H   0  0  0  0  0  0  0  0  0  0  0  0
   -9.7355   -1.0698  -18.6636 H   0  0  0  0  0  0  0  0  0  0  0  0
   -6.5551   -0.8095  -18.2446 H   0  0  0  0  0  0  0  0  0  0  0  0
   -6.5750   -1.0422  -16.5033 H   0  0  0  0  0  0  0  0  0  0  0  0
   -8.5108   -3.1691  -15.7051 H   0  0  0  0  0  0  0  0  0  0  0  0
   -9.3261   -3.8541  -17.1022 H   0  0  0  0  0  0  0  0  0  0  0  0
   -7.4643    0.9553  -15.6231 H   0  0  0  0  0  0  0  0  0  0  0  0
   -9.1651    1.3259  -15.8806 H   0  0  0  0  0  0  0  0  0  0  0  0
  -10.8936   -0.5760  -15.1621 H   0  0  0  0  0  0  0  0  0  0  0  0
  -10.1911   -2.0503  -14.5049 H   0  0  0  0  0  0  0  0  0  0  0  0
   -8.1463    0.7312  -18.0082 H   0  0  0  0  0  0  0  0  0  0  0  0
  -10.9209   -2.3159  -16.8640 H   0  0  0  0  0  0  0  0  0  0  0  0
   -6.8207   -3.2349  -17.3619 H   0  0  0  0  0  0  0  0  0  0  0  0
  -10.0595    0.8342  -12.4281 H   0  0  0  0  0  0  0  0  0  0  0  0
  -11.2091   -0.5207  -12.4950 H   0  0  0  0  0  0  0  0  0  0  0  0
  -10.8830    0.3226  -10.9653 H   0  0  0  0  0  0  0  0  0  0  0  0
   -8.9887   -2.9397  -10.6211 H   0  0  0  0  0  0  0  0  0  0  0  0
  -10.5277   -2.7948  -11.4514 H   0  0  0  0  0  0  0  0  0  0  0  0
  -10.2876   -1.9656   -9.8975 H   0  0  0  0  0  0  0  0  0  0  0  0
   -7.3638   -1.0194  -10.5701 H   0  0  0  0  0  0  0  0  0  0  0  0
   -7.7731    0.5361  -11.3254 H   0  0  0  0  0  0  0  0  0  0  0  0
   -8.5627    0.0187   -9.8183 H   0  0  0  0  0  0  0  0  0  0  0  0
   -7.1549   -2.6085  -19.5549 H   0  0  0  0  0  0  0  0  0  0  0  0
   -8.2150   -3.7709  -19.1174 H   0  0  0  0  0  0  0  0  0  0  0  0
  1 14  1  0  0  0  0
  1 16  2  0  0  0  0
  1 17  1  0  0  0  0
  2  7  1  0  0  0  0
  2  8  1  0  0  0  0
  3  7  1  0  0  0  0
  3  9  1  0  0  0  0
  4  8  1  0  0  0  0
  4  9  1  0  0  0  0
  5  7  1  0  0  0  0
  5 14  1  0  0  0  0
  6  8  1  0  0  0  0
  6 14  1  0  0  0  0
  9 15  1  0  0  0  0
 10 13  1  0  0  0  0
 11 13  1  0  0  0  0
 12 13  1  0  0  0  0
 13 17  1  0  0  0  0
  2 18  1  0  0  0  0
  2 19  1  0  0  0  0
  3 20  1  0  0  0  0
  3 21  1  0  0  0  0
  4 22  1  0  0  0  0
  4 23  1  0  0  0  0
  5 24  1  0  0  0  0
  5 25  1  0  0  0  0
  6 26  1  0  0  0  0
  6 27  1  0  0  0  0
  7 28  1  0  0  0  0
  8 29  1  0  0  0  0
  9 30  1  0  0  0  0
 10 31  1  0  0  0  0
 10 32  1  0  0  0  0
 10 33  1  0  0  0  0
 11 34  1  0  0  0  0
 11 35  1  0  0  0  0
 11 36  1  0  0  0  0
 12 37  1  0  0  0  0
 12 38  1  0  0  0  0
 12 39  1  0  0  0  0
 15 40  1  0  0  0  0
 15 41  1  0  0  0  0
M  END
> <id>
EN300-28220726

> <smiles>
Cl.CC(C)(C)OC(=O)N1CC2CC(N)CC(C2)C1

> <IUPAC Name>
tert-butyl 7-amino-3-azabicyclo[3.3.1]nonane-3-carboxylate hydrochloride

> <CAS>
2648966-15-6

> <URL>
https://www.enaminestore.com/catalog/EN300-28220726

> <ROCS_ShapeQuery>
amalgated

> <ROCS_TanimotoCombo>
0.818 

> <ROCS_ShapeTanimoto>
0.515 

> <ROCS_ColorTanimoto>
0.304 

> <ROCS_RefTversky>
0.503 

> <ROCS_RefColorTversky>
0.445 

> <ROCS_RefTverskyCombo>
0.948 

> <ROCS_FitTversky>
1.050 

> <ROCS_FitColorTversky>
0.488 

> <ROCS_FitTverskyCombo>
1.539 

> <ROCS_ColorScore>
-3.100

> <ROCS_Overlap>
825.403

> <ROCS_Rank>
413                 

$$$$
untitled-dbase-32135_20
  -OEChem-10092318153D

 38 39  0     1  0  0  0  0  0999 V2000
   -9.4639   -1.1875  -14.5210 C   0  0  0  0  0  0  0  0  0  0  0  0
   -7.7868   -0.1014  -17.5192 C   0  0  0  0  0  0  0  0  0  0  0  0
   -9.2662   -0.1749  -17.9537 C   0  0  0  0  0  0  0  0  0  0  0  0
   -7.3416   -2.5064  -16.7482 C   0  0  0  0  0  0  0  0  0  0  0  0
   -7.6756   -1.0600  -16.3276 C   0  0  2  0  0  0  0  0  0  0  0  0
   -9.9064   -1.1805  -16.9935 C   0  0  1  0  0  0  0  0  0  0  0  0
   -8.3583   -3.1218  -17.7470 C   0  0  1  0  0  0  0  0  0  0  0  0
   -9.8060   -2.6327  -17.4984 C   0  0  1  0  0  0  0  0  0  0  0  0
   -9.8349   -1.2124  -11.6871 C   0  0  0  0  0  0  0  0  0  0  0  0
   -7.9516    0.4480  -11.6117 C   0  0  0  0  0  0  0  0  0  0  0  0
  -10.0813    1.0261  -12.8110 C   0  0  0  0  0  0  0  0  0  0  0  0
   -9.1129   -0.0964  -12.4407 C   0  0  0  0  0  0  0  0  0  0  0  0
   -9.0416   -1.0817  -15.8318 N   0  0  0  0  0  0  0  0  0  0  0  0
   -7.9533   -2.8275  -19.1239 N   0  0  0  0  0  0  0  0  0  0  0  0
  -10.5206   -1.7110  -14.1758 O   0  0  0  0  0  0  0  0  0  0  0  0
   -8.5643   -0.6414  -13.6460 O   0  0  0  0  0  0  0  0  0  0  0  0
  -10.3533   -3.4392  -16.5371 F   0  0  0  0  0  0  0  0  0  0  0  0
   -7.0910   -0.3338  -18.3297 H   0  0  0  0  0  0  0  0  0  0  0  0
   -7.5668    0.9227  -17.1930 H   0  0  0  0  0  0  0  0  0  0  0  0
   -9.7237    0.8130  -17.8189 H   0  0  0  0  0  0  0  0  0  0  0  0
   -9.3864   -0.4437  -19.0068 H   0  0  0  0  0  0  0  0  0  0  0  0
   -6.3255   -2.5498  -17.1603 H   0  0  0  0  0  0  0  0  0  0  0  0
   -7.3248   -3.1329  -15.8457 H   0  0  0  0  0  0  0  0  0  0  0  0
   -6.9663   -0.7051  -15.5744 H   0  0  0  0  0  0  0  0  0  0  0  0
  -10.9408   -0.9335  -16.7360 H   0  0  0  0  0  0  0  0  0  0  0  0
   -8.3275   -4.1869  -17.6432 H   0  0  0  0  0  0  0  0  0  0  0  0
  -10.4231   -2.7654  -18.3931 H   0  0  0  0  0  0  0  0  0  0  0  0
  -10.6692   -1.6058  -12.2788 H   0  0  0  0  0  0  0  0  0  0  0  0
   -9.1590   -2.0394  -11.4463 H   0  0  0  0  0  0  0  0  0  0  0  0
  -10.2685   -0.8366  -10.7532 H   0  0  0  0  0  0  0  0  0  0  0  0
   -7.4307    1.2490  -12.1486 H   0  0  0  0  0  0  0  0  0  0  0  0
   -7.2062   -0.3333  -11.4239 H   0  0  0  0  0  0  0  0  0  0  0  0
   -8.2923    0.8409  -10.6483 H   0  0  0  0  0  0  0  0  0  0  0  0
   -9.5637    1.8267  -13.3516 H   0  0  0  0  0  0  0  0  0  0  0  0
  -10.9017    0.6607  -13.4371 H   0  0  0  0  0  0  0  0  0  0  0  0
  -10.5074    1.4855  -11.9118 H   0  0  0  0  0  0  0  0  0  0  0  0
   -7.0366   -3.1813  -19.2573 H   0  0  0  0  0  0  0  0  0  0  0  0
   -8.5955   -3.2722  -19.7347 H   0  0  0  0  0  0  0  0  0  0  0  0
  1 13  1  0  0  0  0
  1 15  2  0  0  0  0
  1 16  1  0  0  0  0
  2  3  1  0  0  0  0
  2  5  1  6  0  0  0
  3  6  1  6  0  0  0
  4  5  1  0  0  0  0
  4  7  1  0  0  0  0
  5 13  1  0  0  0  0
  6  8  1  0  0  0  0
  6 13  1  0  0  0  0
  7  8  1  0  0  0  0
  7 14  1  6  0  0  0
  8 17  1  1  0  0  0
  9 12  1  0  0  0  0
 10 12  1  0  0  0  0
 11 12  1  0  0  0  0
 12 16  1  0  0  0  0
  2 18  1  0  0  0  0
  2 19  1  0  0  0  0
  3 20  1  0  0  0  0
  3 21  1  0  0  0  0
  4 22  1  0  0  0  0
  4 23  1  0  0  0  0
  5 24  1  0  0  0  0
  6 25  1  0  0  0  0
  7 26  1  0  0  0  0
  8 27  1  0  0  0  0
  9 28  1  0  0  0  0
  9 29  1  0  0  0  0
  9 30  1  0  0  0  0
 10 31  1  0  0  0  0
 10 32  1  0  0  0  0
 10 33  1  0  0  0  0
 11 34  1  0  0  0  0
 11 35  1  0  0  0  0
 11 36  1  0  0  0  0
 14 37  1  0  0  0  0
 14 38  1  0  0  0  0
M  END
> <id>
EN300-26976670

> <smiles>
CC(C)(C)OC(=O)N1[C@@H]2CC[C@H]1[C@H](F)[C@@H](N)C2 |&1:8,11,12,14,r|

> <IUPAC Name>
rac-tert-butyl (1R,2S,3R,5S)-3-amino-2-fluoro-8-azabicyclo[3.2.1]octane-8-carboxylate

> <CAS>
2375918-49-1

> <Purity>
95

> <URL>
https://www.enaminestore.com/catalog/EN300-26976670

> <ROCS_ShapeQuery>
amalgated

> <ROCS_TanimotoCombo>
0.818 

> <ROCS_ShapeTanimoto>
0.488 

> <ROCS_ColorTanimoto>
0.330 

> <ROCS_RefTversky>
0.488 

> <ROCS_RefColorTversky>
0.584 

> <ROCS_RefTverskyCombo>
1.072 

> <ROCS_FitTversky>
1.000 

> <ROCS_FitColorTversky>
0.432 

> <ROCS_FitTverskyCombo>
1.432 

> <ROCS_ColorScore>
-4.172

> <ROCS_Overlap>
802.100

> <ROCS_Rank>
414                 

$$$$
untitled-dbase-23262_115
  -OEChem-10092318153D

 48 51  0     1  0  0  0  0  0999 V2000
   -7.9859    0.3010  -10.7450 C   0  0  0  0  0  0  0  0  0  0  0  0
   -9.2965   -0.1270  -10.5417 C   0  0  0  0  0  0  0  0  0  0  0  0
   -7.6055    0.8387  -11.9758 C   0  0  0  0  0  0  0  0  0  0  0  0
  -10.2299   -0.0290  -11.5721 C   0  0  0  0  0  0  0  0  0  0  0  0
   -8.5362    0.9384  -13.0185 C   0  0  0  0  0  0  0  0  0  0  0  0
   -9.8476    0.4852  -12.8162 C   0  0  0  0  0  0  0  0  0  0  0  0
   -8.9813   -1.5513  -15.5003 C   0  0  0  0  0  0  0  0  0  0  0  0
  -10.1730   -0.9436  -15.5823 C   0  0  0  0  0  0  0  0  0  0  0  0
   -8.1255    1.5844  -14.2903 C   0  0  0  0  0  0  0  0  0  0  0  0
   -8.6123    0.3389  -18.0828 C   0  0  0  0  0  0  0  0  0  0  0  0
   -7.9159   -1.7292  -16.5389 C   0  0  0  0  0  0  0  0  0  0  0  0
  -11.0487   -0.7378  -14.3835 C   0  0  0  0  0  0  0  0  0  0  0  0
   -5.9572    2.2010  -18.3239 C   0  0  0  0  0  0  0  0  0  0  0  0
   -7.4509    2.5689  -18.3804 C   0  0  0  0  0  0  0  0  0  0  0  0
   -6.1824    1.9325  -15.8056 C   0  0  0  0  0  0  0  0  0  0  0  0
   -9.1557   -2.1697  -18.7663 C   0  0  0  0  0  0  0  0  0  0  0  0
   -7.1524   -1.6526  -18.9934 C   0  0  0  0  0  0  0  0  0  0  0  0
   -6.3179    1.2443  -17.1612 C   0  0  1  0  0  0  0  0  0  0  0  0
   -8.2315   -1.1948  -17.9485 C   0  0  0  0  0  0  0  0  0  0  0  0
   -6.8870    1.1886  -14.7798 N   0  0  0  0  0  0  0  0  0  0  0  0
   -7.9538   -2.8550  -19.2676 N   0  0  0  0  0  0  0  0  0  0  0  0
   -7.6641    1.2773  -17.7239 N   0  0  0  0  0  0  0  0  0  0  0  0
   -8.8623    2.4228  -14.8003 O   0  0  0  0  0  0  0  0  0  0  0  0
   -9.6856    0.7113  -18.5835 O   0  0  0  0  0  0  0  0  0  0  0  0
  -10.7799    0.5592  -13.8225 O   0  0  0  0  0  0  0  0  0  0  0  0
   -7.2603    0.2262   -9.9400 H   0  0  0  0  0  0  0  0  0  0  0  0
   -9.5926   -0.5301   -9.5778 H   0  0  0  0  0  0  0  0  0  0  0  0
   -6.5831    1.1904  -12.0994 H   0  0  0  0  0  0  0  0  0  0  0  0
  -11.2531   -0.3513  -11.3970 H   0  0  0  0  0  0  0  0  0  0  0  0
   -8.7493   -2.0317  -14.5013 H   0  0  0  0  0  0  0  0  0  0  0  0
  -10.5430   -0.6004  -16.5355 H   0  0  0  0  0  0  0  0  0  0  0  0
   -6.9795   -1.2521  -16.1405 H   0  0  0  0  0  0  0  0  0  0  0  0
   -7.6276   -2.8136  -16.6138 H   0  0  0  0  0  0  0  0  0  0  0  0
  -12.0920   -0.7255  -14.7123 H   0  0  0  0  0  0  0  0  0  0  0  0
  -10.9489   -1.5492  -13.6554 H   0  0  0  0  0  0  0  0  0  0  0  0
   -5.5976    1.6857  -19.2161 H   0  0  0  0  0  0  0  0  0  0  0  0
   -5.2841    3.0212  -18.0833 H   0  0  0  0  0  0  0  0  0  0  0  0
   -7.7509    3.4069  -17.7571 H   0  0  0  0  0  0  0  0  0  0  0  0
   -7.8429    2.6572  -19.3855 H   0  0  0  0  0  0  0  0  0  0  0  0
   -5.1200    1.9823  -15.5032 H   0  0  0  0  0  0  0  0  0  0  0  0
   -6.5562    2.9750  -15.8287 H   0  0  0  0  0  0  0  0  0  0  0  0
   -9.8244   -2.8054  -18.1798 H   0  0  0  0  0  0  0  0  0  0  0  0
   -9.7379   -1.6891  -19.5605 H   0  0  0  0  0  0  0  0  0  0  0  0
   -7.0500   -0.9968  -19.8693 H   0  0  0  0  0  0  0  0  0  0  0  0
   -6.1452   -1.8591  -18.6145 H   0  0  0  0  0  0  0  0  0  0  0  0
   -5.8290    0.2842  -17.2301 H   0  0  0  0  0  0  0  0  0  0  0  0
   -6.4606    0.3454  -14.4033 H   0  0  0  0  0  0  0  0  0  0  0  0
   -7.6819   -3.6588  -18.6988 H   0  0  0  0  0  0  0  0  0  0  0  0
  1  2  2  0  0  0  0
  1  3  1  0  0  0  0
  2  4  1  0  0  0  0
  3  5  2  0  0  0  0
  4  6  2  0  0  0  0
  5  6  1  0  0  0  0
  5  9  1  0  0  0  0
  6 25  1  0  0  0  0
  7  8  2  0  0  0  0
  7 11  1  0  0  0  0
  8 12  1  0  0  0  0
  9 20  1  0  0  0  0
  9 23  2  0  0  0  0
 10 19  1  0  0  0  0
 10 22  1  0  0  0  0
 10 24  2  0  0  0  0
 11 19  1  0  0  0  0
 12 25  1  0  0  0  0
 13 14  1  0  0  0  0
 13 18  1  0  0  0  0
 14 22  1  0  0  0  0
 15 18  1  0  0  0  0
 15 20  1  0  0  0  0
 16 19  1  0  0  0  0
 16 21  1  0  0  0  0
 17 19  1  0  0  0  0
 17 21  1  0  0  0  0
 18 22  1  0  0  0  0
  1 26  1  0  0  0  0
  2 27  1  0  0  0  0
  3 28  1  0  0  0  0
  4 29  1  0  0  0  0
  7 30  1  0  0  0  0
  8 31  1  0  0  0  0
 11 32  1  0  0  0  0
 11 33  1  0  0  0  0
 12 34  1  0  0  0  0
 12 35  1  0  0  0  0
 13 36  1  0  0  0  0
 13 37  1  0  0  0  0
 14 38  1  0  0  0  0
 14 39  1  0  0  0  0
 15 40  1  0  0  0  0
 15 41  1  0  0  0  0
 16 42  1  0  0  0  0
 16 43  1  0  0  0  0
 17 44  1  0  0  0  0
 17 45  1  0  0  0  0
 18 46  1  0  0  0  0
 20 47  1  0  0  0  0
 21 48  1  0  0  0  0
M  END
> <id>
EN300-6477910

> <smiles>
OC(=O)C(F)(F)F.O=C1NCC2CCN2C(=O)C3(CNC3)C/C=C/COC=4C=CC=CC14

> <MDLNUMBER>
MFCD31667273

> <IUPAC Name>
(12'E)-15'-oxa-3',8'-diazaspiro[azetidine-3,10'-tricyclo[14.4.0.0,5,8]icosane]-1'(16'),12',17',19'-tetraene-2',9'-dione; trifluoroacetic acid

> <URL>
https://www.enaminestore.com/catalog/EN300-6477910

> <Saltdate>
OC(=O)C(F)(F)F

> <ROCS_ShapeQuery>
amalgated

> <ROCS_TanimotoCombo>
0.818 

> <ROCS_ShapeTanimoto>
0.560 

> <ROCS_ColorTanimoto>
0.258 

> <ROCS_RefTversky>
0.609 

> <ROCS_RefColorTversky>
0.462 

> <ROCS_RefTverskyCombo>
1.071 

> <ROCS_FitTversky>
0.875 

> <ROCS_FitColorTversky>
0.369 

> <ROCS_FitTverskyCombo>
1.243 

> <ROCS_ColorScore>
-3.284

> <ROCS_Overlap>
1012.019

> <ROCS_Rank>
415                 

$$$$
untitled-dbase-15719_73
  -OEChem-10092318153D

 35 36  0     1  0  0  0  0  0999 V2000
   -8.9947   -1.0817  -14.1721 C   0  0  0  0  0  0  0  0  0  0  0  0
   -9.1508   -3.0091  -16.6916 C   0  0  0  0  0  0  0  0  0  0  0  0
   -9.0163   -3.4508  -18.1536 C   0  0  0  0  0  0  0  0  0  0  0  0
   -7.3787   -1.6132  -18.2041 C   0  0  0  0  0  0  0  0  0  0  0  0
   -7.9894    0.0559  -16.2950 C   0  0  0  0  0  0  0  0  0  0  0  0
   -8.4292   -0.7233  -17.5451 C   0  0  2  0  0  0  0  0  0  0  0  0
   -9.4167   -1.5110  -16.6661 C   0  0  2  0  0  0  0  0  0  0  0  0
   -8.9655   -1.2797  -11.2474 C   0  0  0  0  0  0  0  0  0  0  0  0
   -8.7067    1.2182  -11.2951 C   0  0  0  0  0  0  0  0  0  0  0  0
  -10.7928    0.1594  -12.2088 C   0  0  0  0  0  0  0  0  0  0  0  0
   -9.2853    0.0021  -12.0151 C   0  0  0  0  0  0  0  0  0  0  0  0
   -8.0123   -2.7125  -18.9362 N   0  0  0  0  0  0  0  0  0  0  0  0
   -8.8387   -0.8278  -15.5162 N   0  0  0  0  0  0  0  0  0  0  0  0
   -9.3459   -2.1760  -13.7317 O   0  0  0  0  0  0  0  0  0  0  0  0
   -8.6636   -0.0720  -13.3073 O   0  0  0  0  0  0  0  0  0  0  0  0
   -9.9702   -3.5457  -16.2154 H   0  0  0  0  0  0  0  0  0  0  0  0
   -8.2352   -3.2709  -16.1582 H   0  0  0  0  0  0  0  0  0  0  0  0
   -8.7483   -4.5329  -18.1782 H   0  0  0  0  0  0  0  0  0  0  0  0
  -10.0075   -3.4023  -18.6686 H   0  0  0  0  0  0  0  0  0  0  0  0
   -6.7771   -1.0250  -18.8953 H   0  0  0  0  0  0  0  0  0  0  0  0
   -6.7069   -2.0186  -17.4513 H   0  0  0  0  0  0  0  0  0  0  0  0
   -6.9289   -0.0192  -16.0074 H   0  0  0  0  0  0  0  0  0  0  0  0
   -8.2988    1.1116  -16.2672 H   0  0  0  0  0  0  0  0  0  0  0  0
   -8.8918   -0.0994  -18.2798 H   0  0  0  0  0  0  0  0  0  0  0  0
  -10.4660   -1.2548  -16.8738 H   0  0  0  0  0  0  0  0  0  0  0  0
   -9.3792   -2.1550  -11.7610 H   0  0  0  0  0  0  0  0  0  0  0  0
   -7.8861   -1.4222  -11.1321 H   0  0  0  0  0  0  0  0  0  0  0  0
   -9.4208   -1.2625  -10.2505 H   0  0  0  0  0  0  0  0  0  0  0  0
   -8.9338    2.1402  -11.8424 H   0  0  0  0  0  0  0  0  0  0  0  0
   -7.6140    1.1545  -11.2378 H   0  0  0  0  0  0  0  0  0  0  0  0
   -9.1023    1.3121  -10.2786 H   0  0  0  0  0  0  0  0  0  0  0  0
  -11.0225    1.0788  -12.7594 H   0  0  0  0  0  0  0  0  0  0  0  0
  -11.2196   -0.6871  -12.7565 H   0  0  0  0  0  0  0  0  0  0  0  0
  -11.3034    0.2420  -11.2425 H   0  0  0  0  0  0  0  0  0  0  0  0
   -7.2869   -3.3690  -19.2628 H   0  0  0  0  0  0  0  0  0  0  0  0
  1 13  1  0  0  0  0
  1 14  2  0  0  0  0
  1 15  1  0  0  0  0
  2  3  1  0  0  0  0
  2  7  1  0  0  0  0
  3 12  1  0  0  0  0
  4  6  1  0  0  0  0
  4 12  1  0  0  0  0
  5  6  1  0  0  0  0
  5 13  1  0  0  0  0
  6  7  1  0  0  0  0
  7 13  1  0  0  0  0
  8 11  1  0  0  0  0
  9 11  1  0  0  0  0
 10 11  1  0  0  0  0
 11 15  1  0  0  0  0
  2 16  1  0  0  0  0
  2 17  1  0  0  0  0
  3 18  1  0  0  0  0
  3 19  1  0  0  0  0
  4 20  1  0  0  0  0
  4 21  1  0  0  0  0
  5 22  1  0  0  0  0
  5 23  1  0  0  0  0
  6 24  1  0  0  0  0
  7 25  1  0  0  0  0
  8 26  1  0  0  0  0
  8 27  1  0  0  0  0
  8 28  1  0  0  0  0
  9 29  1  0  0  0  0
  9 30  1  0  0  0  0
  9 31  1  0  0  0  0
 10 32  1  0  0  0  0
 10 33  1  0  0  0  0
 10 34  1  0  0  0  0
 12 35  1  0  0  0  0
M  END
> <id>
EN300-22844888

> <smiles>
Cl.CC(C)(C)OC(=O)N1CC2CNCCC21

> <MDLNUMBER>
MFCD31617996

> <IUPAC Name>
tert-butyl 3,7-diazabicyclo[4.2.0]octane-7-carboxylate hydrochloride

> <CAS>
2227107-91-5

> <URL>
https://www.enaminestore.com/catalog/EN300-22844888

> <Saltdate>
Cl

> <ROCS_ShapeQuery>
amalgated

> <ROCS_TanimotoCombo>
0.818 

> <ROCS_ShapeTanimoto>
0.540 

> <ROCS_ColorTanimoto>
0.278 

> <ROCS_RefTversky>
0.503 

> <ROCS_RefColorTversky>
0.410 

> <ROCS_RefTverskyCombo>
0.912 

> <ROCS_FitTversky>
1.161 

> <ROCS_FitColorTversky>
0.464 

> <ROCS_FitTverskyCombo>
1.625 

> <ROCS_ColorScore>
-2.849

> <ROCS_Overlap>
823.388

> <ROCS_Rank>
416                 

$$$$
untitled-dbase-24282_73
  -OEChem-10092318153D

 35 36  0     1  0  0  0  0  0999 V2000
   -8.9947   -1.0817  -14.1721 C   0  0  0  0  0  0  0  0  0  0  0  0
   -9.1508   -3.0091  -16.6916 C   0  0  0  0  0  0  0  0  0  0  0  0
   -9.0163   -3.4508  -18.1536 C   0  0  0  0  0  0  0  0  0  0  0  0
   -7.3787   -1.6132  -18.2041 C   0  0  0  0  0  0  0  0  0  0  0  0
   -7.9894    0.0559  -16.2950 C   0  0  0  0  0  0  0  0  0  0  0  0
   -8.4292   -0.7233  -17.5451 C   0  0  2  0  0  0  0  0  0  0  0  0
   -9.4167   -1.5110  -16.6661 C   0  0  2  0  0  0  0  0  0  0  0  0
   -8.9655   -1.2797  -11.2474 C   0  0  0  0  0  0  0  0  0  0  0  0
   -8.7067    1.2182  -11.2951 C   0  0  0  0  0  0  0  0  0  0  0  0
  -10.7928    0.1594  -12.2088 C   0  0  0  0  0  0  0  0  0  0  0  0
   -9.2853    0.0021  -12.0151 C   0  0  0  0  0  0  0  0  0  0  0  0
   -8.0123   -2.7125  -18.9362 N   0  0  0  0  0  0  0  0  0  0  0  0
   -8.8387   -0.8278  -15.5162 N   0  0  0  0  0  0  0  0  0  0  0  0
   -9.3459   -2.1760  -13.7317 O   0  0  0  0  0  0  0  0  0  0  0  0
   -8.6636   -0.0720  -13.3073 O   0  0  0  0  0  0  0  0  0  0  0  0
   -9.9702   -3.5457  -16.2154 H   0  0  0  0  0  0  0  0  0  0  0  0
   -8.2352   -3.2709  -16.1582 H   0  0  0  0  0  0  0  0  0  0  0  0
   -8.7483   -4.5329  -18.1782 H   0  0  0  0  0  0  0  0  0  0  0  0
  -10.0075   -3.4023  -18.6686 H   0  0  0  0  0  0  0  0  0  0  0  0
   -6.7771   -1.0250  -18.8953 H   0  0  0  0  0  0  0  0  0  0  0  0
   -6.7069   -2.0186  -17.4513 H   0  0  0  0  0  0  0  0  0  0  0  0
   -6.9289   -0.0192  -16.0074 H   0  0  0  0  0  0  0  0  0  0  0  0
   -8.2988    1.1116  -16.2672 H   0  0  0  0  0  0  0  0  0  0  0  0
   -8.8918   -0.0994  -18.2798 H   0  0  0  0  0  0  0  0  0  0  0  0
  -10.4660   -1.2548  -16.8738 H   0  0  0  0  0  0  0  0  0  0  0  0
   -9.3792   -2.1550  -11.7610 H   0  0  0  0  0  0  0  0  0  0  0  0
   -7.8861   -1.4222  -11.1321 H   0  0  0  0  0  0  0  0  0  0  0  0
   -9.4208   -1.2625  -10.2505 H   0  0  0  0  0  0  0  0  0  0  0  0
   -8.9338    2.1402  -11.8424 H   0  0  0  0  0  0  0  0  0  0  0  0
   -7.6140    1.1545  -11.2378 H   0  0  0  0  0  0  0  0  0  0  0  0
   -9.1023    1.3121  -10.2786 H   0  0  0  0  0  0  0  0  0  0  0  0
  -11.0225    1.0788  -12.7594 H   0  0  0  0  0  0  0  0  0  0  0  0
  -11.2196   -0.6871  -12.7565 H   0  0  0  0  0  0  0  0  0  0  0  0
  -11.3034    0.2420  -11.2425 H   0  0  0  0  0  0  0  0  0  0  0  0
   -7.2869   -3.3690  -19.2628 H   0  0  0  0  0  0  0  0  0  0  0  0
  1 13  1  0  0  0  0
  1 14  2  0  0  0  0
  1 15  1  0  0  0  0
  2  3  1  0  0  0  0
  2  7  1  0  0  0  0
  3 12  1  0  0  0  0
  4  6  1  0  0  0  0
  4 12  1  0  0  0  0
  5  6  1  0  0  0  0
  5 13  1  0  0  0  0
  6  7  1  0  0  0  0
  7 13  1  0  0  0  0
  8 11  1  0  0  0  0
  9 11  1  0  0  0  0
 10 11  1  0  0  0  0
 11 15  1  0  0  0  0
  2 16  1  0  0  0  0
  2 17  1  0  0  0  0
  3 18  1  0  0  0  0
  3 19  1  0  0  0  0
  4 20  1  0  0  0  0
  4 21  1  0  0  0  0
  5 22  1  0  0  0  0
  5 23  1  0  0  0  0
  6 24  1  0  0  0  0
  7 25  1  0  0  0  0
  8 26  1  0  0  0  0
  8 27  1  0  0  0  0
  8 28  1  0  0  0  0
  9 29  1  0  0  0  0
  9 30  1  0  0  0  0
  9 31  1  0  0  0  0
 10 32  1  0  0  0  0
 10 33  1  0  0  0  0
 10 34  1  0  0  0  0
 12 35  1  0  0  0  0
M  END
> <id>
EN300-89798

> <smiles>
CC(C)(C)OC(=O)N1CC2CNCCC21

> <MDLNUMBER>
MFCD08234916

> <IUPAC Name>
tert-butyl 3,7-diazabicyclo[4.2.0]octane-7-carboxylate

> <CAS>
885271-73-8

> <URL>
https://www.enaminestore.com/catalog/EN300-89798

> <ROCS_ShapeQuery>
amalgated

> <ROCS_TanimotoCombo>
0.818 

> <ROCS_ShapeTanimoto>
0.540 

> <ROCS_ColorTanimoto>
0.278 

> <ROCS_RefTversky>
0.503 

> <ROCS_RefColorTversky>
0.410 

> <ROCS_RefTverskyCombo>
0.912 

> <ROCS_FitTversky>
1.161 

> <ROCS_FitColorTversky>
0.464 

> <ROCS_FitTverskyCombo>
1.625 

> <ROCS_ColorScore>
-2.849

> <ROCS_Overlap>
823.388

> <ROCS_Rank>
417                 

$$$$
untitled-dbase-34615_1
  -OEChem-10092318153D

 38 39  0     1  0  0  0  0  0999 V2000
   -8.7900    0.3252  -13.6681 C   0  0  0  0  0  0  0  0  0  0  0  0
   -9.6964   -1.6258  -17.4656 C   0  0  0  0  0  0  0  0  0  0  0  0
   -7.6634   -0.1267  -17.1696 C   0  0  0  0  0  0  0  0  0  0  0  0
   -9.4387   -2.2604  -18.8302 C   0  0  0  0  0  0  0  0  0  0  0  0
   -8.1951    0.7927  -16.0770 C   0  0  0  0  0  0  0  0  0  0  0  0
   -7.5787   -2.6733  -17.4618 C   0  0  0  0  0  0  0  0  0  0  0  0
   -8.3175   -1.4893  -15.3136 C   0  0  0  0  0  0  0  0  0  0  0  0
   -8.3054   -1.4908  -16.8405 C   0  0  2  0  0  0  0  0  0  0  0  0
  -10.6318    0.3805  -11.4835 C   0  0  0  0  0  0  0  0  0  0  0  0
   -9.4824   -1.7115  -10.7014 C   0  0  0  0  0  0  0  0  0  0  0  0
   -8.1916    0.4365  -10.8694 C   0  0  0  0  0  0  0  0  0  0  0  0
   -9.3193   -0.4018  -11.4697 C   0  0  0  0  0  0  0  0  0  0  0  0
   -8.0270   -2.6726  -18.8595 N   0  0  0  0  0  0  0  0  0  0  0  0
   -8.4559   -0.0880  -14.9466 N   0  0  0  0  0  0  0  0  0  0  0  0
   -8.9078    1.5010  -13.3309 O   0  0  0  0  0  0  0  0  0  0  0  0
   -8.9724   -0.7334  -12.8189 O   0  0  0  0  0  0  0  0  0  0  0  0
  -10.1609   -0.6430  -17.6089 H   0  0  0  0  0  0  0  0  0  0  0  0
  -10.3795   -2.2332  -16.8627 H   0  0  0  0  0  0  0  0  0  0  0  0
   -7.9134    0.2349  -18.1700 H   0  0  0  0  0  0  0  0  0  0  0  0
   -6.5724   -0.1984  -17.0945 H   0  0  0  0  0  0  0  0  0  0  0  0
  -10.0930   -3.1253  -19.0041 H   0  0  0  0  0  0  0  0  0  0  0  0
   -9.6339   -1.5381  -19.6350 H   0  0  0  0  0  0  0  0  0  0  0  0
   -7.4860    1.5797  -15.8016 H   0  0  0  0  0  0  0  0  0  0  0  0
   -9.1445    1.2574  -16.3662 H   0  0  0  0  0  0  0  0  0  0  0  0
   -6.4851   -2.5454  -17.4227 H   0  0  0  0  0  0  0  0  0  0  0  0
   -7.8133   -3.6305  -16.9734 H   0  0  0  0  0  0  0  0  0  0  0  0
   -9.1254   -2.0785  -14.8594 H   0  0  0  0  0  0  0  0  0  0  0  0
   -7.3648   -1.8364  -14.8896 H   0  0  0  0  0  0  0  0  0  0  0  0
  -10.5189    1.3213  -12.0340 H   0  0  0  0  0  0  0  0  0  0  0  0
  -11.4406   -0.1966  -11.9434 H   0  0  0  0  0  0  0  0  0  0  0  0
  -10.9357    0.6523  -10.4661 H   0  0  0  0  0  0  0  0  0  0  0  0
   -8.5431   -2.2761  -10.6890 H   0  0  0  0  0  0  0  0  0  0  0  0
  -10.2245   -2.3575  -11.1844 H   0  0  0  0  0  0  0  0  0  0  0  0
   -9.7956   -1.5369   -9.6671 H   0  0  0  0  0  0  0  0  0  0  0  0
   -7.2501   -0.1245  -10.8594 H   0  0  0  0  0  0  0  0  0  0  0  0
   -8.0356    1.3636  -11.4304 H   0  0  0  0  0  0  0  0  0  0  0  0
   -8.4097    0.6931   -9.8264 H   0  0  0  0  0  0  0  0  0  0  0  0
   -7.9753   -3.6247  -19.2171 H   0  0  0  0  0  0  0  0  0  0  0  0
  1 14  1  0  0  0  0
  1 15  2  0  0  0  0
  1 16  1  0  0  0  0
  2  4  1  0  0  0  0
  2  8  1  0  0  0  0
  3  5  1  0  0  0  0
  3  8  1  0  0  0  0
  4 13  1  0  0  0  0
  5 14  1  0  0  0  0
  6  8  1  0  0  0  0
  6 13  1  0  0  0  0
  7  8  1  0  0  0  0
  7 14  1  0  0  0  0
  9 12  1  0  0  0  0
 10 12  1  0  0  0  0
 11 12  1  0  0  0  0
 12 16  1  0  0  0  0
  2 17  1  0  0  0  0
  2 18  1  0  0  0  0
  3 19  1  0  0  0  0
  3 20  1  0  0  0  0
  4 21  1  0  0  0  0
  4 22  1  0  0  0  0
  5 23  1  0  0  0  0
  5 24  1  0  0  0  0
  6 25  1  0  0  0  0
  6 26  1  0  0  0  0
  7 27  1  0  0  0  0
  7 28  1  0  0  0  0
  9 29  1  0  0  0  0
  9 30  1  0  0  0  0
  9 31  1  0  0  0  0
 10 32  1  0  0  0  0
 10 33  1  0  0  0  0
 10 34  1  0  0  0  0
 11 35  1  0  0  0  0
 11 36  1  0  0  0  0
 11 37  1  0  0  0  0
 13 38  1  0  0  0  0
M  END
> <id>
EN300-90567

> <smiles>
CC(C)(C)OC(=O)N1CCC2(CCNC2)C1

> <MDLNUMBER>
MFCD03790957

> <IUPAC Name>
tert-butyl 2,7-diazaspiro[4.4]nonane-2-carboxylate

> <CAS>
236406-49-8

> <Purity>
95

> <URL>
https://www.enaminestore.com/catalog/EN300-90567

> <ROCS_ShapeQuery>
amalgated

> <ROCS_TanimotoCombo>
0.818 

> <ROCS_ShapeTanimoto>
0.584 

> <ROCS_ColorTanimoto>
0.234 

> <ROCS_RefTversky>
0.538 

> <ROCS_RefColorTversky>
0.355 

> <ROCS_RefTverskyCombo>
0.893 

> <ROCS_FitTversky>
1.172 

> <ROCS_FitColorTversky>
0.408 

> <ROCS_FitTverskyCombo>
1.580 

> <ROCS_ColorScore>
-2.468

> <ROCS_Overlap>
882.298

> <ROCS_Rank>
418                 

$$$$
untitled-dbase-22059_6
  -OEChem-10092318153D

 43 45  0     0  0  0  0  0  0999 V2000
   -7.5396   -0.2260  -14.2254 C   0  0  0  0  0  0  0  0  0  0  0  0
  -10.0636   -0.3900  -14.1204 C   0  0  0  0  0  0  0  0  0  0  0  0
   -7.8320    0.1444  -15.6823 C   0  0  0  0  0  0  0  0  0  0  0  0
  -10.1830   -0.8169  -15.5876 C   0  0  0  0  0  0  0  0  0  0  0  0
   -9.9588   -3.0985  -18.3040 C   0  0  0  0  0  0  0  0  0  0  0  0
   -8.9361   -0.7341  -17.8653 C   0  0  0  0  0  0  0  0  0  0  0  0
   -8.2254   -2.2923  -16.5238 C   0  0  0  0  0  0  0  0  0  0  0  0
   -9.1980   -3.2536  -19.6409 C   0  0  0  0  0  0  0  0  0  0  0  0
   -8.7448   -0.8405  -13.4898 C   0  0  0  0  0  0  0  0  0  0  0  0
   -8.8167   -0.8467  -16.2994 C   0  0  0  0  0  0  0  0  0  0  0  0
   -8.8002   -2.2334  -17.9101 C   0  0  0  0  0  0  0  0  0  0  0  0
   -7.3797   -1.0124  -11.3937 C   0  0  0  0  0  0  0  0  0  0  0  0
   -9.8785   -1.1836  -11.2801 C   0  0  0  0  0  0  0  0  0  0  0  0
   -8.7953    1.0157  -11.8051 C   0  0  0  0  0  0  0  0  0  0  0  0
   -8.6998   -0.5070  -11.9999 C   0  0  0  0  0  0  0  0  0  0  0  0
   -7.9667   -2.7701  -18.9649 N   0  0  0  0  0  0  0  0  0  0  0  0
   -6.6914   -0.9332  -14.1999 H   0  0  0  0  0  0  0  0  0  0  0  0
   -7.1953    0.6722  -13.6805 H   0  0  0  0  0  0  0  0  0  0  0  0
  -10.1564    0.7051  -14.0520 H   0  0  0  0  0  0  0  0  0  0  0  0
  -10.9119   -0.8086  -13.5579 H   0  0  0  0  0  0  0  0  0  0  0  0
   -8.2193    1.1700  -15.7185 H   0  0  0  0  0  0  0  0  0  0  0  0
   -6.8921    0.1435  -16.2502 H   0  0  0  0  0  0  0  0  0  0  0  0
  -10.6504   -1.8159  -15.6408 H   0  0  0  0  0  0  0  0  0  0  0  0
  -10.8759   -0.1327  -16.1068 H   0  0  0  0  0  0  0  0  0  0  0  0
  -10.9378   -2.6201  -18.3692 H   0  0  0  0  0  0  0  0  0  0  0  0
  -10.0460   -4.0310  -17.7375 H   0  0  0  0  0  0  0  0  0  0  0  0
   -9.9093   -0.3696  -18.2091 H   0  0  0  0  0  0  0  0  0  0  0  0
   -8.1573   -0.1557  -18.3673 H   0  0  0  0  0  0  0  0  0  0  0  0
   -7.1416   -2.3796  -16.4335 H   0  0  0  0  0  0  0  0  0  0  0  0
   -8.6842   -3.0576  -15.8917 H   0  0  0  0  0  0  0  0  0  0  0  0
   -9.1360   -4.2725  -20.0339 H   0  0  0  0  0  0  0  0  0  0  0  0
   -9.5449   -2.5852  -20.4374 H   0  0  0  0  0  0  0  0  0  0  0  0
   -8.6737   -1.9410  -13.5856 H   0  0  0  0  0  0  0  0  0  0  0  0
   -7.3180   -0.7873  -10.3231 H   0  0  0  0  0  0  0  0  0  0  0  0
   -6.5175   -0.5452  -11.8828 H   0  0  0  0  0  0  0  0  0  0  0  0
   -7.2824   -2.0974  -11.5122 H   0  0  0  0  0  0  0  0  0  0  0  0
   -9.8667   -0.9579  -10.2078 H   0  0  0  0  0  0  0  0  0  0  0  0
  -10.8368   -0.8372  -11.6830 H   0  0  0  0  0  0  0  0  0  0  0  0
   -9.8443   -2.2732  -11.3917 H   0  0  0  0  0  0  0  0  0  0  0  0
   -8.7649    1.2791  -10.7418 H   0  0  0  0  0  0  0  0  0  0  0  0
   -9.7269    1.4154  -12.2210 H   0  0  0  0  0  0  0  0  0  0  0  0
   -7.9624    1.5286  -12.2994 H   0  0  0  0  0  0  0  0  0  0  0  0
   -7.3553   -3.5318  -18.6662 H   0  0  0  0  0  0  0  0  0  0  0  0
  1  3  1  0  0  0  0
  1  9  1  0  0  0  0
  2  4  1  0  0  0  0
  2  9  1  0  0  0  0
  3 10  1  0  0  0  0
  4 10  1  0  0  0  0
  5  8  1  0  0  0  0
  5 11  1  0  0  0  0
  6 10  1  0  0  0  0
  6 11  1  0  0  0  0
  7 10  1  0  0  0  0
  7 11  1  0  0  0  0
  8 16  1  0  0  0  0
  9 15  1  0  0  0  0
 11 16  1  0  0  0  0
 12 15  1  0  0  0  0
 13 15  1  0  0  0  0
 14 15  1  0  0  0  0
  1 17  1  0  0  0  0
  1 18  1  0  0  0  0
  2 19  1  0  0  0  0
  2 20  1  0  0  0  0
  3 21  1  0  0  0  0
  3 22  1  0  0  0  0
  4 23  1  0  0  0  0
  4 24  1  0  0  0  0
  5 25  1  0  0  0  0
  5 26  1  0  0  0  0
  6 27  1  0  0  0  0
  6 28  1  0  0  0  0
  7 29  1  0  0  0  0
  7 30  1  0  0  0  0
  8 31  1  0  0  0  0
  8 32  1  0  0  0  0
  9 33  1  0  0  0  0
 12 34  1  0  0  0  0
 12 35  1  0  0  0  0
 12 36  1  0  0  0  0
 13 37  1  0  0  0  0
 13 38  1  0  0  0  0
 13 39  1  0  0  0  0
 14 40  1  0  0  0  0
 14 41  1  0  0  0  0
 14 42  1  0  0  0  0
 16 43  1  0  0  0  0
M  END
> <id>
EN300-37431755

> <smiles>
CC(C)(C)C1CCC2(CC3(CCN3)C2)CC1

> <IUPAC Name>
9-tert-butyl-1-azadispiro[3.1.5^{6}.1^{4}]dodecane

> <URL>
https://www.enaminestore.com/catalog/EN300-37431755

> <ROCS_ShapeQuery>
amalgated

> <ROCS_TanimotoCombo>
0.818 

> <ROCS_ShapeTanimoto>
0.518 

> <ROCS_ColorTanimoto>
0.300 

> <ROCS_RefTversky>
0.496 

> <ROCS_RefColorTversky>
0.432 

> <ROCS_RefTverskyCombo>
0.928 

> <ROCS_FitTversky>
1.096 

> <ROCS_FitColorTversky>
0.494 

> <ROCS_FitTverskyCombo>
1.591 

> <ROCS_ColorScore>
-3.006

> <ROCS_Overlap>
812.952

> <ROCS_Rank>
419                 

$$$$
untitled-dbase-49624_9
  -OEChem-10092318153D

 38 39  0     1  0  0  0  0  0999 V2000
   -9.2327   -0.0550  -14.3058 C   0  0  0  0  0  0  0  0  0  0  0  0
   -6.9442    0.1685  -17.5886 C   0  0  0  0  0  0  0  0  0  0  0  0
   -7.9026    1.1433  -16.8929 C   0  0  0  0  0  0  0  0  0  0  0  0
   -9.0202   -2.8086  -16.9357 C   0  0  0  0  0  0  0  0  0  0  0  0
   -8.9395   -2.2064  -15.5354 C   0  0  0  0  0  0  0  0  0  0  0  0
   -8.1688   -0.7078  -17.9545 C   0  0  2  0  0  0  0  0  0  0  0  0
   -8.9463    0.0032  -16.8041 C   0  0  1  0  0  0  0  0  0  0  0  0
   -7.9380   -2.2121  -17.8319 C   0  0  2  0  0  0  0  0  0  0  0  0
  -10.8951    0.5307  -12.0532 C   0  0  0  0  0  0  0  0  0  0  0  0
   -9.7305   -1.3889  -10.9272 C   0  0  0  0  0  0  0  0  0  0  0  0
   -8.4135    0.6257  -11.6446 C   0  0  0  0  0  0  0  0  0  0  0  0
   -9.6019   -0.2787  -11.9678 C   0  0  0  0  0  0  0  0  0  0  0  0
   -9.0070   -0.7409  -15.5091 N   0  0  0  0  0  0  0  0  0  0  0  0
   -7.9772   -2.8378  -19.1528 N   0  0  0  0  0  0  0  0  0  0  0  0
   -9.3008    1.1690  -14.2119 O   0  0  0  0  0  0  0  0  0  0  0  0
   -9.3694   -0.9012  -13.2364 O   0  0  0  0  0  0  0  0  0  0  0  0
   -6.4376    0.5978  -18.4652 H   0  0  0  0  0  0  0  0  0  0  0  0
   -6.1849   -0.2936  -16.9460 H   0  0  0  0  0  0  0  0  0  0  0  0
   -7.5390    1.5085  -15.9195 H   0  0  0  0  0  0  0  0  0  0  0  0
   -8.2072    2.0142  -17.4895 H   0  0  0  0  0  0  0  0  0  0  0  0
   -8.8972   -3.8959  -16.8586 H   0  0  0  0  0  0  0  0  0  0  0  0
  -10.0190   -2.6263  -17.3536 H   0  0  0  0  0  0  0  0  0  0  0  0
   -9.7445   -2.6097  -14.9177 H   0  0  0  0  0  0  0  0  0  0  0  0
   -7.9952   -2.4830  -15.0599 H   0  0  0  0  0  0  0  0  0  0  0  0
   -8.5900   -0.4491  -18.9443 H   0  0  0  0  0  0  0  0  0  0  0  0
   -9.9477    0.2969  -17.1401 H   0  0  0  0  0  0  0  0  0  0  0  0
   -6.9489   -2.4257  -17.3858 H   0  0  0  0  0  0  0  0  0  0  0  0
  -10.8069    1.3287  -12.7991 H   0  0  0  0  0  0  0  0  0  0  0  0
  -11.7493   -0.1006  -12.3188 H   0  0  0  0  0  0  0  0  0  0  0  0
  -11.1121    1.0229  -11.0982 H   0  0  0  0  0  0  0  0  0  0  0  0
   -8.8049   -1.9722  -10.8626 H   0  0  0  0  0  0  0  0  0  0  0  0
  -10.5215   -2.0948  -11.2053 H   0  0  0  0  0  0  0  0  0  0  0  0
   -9.9575   -0.9876   -9.9342 H   0  0  0  0  0  0  0  0  0  0  0  0
   -7.4857    0.0454  -11.5833 H   0  0  0  0  0  0  0  0  0  0  0  0
   -8.2833    1.4065  -12.4010 H   0  0  0  0  0  0  0  0  0  0  0  0
   -8.5432    1.1054  -10.6677 H   0  0  0  0  0  0  0  0  0  0  0  0
   -7.2488   -2.4476  -19.7021 H   0  0  0  0  0  0  0  0  0  0  0  0
   -7.8450   -3.8143  -19.0364 H   0  0  0  0  0  0  0  0  0  0  0  0
  1 13  1  0  0  0  0
  1 15  2  0  0  0  0
  1 16  1  0  0  0  0
  2  3  1  0  0  0  0
  2  6  1  0  0  0  0
  3  7  1  0  0  0  0
  4  5  1  0  0  0  0
  4  8  1  0  0  0  0
  5 13  1  0  0  0  0
  6  7  1  0  0  0  0
  6  8  1  0  0  0  0
  7 13  1  0  0  0  0
  8 14  1  0  0  0  0
  9 12  1  0  0  0  0
 10 12  1  0  0  0  0
 11 12  1  0  0  0  0
 12 16  1  0  0  0  0
  2 17  1  0  0  0  0
  2 18  1  0  0  0  0
  3 19  1  0  0  0  0
  3 20  1  0  0  0  0
  4 21  1  0  0  0  0
  4 22  1  0  0  0  0
  5 23  1  0  0  0  0
  5 24  1  0  0  0  0
  6 25  1  0  0  0  0
  7 26  1  0  0  0  0
  8 27  1  0  0  0  0
  9 28  1  0  0  0  0
  9 29  1  0  0  0  0
  9 30  1  0  0  0  0
 10 31  1  0  0  0  0
 10 32  1  0  0  0  0
 10 33  1  0  0  0  0
 11 34  1  0  0  0  0
 11 35  1  0  0  0  0
 11 36  1  0  0  0  0
 14 37  1  0  0  0  0
 14 38  1  0  0  0  0
M  END
> <id>
EN300-7441791

> <smiles>
CC(C)(C)OC(=O)N1CCC(N)C2CCC21

> <MDLNUMBER>
MFCD32197992

> <IUPAC Name>
tert-butyl 5-amino-2-azabicyclo[4.2.0]octane-2-carboxylate

> <CAS>
2169221-53-6

> <Purity>
95

> <URL>
https://www.enaminestore.com/catalog/EN300-7441791

> <ROCS_ShapeQuery>
amalgated

> <ROCS_TanimotoCombo>
0.818 

> <ROCS_ShapeTanimoto>
0.547 

> <ROCS_ColorTanimoto>
0.271 

> <ROCS_RefTversky>
0.514 

> <ROCS_RefColorTversky>
0.401 

> <ROCS_RefTverskyCombo>
0.915 

> <ROCS_FitTversky>
1.133 

> <ROCS_FitColorTversky>
0.455 

> <ROCS_FitTverskyCombo>
1.588 

> <ROCS_ColorScore>
-2.785

> <ROCS_Overlap>
843.583

> <ROCS_Rank>
420                 

$$$$
untitled-dbase-8524_3
  -OEChem-10092318153D

 34 36  0     0  0  0  0  0  0999 V2000
   -8.8436   -2.5617  -15.6616 C   0  0  0  0  0  0  0  0  0  0  0  0
   -8.6872   -3.0489  -16.9655 C   0  0  0  0  0  0  0  0  0  0  0  0
   -8.5886   -1.2159  -15.3486 C   0  0  0  0  0  0  0  0  0  0  0  0
   -8.0414   -0.8589  -17.7082 C   0  0  0  0  0  0  0  0  0  0  0  0
   -8.2058   -0.3910  -16.4009 C   0  0  0  0  0  0  0  0  0  0  0  0
   -8.2805   -2.1981  -17.9881 C   0  0  0  0  0  0  0  0  0  0  0  0
   -8.7295   -0.6346  -13.9911 C   0  0  0  0  0  0  0  0  0  0  0  0
   -8.6176    0.7043  -13.8370 C   0  0  0  0  0  0  0  0  0  0  0  0
   -8.2047    1.5804  -14.9779 C   0  0  0  0  0  0  0  0  0  0  0  0
   -8.9685   -1.6251  -12.8591 C   0  0  0  0  0  0  0  0  0  0  0  0
   -8.9087    1.4808  -12.5625 C   0  0  0  0  0  0  0  0  0  0  0  0
   -8.5536   -1.1978  -11.4503 C   0  0  0  0  0  0  0  0  0  0  0  0
  -10.0045    0.8984  -11.6709 C   0  0  0  0  0  0  0  0  0  0  0  0
   -9.5271   -0.2395  -10.7818 C   0  0  0  0  0  0  0  0  0  0  0  0
   -7.6057    0.0664  -18.7987 C   0  0  0  0  0  0  0  0  0  0  0  0
   -8.0417    2.7901  -14.8488 O   0  0  0  0  0  0  0  0  0  0  0  0
   -7.9788    0.9764  -16.2011 O   0  0  0  0  0  0  0  0  0  0  0  0
   -8.1162   -2.6942  -19.2453 O   0  0  0  0  0  0  0  0  0  0  0  0
   -9.1610   -3.2768  -14.9093 H   0  0  0  0  0  0  0  0  0  0  0  0
   -8.8835   -4.0976  -17.1703 H   0  0  0  0  0  0  0  0  0  0  0  0
  -10.0489   -1.9188  -12.8599 H   0  0  0  0  0  0  0  0  0  0  0  0
   -8.4877   -2.6070  -13.0723 H   0  0  0  0  0  0  0  0  0  0  0  0
   -7.9901    1.5593  -11.9475 H   0  0  0  0  0  0  0  0  0  0  0  0
   -9.1325    2.5385  -12.8155 H   0  0  0  0  0  0  0  0  0  0  0  0
   -8.4898   -2.1008  -10.8241 H   0  0  0  0  0  0  0  0  0  0  0  0
   -7.5414   -0.7652  -11.4609 H   0  0  0  0  0  0  0  0  0  0  0  0
  -10.4623    1.6862  -11.0610 H   0  0  0  0  0  0  0  0  0  0  0  0
  -10.7978    0.5054  -12.3179 H   0  0  0  0  0  0  0  0  0  0  0  0
  -10.3937   -0.7998  -10.4145 H   0  0  0  0  0  0  0  0  0  0  0  0
   -9.0396    0.1904   -9.9003 H   0  0  0  0  0  0  0  0  0  0  0  0
   -6.5125    0.0778  -18.8715 H   0  0  0  0  0  0  0  0  0  0  0  0
   -8.0184   -0.2418  -19.7667 H   0  0  0  0  0  0  0  0  0  0  0  0
   -7.9555    1.0890  -18.6125 H   0  0  0  0  0  0  0  0  0  0  0  0
   -8.3193   -3.6430  -19.2614 H   0  0  0  0  0  0  0  0  0  0  0  0
  1  2  2  0  0  0  0
  1  3  1  0  0  0  0
  2  6  1  0  0  0  0
  3  5  2  0  0  0  0
  3  7  1  0  0  0  0
  4  5  1  0  0  0  0
  4  6  2  0  0  0  0
  4 15  1  0  0  0  0
  5 17  1  0  0  0  0
  6 18  1  0  0  0  0
  7  8  2  0  0  0  0
  7 10  1  0  0  0  0
  8  9  1  0  0  0  0
  8 11  1  0  0  0  0
  9 16  2  0  0  0  0
  9 17  1  0  0  0  0
 10 12  1  0  0  0  0
 11 13  1  0  0  0  0
 12 14  1  0  0  0  0
 13 14  1  0  0  0  0
  1 19  1  0  0  0  0
  2 20  1  0  0  0  0
 10 21  1  0  0  0  0
 10 22  1  0  0  0  0
 11 23  1  0  0  0  0
 11 24  1  0  0  0  0
 12 25  1  0  0  0  0
 12 26  1  0  0  0  0
 13 27  1  0  0  0  0
 13 28  1  0  0  0  0
 14 29  1  0  0  0  0
 14 30  1  0  0  0  0
 15 31  1  0  0  0  0
 15 32  1  0  0  0  0
 15 33  1  0  0  0  0
 18 34  1  0  0  0  0
M  END
> <id>
EN300-302454

> <smiles>
CC=1C(O)=CC=C2C=3CCCCCC3C(=O)OC12

> <MDLNUMBER>
MFCD03029846

> <IUPAC Name>
3-hydroxy-4-methyl-6H,7H,8H,9H,10H,11H-cyclohepta[c]chromen-6-one

> <CAS>
431983-60-7

> <URL>
https://www.enaminestore.com/catalog/EN300-302454

> <ROCS_ShapeQuery>
amalgated

> <ROCS_TanimotoCombo>
0.818 

> <ROCS_ShapeTanimoto>
0.563 

> <ROCS_ColorTanimoto>
0.254 

> <ROCS_RefTversky>
0.548 

> <ROCS_RefColorTversky>
0.380 

> <ROCS_RefTverskyCombo>
0.928 

> <ROCS_FitTversky>
1.050 

> <ROCS_FitColorTversky>
0.436 

> <ROCS_FitTverskyCombo>
1.486 

> <ROCS_ColorScore>
-2.639

> <ROCS_Overlap>
902.920

> <ROCS_Rank>
421                 

$$$$
untitled-dbase-53507_35
  -OEChem-10092318153D

 38 39  0     1  0  0  0  0  0999 V2000
   -7.9129   -0.6275  -14.6668 C   0  0  0  0  0  0  0  0  0  0  0  0
   -9.7634   -3.4347  -17.6410 C   0  0  0  0  0  0  0  0  0  0  0  0
   -9.0285   -3.7533  -18.9297 C   0  0  0  0  0  0  0  0  0  0  0  0
   -9.7622   -1.2706  -16.2595 C   0  0  0  0  0  0  0  0  0  0  0  0
   -7.4609   -1.4692  -16.9691 C   0  0  0  0  0  0  0  0  0  0  0  0
   -9.7373   -1.9147  -17.6368 C   0  0  1  0  0  0  0  0  0  0  0  0
   -8.3506   -1.5955  -18.2145 C   0  0  1  0  0  0  0  0  0  0  0  0
   -8.3451   -0.3083  -19.0396 C   0  0  0  0  0  0  0  0  0  0  0  0
   -9.2550    1.3073  -13.0471 C   0  0  0  0  0  0  0  0  0  0  0  0
   -9.8108   -0.6175  -11.5320 C   0  0  0  0  0  0  0  0  0  0  0  0
   -7.4116    0.0155  -11.9211 C   0  0  0  0  0  0  0  0  0  0  0  0
   -8.8066   -0.0625  -12.5398 C   0  0  0  0  0  0  0  0  0  0  0  0
   -7.9474   -2.7637  -19.0105 N   0  0  0  0  0  0  0  0  0  0  0  0
   -8.3635   -1.0859  -15.8938 N   0  0  0  0  0  0  0  0  0  0  0  0
   -6.8745    0.0101  -14.5067 O   0  0  0  0  0  0  0  0  0  0  0  0
   -8.7635   -0.9673  -13.6488 O   0  0  0  0  0  0  0  0  0  0  0  0
  -10.7841   -3.8288  -17.6360 H   0  0  0  0  0  0  0  0  0  0  0  0
   -9.2305   -3.8530  -16.7782 H   0  0  0  0  0  0  0  0  0  0  0  0
   -8.6414   -4.7765  -18.9419 H   0  0  0  0  0  0  0  0  0  0  0  0
   -9.6928   -3.6308  -19.7928 H   0  0  0  0  0  0  0  0  0  0  0  0
  -10.2223   -0.2769  -16.2948 H   0  0  0  0  0  0  0  0  0  0  0  0
  -10.2811   -1.8689  -15.5042 H   0  0  0  0  0  0  0  0  0  0  0  0
   -7.0060   -2.4186  -16.6600 H   0  0  0  0  0  0  0  0  0  0  0  0
   -6.6549   -0.7350  -17.0735 H   0  0  0  0  0  0  0  0  0  0  0  0
  -10.5489   -1.5348  -18.2698 H   0  0  0  0  0  0  0  0  0  0  0  0
   -8.9829   -0.4258  -19.9150 H   0  0  0  0  0  0  0  0  0  0  0  0
   -7.3310   -0.0818  -19.3671 H   0  0  0  0  0  0  0  0  0  0  0  0
   -8.7174    0.5200  -18.4376 H   0  0  0  0  0  0  0  0  0  0  0  0
   -8.5368    1.7091  -13.7708 H   0  0  0  0  0  0  0  0  0  0  0  0
  -10.2392    1.2583  -13.5244 H   0  0  0  0  0  0  0  0  0  0  0  0
   -9.3044    2.0315  -12.2259 H   0  0  0  0  0  0  0  0  0  0  0  0
   -9.4930   -1.6003  -11.1654 H   0  0  0  0  0  0  0  0  0  0  0  0
  -10.7915   -0.7645  -11.9988 H   0  0  0  0  0  0  0  0  0  0  0  0
   -9.9322    0.0503  -10.6730 H   0  0  0  0  0  0  0  0  0  0  0  0
   -7.0897   -0.9669  -11.5572 H   0  0  0  0  0  0  0  0  0  0  0  0
   -6.6706    0.3770  -12.6414 H   0  0  0  0  0  0  0  0  0  0  0  0
   -7.4076    0.6837  -11.0523 H   0  0  0  0  0  0  0  0  0  0  0  0
   -7.0888   -3.1703  -18.6420 H   0  0  0  0  0  0  0  0  0  0  0  0
  1 14  1  0  0  0  0
  1 15  2  0  0  0  0
  1 16  1  0  0  0  0
  2  3  1  0  0  0  0
  2  6  1  0  0  0  0
  3 13  1  0  0  0  0
  4  6  1  0  0  0  0
  4 14  1  0  0  0  0
  5  7  1  0  0  0  0
  5 14  1  0  0  0  0
  6  7  1  0  0  0  0
  7  8  1  0  0  0  0
  7 13  1  0  0  0  0
  9 12  1  0  0  0  0
 10 12  1  0  0  0  0
 11 12  1  0  0  0  0
 12 16  1  0  0  0  0
  2 17  1  0  0  0  0
  2 18  1  0  0  0  0
  3 19  1  0  0  0  0
  3 20  1  0  0  0  0
  4 21  1  0  0  0  0
  4 22  1  0  0  0  0
  5 23  1  0  0  0  0
  5 24  1  0  0  0  0
  6 25  1  0  0  0  0
  8 26  1  0  0  0  0
  8 27  1  0  0  0  0
  8 28  1  0  0  0  0
  9 29  1  0  0  0  0
  9 30  1  0  0  0  0
  9 31  1  0  0  0  0
 10 32  1  0  0  0  0
 10 33  1  0  0  0  0
 10 34  1  0  0  0  0
 11 35  1  0  0  0  0
 11 36  1  0  0  0  0
 11 37  1  0  0  0  0
 13 38  1  0  0  0  0
M  END
> <id>
EN300-22169236

> <smiles>
CC(C)(C)OC(=O)N1CC2CCNC2(C)C1

> <MDLNUMBER>
MFCD30471029

> <IUPAC Name>
tert-butyl 6a-methyl-octahydropyrrolo[3,4-b]pyrrole-5-carboxylate

> <CAS>
2007920-67-2

> <Purity>
95

> <URL>
https://www.enaminestore.com/catalog/EN300-22169236

> <ROCS_ShapeQuery>
amalgated

> <ROCS_TanimotoCombo>
0.818 

> <ROCS_ShapeTanimoto>
0.518 

> <ROCS_ColorTanimoto>
0.299 

> <ROCS_RefTversky>
0.499 

> <ROCS_RefColorTversky>
0.433 

> <ROCS_RefTverskyCombo>
0.932 

> <ROCS_FitTversky>
1.082 

> <ROCS_FitColorTversky>
0.492 

> <ROCS_FitTverskyCombo>
1.574 

> <ROCS_ColorScore>
-3.012

> <ROCS_Overlap>
818.603

> <ROCS_Rank>
422                 

$$$$
untitled-dbase-8717_206
  -OEChem-10092318153D

 41 42  0     0  0  0  0  0  0999 V2000
   -8.4679   -0.2030  -15.2661 C   0  0  0  0  0  0  0  0  0  0  0  0
  -10.0714   -5.0681  -18.1480 C   0  0  0  0  0  0  0  0  0  0  0  0
  -10.9355   -3.8410  -17.8731 C   0  0  0  0  0  0  0  0  0  0  0  0
   -9.1156   -4.9669  -19.3309 C   0  0  0  0  0  0  0  0  0  0  0  0
  -10.4022   -2.4798  -18.3047 C   0  0  0  0  0  0  0  0  0  0  0  0
   -7.8468   -4.1821  -18.9957 C   0  0  0  0  0  0  0  0  0  0  0  0
   -8.3827   -2.4587  -16.5271 C   0  0  0  0  0  0  0  0  0  0  0  0
   -8.5929   -0.7319  -17.7769 C   0  0  0  0  0  0  0  0  0  0  0  0
   -8.9393   -2.2411  -17.9576 C   0  0  0  0  0  0  0  0  0  0  0  0
   -9.8556    1.1674  -13.1806 C   0  0  0  0  0  0  0  0  0  0  0  0
   -9.5692   -0.9460  -11.8536 C   0  0  0  0  0  0  0  0  0  0  0  0
   -7.5483    0.3387  -12.6111 C   0  0  0  0  0  0  0  0  0  0  0  0
   -8.9815   -0.0653  -12.9541 C   0  0  0  0  0  0  0  0  0  0  0  0
   -7.9991   -2.7312  -18.9752 N   0  0  0  0  0  0  0  0  0  0  0  0
   -8.4907   -1.0219  -16.3599 N   0  0  0  0  0  0  0  0  0  0  0  0
   -8.0560    0.9535  -15.2778 O   0  0  0  0  0  0  0  0  0  0  0  0
   -8.9613   -0.8374  -14.1599 O   0  0  0  0  0  0  0  0  0  0  0  0
   -9.4933   -5.3129  -17.2428 H   0  0  0  0  0  0  0  0  0  0  0  0
  -10.7333   -5.9317  -18.3164 H   0  0  0  0  0  0  0  0  0  0  0  0
  -11.9720   -4.0065  -18.2795 H   0  0  0  0  0  0  0  0  0  0  0  0
  -11.0994   -3.8027  -16.7634 H   0  0  0  0  0  0  0  0  0  0  0  0
   -8.8376   -5.9704  -19.6374 H   0  0  0  0  0  0  0  0  0  0  0  0
   -9.6244   -4.4976  -20.1673 H   0  0  0  0  0  0  0  0  0  0  0  0
  -10.5320   -2.3836  -19.3957 H   0  0  0  0  0  0  0  0  0  0  0  0
  -11.0308   -1.6795  -17.8793 H   0  0  0  0  0  0  0  0  0  0  0  0
   -7.3680   -4.5651  -18.0665 H   0  0  0  0  0  0  0  0  0  0  0  0
   -7.1058   -4.4175  -19.7887 H   0  0  0  0  0  0  0  0  0  0  0  0
   -9.0423   -2.9983  -15.8437 H   0  0  0  0  0  0  0  0  0  0  0  0
   -7.3654   -2.8423  -16.4338 H   0  0  0  0  0  0  0  0  0  0  0  0
   -7.6643   -0.3767  -18.2243 H   0  0  0  0  0  0  0  0  0  0  0  0
   -9.4002   -0.0306  -17.9922 H   0  0  0  0  0  0  0  0  0  0  0  0
   -9.4371    1.8022  -13.9699 H   0  0  0  0  0  0  0  0  0  0  0  0
  -10.8772    0.8913  -13.4615 H   0  0  0  0  0  0  0  0  0  0  0  0
   -9.9003    1.7864  -12.2773 H   0  0  0  0  0  0  0  0  0  0  0  0
   -8.9452   -1.8316  -11.6877 H   0  0  0  0  0  0  0  0  0  0  0  0
  -10.5609   -1.3160  -12.1378 H   0  0  0  0  0  0  0  0  0  0  0  0
   -9.6597   -0.4034  -10.9071 H   0  0  0  0  0  0  0  0  0  0  0  0
   -6.9211   -0.5452  -12.4486 H   0  0  0  0  0  0  0  0  0  0  0  0
   -7.0975    0.9407  -13.4067 H   0  0  0  0  0  0  0  0  0  0  0  0
   -7.5183    0.9147  -11.6791 H   0  0  0  0  0  0  0  0  0  0  0  0
   -7.0742   -2.2959  -18.9268 H   0  0  0  0  0  0  0  0  0  0  0  0
  1 15  1  0  0  0  0
  1 16  2  0  0  0  0
  1 17  1  0  0  0  0
  2  3  1  0  0  0  0
  2  4  1  0  0  0  0
  3  5  1  0  0  0  0
  4  6  1  0  0  0  0
  5  9  1  0  0  0  0
  6 14  1  0  0  0  0
  7  9  1  0  0  0  0
  7 15  1  0  0  0  0
  8  9  1  0  0  0  0
  8 15  1  0  0  0  0
  9 14  1  0  0  0  0
 10 13  1  0  0  0  0
 11 13  1  0  0  0  0
 12 13  1  0  0  0  0
 13 17  1  0  0  0  0
  2 18  1  0  0  0  0
  2 19  1  0  0  0  0
  3 20  1  0  0  0  0
  3 21  1  0  0  0  0
  4 22  1  0  0  0  0
  4 23  1  0  0  0  0
  5 24  1  0  0  0  0
  5 25  1  0  0  0  0
  6 26  1  0  0  0  0
  6 27  1  0  0  0  0
  7 28  1  0  0  0  0
  7 29  1  0  0  0  0
  8 30  1  0  0  0  0
  8 31  1  0  0  0  0
 10 32  1  0  0  0  0
 10 33  1  0  0  0  0
 10 34  1  0  0  0  0
 11 35  1  0  0  0  0
 11 36  1  0  0  0  0
 11 37  1  0  0  0  0
 12 38  1  0  0  0  0
 12 39  1  0  0  0  0
 12 40  1  0  0  0  0
 14 41  1  0  0  0  0
M  END
> <id>
EN300-306609

> <smiles>
CC(C)(C)OC(=O)N1CC2(C1)CCCCCN2

> <MDLNUMBER>
MFCD14581212

> <IUPAC Name>
tert-butyl 2,5-diazaspiro[3.6]decane-2-carboxylate

> <CAS>
1251022-83-9

> <Purity>
95

> <URL>
https://www.enaminestore.com/catalog/EN300-306609

> <ROCS_ShapeQuery>
amalgated

> <ROCS_TanimotoCombo>
0.818 

> <ROCS_ShapeTanimoto>
0.518 

> <ROCS_ColorTanimoto>
0.300 

> <ROCS_RefTversky>
0.504 

> <ROCS_RefColorTversky>
0.432 

> <ROCS_RefTverskyCombo>
0.936 

> <ROCS_FitTversky>
1.055 

> <ROCS_FitColorTversky>
0.496 

> <ROCS_FitTverskyCombo>
1.551 

> <ROCS_ColorScore>
-3.000

> <ROCS_Overlap>
827.894

> <ROCS_Rank>
423                 

$$$$
untitled-dbase-13577_0
  -OEChem-10092318153D

 28 30  0     1  0  0  0  0  0999 V2000
   -9.5631    0.8906  -11.9960 C   0  0  0  0  0  0  0  0  0  0  0  0
   -8.9481   -0.1019  -11.2361 C   0  0  0  0  0  0  0  0  0  0  0  0
   -9.6065    0.8000  -13.3918 C   0  0  0  0  0  0  0  0  0  0  0  0
   -8.3593   -1.2141  -11.8441 C   0  0  0  0  0  0  0  0  0  0  0  0
   -9.0183   -0.3111  -14.0294 C   0  0  0  0  0  0  0  0  0  0  0  0
   -8.8772   -0.7211  -15.3852 C   0  0  0  0  0  0  0  0  0  0  0  0
   -8.4097   -1.2935  -13.2404 C   0  0  0  0  0  0  0  0  0  0  0  0
   -8.2040   -1.9248  -15.3831 C   0  0  0  0  0  0  0  0  0  0  0  0
   -9.3487   -0.0732  -16.6417 C   0  0  0  0  0  0  0  0  0  0  0  0
   -7.8121   -2.7196  -16.5781 C   0  0  0  0  0  0  0  0  0  0  0  0
   -8.6634   -0.6867  -17.8803 C   0  0  0  0  0  0  0  0  0  0  0  0
   -8.6119   -2.2313  -17.8086 C   0  0  1  0  0  0  0  0  0  0  0  0
   -7.9217   -2.2627  -14.0910 N   0  0  0  0  0  0  0  0  0  0  0  0
   -8.0128   -2.7717  -19.0271 N   0  0  0  0  0  0  0  0  0  0  0  0
  -10.0157    1.7455  -11.5006 H   0  0  0  0  0  0  0  0  0  0  0  0
   -8.9257   -0.0112  -10.1530 H   0  0  0  0  0  0  0  0  0  0  0  0
  -10.0892    1.5823  -13.9707 H   0  0  0  0  0  0  0  0  0  0  0  0
   -7.8827   -1.9870  -11.2504 H   0  0  0  0  0  0  0  0  0  0  0  0
  -10.4335   -0.2126  -16.7229 H   0  0  0  0  0  0  0  0  0  0  0  0
   -9.1569    1.0052  -16.6139 H   0  0  0  0  0  0  0  0  0  0  0  0
   -6.7345   -2.5883  -16.7424 H   0  0  0  0  0  0  0  0  0  0  0  0
   -7.9931   -3.7879  -16.4112 H   0  0  0  0  0  0  0  0  0  0  0  0
   -9.1992   -0.3599  -18.7801 H   0  0  0  0  0  0  0  0  0  0  0  0
   -7.6414   -0.2909  -17.9575 H   0  0  0  0  0  0  0  0  0  0  0  0
   -9.6373   -2.6071  -17.7383 H   0  0  0  0  0  0  0  0  0  0  0  0
   -7.4278   -3.0945  -13.7977 H   0  0  0  0  0  0  0  0  0  0  0  0
   -8.0219   -3.7616  -18.9629 H   0  0  0  0  0  0  0  0  0  0  0  0
   -8.5540   -2.4640  -19.7994 H   0  0  0  0  0  0  0  0  0  0  0  0
  1  2  2  0  0  0  0
  1  3  1  0  0  0  0
  2  4  1  0  0  0  0
  3  5  2  0  0  0  0
  4  7  2  0  0  0  0
  5  6  1  0  0  0  0
  5  7  1  0  0  0  0
  6  8  2  0  0  0  0
  6  9  1  0  0  0  0
  7 13  1  0  0  0  0
  8 10  1  0  0  0  0
  8 13  1  0  0  0  0
  9 11  1  0  0  0  0
 10 12  1  0  0  0  0
 11 12  1  0  0  0  0
 12 14  1  0  0  0  0
  1 15  1  0  0  0  0
  2 16  1  0  0  0  0
  3 17  1  0  0  0  0
  4 18  1  0  0  0  0
  9 19  1  0  0  0  0
  9 20  1  0  0  0  0
 10 21  1  0  0  0  0
 10 22  1  0  0  0  0
 11 23  1  0  0  0  0
 11 24  1  0  0  0  0
 12 25  1  0  0  0  0
 13 26  1  0  0  0  0
 14 27  1  0  0  0  0
 14 28  1  0  0  0  0
M  END
> <id>
EN300-736518

> <smiles>
NC1CCC2=C(C1)NC=3C=CC=CC23

> <MDLNUMBER>
MFCD20696751

> <IUPAC Name>
2,3,4,9-tetrahydro-1H-carbazol-2-amine

> <CAS>
72898-07-8

> <Purity>
95

> <URL>
https://www.enaminestore.com/catalog/EN300-736518

> <ROCS_ShapeQuery>
amalgated

> <ROCS_TanimotoCombo>
0.818 

> <ROCS_ShapeTanimoto>
0.439 

> <ROCS_ColorTanimoto>
0.379 

> <ROCS_RefTversky>
0.434 

> <ROCS_RefColorTversky>
0.515 

> <ROCS_RefTverskyCombo>
0.949 

> <ROCS_FitTversky>
1.026 

> <ROCS_FitColorTversky>
0.589 

> <ROCS_FitTverskyCombo>
1.614 

> <ROCS_ColorScore>
-3.580

> <ROCS_Overlap>
710.818

> <ROCS_Rank>
424                 

$$$$
untitled-dbase-2851_1
  -OEChem-10092318153D

 34 36  0     0  0  0  0  0  0999 V2000
   -9.0392   -1.8093  -18.1081 C   0  0  0  0  0  0  0  0  0  0  0  0
   -8.8615   -2.8596  -17.2077 C   0  0  0  0  0  0  0  0  0  0  0  0
   -8.8629   -0.4905  -17.6890 C   0  0  0  0  0  0  0  0  0  0  0  0
   -8.5158   -2.5937  -15.8825 C   0  0  0  0  0  0  0  0  0  0  0  0
   -8.5135   -0.2288  -16.3614 C   0  0  0  0  0  0  0  0  0  0  0  0
   -8.3542   -1.2753  -15.4526 C   0  0  0  0  0  0  0  0  0  0  0  0
   -8.2750    1.1535  -15.9104 C   0  0  0  0  0  0  0  0  0  0  0  0
   -7.7493    1.3066  -14.5083 C   0  0  0  0  0  0  0  0  0  0  0  0
   -9.8028    0.3731  -13.2977 C   0  0  0  0  0  0  0  0  0  0  0  0
   -7.5419    0.2675  -12.2424 C   0  0  0  0  0  0  0  0  0  0  0  0
  -10.2988   -0.6223  -12.2430 C   0  0  0  0  0  0  0  0  0  0  0  0
   -8.1080   -0.7190  -11.2145 C   0  0  0  0  0  0  0  0  0  0  0  0
   -8.2938    0.2053  -13.5897 C   0  0  0  0  0  0  0  0  0  0  0  0
  -10.0570   -1.4075   -9.9794 C   0  0  0  0  0  0  0  0  0  0  0  0
   -9.5405   -0.4887  -10.9935 N   0  0  0  0  0  0  0  0  0  0  0  0
   -8.4384    2.1084  -16.6604 O   0  0  0  0  0  0  0  0  0  0  0  0
   -8.0287   -1.1012  -14.1358 O   0  0  0  0  0  0  0  0  0  0  0  0
   -9.3223   -2.0184  -19.1356 H   0  0  0  0  0  0  0  0  0  0  0  0
   -8.9907   -3.8858  -17.5391 H   0  0  0  0  0  0  0  0  0  0  0  0
   -9.0097    0.3139  -18.4040 H   0  0  0  0  0  0  0  0  0  0  0  0
   -8.3631   -3.4201  -15.1934 H   0  0  0  0  0  0  0  0  0  0  0  0
   -6.6542    1.2799  -14.5354 H   0  0  0  0  0  0  0  0  0  0  0  0
   -8.0639    2.2985  -14.1612 H   0  0  0  0  0  0  0  0  0  0  0  0
  -10.3807    0.2138  -14.2155 H   0  0  0  0  0  0  0  0  0  0  0  0
  -10.0071    1.3942  -12.9538 H   0  0  0  0  0  0  0  0  0  0  0  0
   -7.5999    1.2854  -11.8315 H   0  0  0  0  0  0  0  0  0  0  0  0
   -6.4760    0.0421  -12.3716 H   0  0  0  0  0  0  0  0  0  0  0  0
  -11.3594   -0.4154  -12.0547 H   0  0  0  0  0  0  0  0  0  0  0  0
  -10.2348   -1.6459  -12.6343 H   0  0  0  0  0  0  0  0  0  0  0  0
   -7.9200   -1.7501  -11.5420 H   0  0  0  0  0  0  0  0  0  0  0  0
   -7.5627   -0.5759  -10.2732 H   0  0  0  0  0  0  0  0  0  0  0  0
   -9.4776   -1.2935   -9.0514 H   0  0  0  0  0  0  0  0  0  0  0  0
  -11.1146   -1.1783   -9.7817 H   0  0  0  0  0  0  0  0  0  0  0  0
   -9.9677   -2.4420  -10.3425 H   0  0  0  0  0  0  0  0  0  0  0  0
  1  2  2  0  0  0  0
  1  3  1  0  0  0  0
  2  4  1  0  0  0  0
  3  5  2  0  0  0  0
  4  6  2  0  0  0  0
  5  6  1  0  0  0  0
  5  7  1  0  0  0  0
  6 17  1  0  0  0  0
  7  8  1  0  0  0  0
  7 16  2  0  0  0  0
  8 13  1  0  0  0  0
  9 11  1  0  0  0  0
  9 13  1  0  0  0  0
 10 12  1  0  0  0  0
 10 13  1  0  0  0  0
 11 15  1  0  0  0  0
 12 15  1  0  0  0  0
 13 17  1  0  0  0  0
 14 15  1  0  0  0  0
  1 18  1  0  0  0  0
  2 19  1  0  0  0  0
  3 20  1  0  0  0  0
  4 21  1  0  0  0  0
  8 22  1  0  0  0  0
  8 23  1  0  0  0  0
  9 24  1  0  0  0  0
  9 25  1  0  0  0  0
 10 26  1  0  0  0  0
 10 27  1  0  0  0  0
 11 28  1  0  0  0  0
 11 29  1  0  0  0  0
 12 30  1  0  0  0  0
 12 31  1  0  0  0  0
 14 32  1  0  0  0  0
 14 33  1  0  0  0  0
 14 34  1  0  0  0  0
M  END
> <id>
EN300-118282

> <smiles>
CN1CCC2(CC1)CC(=O)C=3C=CC=CC3O2

> <MDLNUMBER>
MFCD02327479

> <IUPAC Name>
1'-methyl-3,4-dihydrospiro[1-benzopyran-2,4'-piperidine]-4-one

> <CAS>
62756-24-5

> <Purity>
95

> <URL>
https://www.enaminestore.com/catalog/EN300-118282

> <ROCS_ShapeQuery>
amalgated

> <ROCS_TanimotoCombo>
0.818 

> <ROCS_ShapeTanimoto>
0.563 

> <ROCS_ColorTanimoto>
0.255 

> <ROCS_RefTversky>
0.540 

> <ROCS_RefColorTversky>
0.380 

> <ROCS_RefTverskyCombo>
0.919 

> <ROCS_FitTversky>
1.083 

> <ROCS_FitColorTversky>
0.436 

> <ROCS_FitTverskyCombo>
1.519 

> <ROCS_ColorScore>
-2.640

> <ROCS_Overlap>
887.126

> <ROCS_Rank>
425                 

$$$$
untitled-dbase-21899_8
  -OEChem-10092318153D

 42 45  0     0  0  0  0  0  0999 V2000
   -8.7108   -2.9158  -16.5427 C   0  0  0  0  0  0  0  0  0  0  0  0
   -9.0507   -2.4577  -17.8109 C   0  0  0  0  0  0  0  0  0  0  0  0
   -8.3442   -2.0082  -15.5489 C   0  0  0  0  0  0  0  0  0  0  0  0
   -9.0188   -1.0921  -18.0893 C   0  0  0  0  0  0  0  0  0  0  0  0
   -5.9464    1.6688  -13.8395 C   0  0  0  0  0  0  0  0  0  0  0  0
   -5.0008    2.5769  -14.2539 C   0  0  0  0  0  0  0  0  0  0  0  0
   -8.3195   -0.6261  -15.8097 C   0  0  0  0  0  0  0  0  0  0  0  0
   -6.8378    1.2795  -14.8938 C   0  0  0  0  0  0  0  0  0  0  0  0
   -8.6512   -0.1659  -17.0996 C   0  0  0  0  0  0  0  0  0  0  0  0
   -6.5302    1.9214  -16.0850 C   0  0  0  0  0  0  0  0  0  0  0  0
   -7.9184    0.3282  -14.7385 C   0  0  0  0  0  0  0  0  0  0  0  0
   -8.6537    0.2873  -13.6188 C   0  0  0  0  0  0  0  0  0  0  0  0
   -8.6023    1.3047  -17.4414 C   0  0  0  0  0  0  0  0  0  0  0  0
   -7.1703    1.8398  -17.4471 C   0  0  0  0  0  0  0  0  0  0  0  0
   -8.3925    1.1781  -12.4351 C   0  0  0  0  0  0  0  0  0  0  0  0
   -9.7899   -0.6786  -13.4213 C   0  0  0  0  0  0  0  0  0  0  0  0
   -8.2784    0.3455  -11.1531 C   0  0  0  0  0  0  0  0  0  0  0  0
   -9.6219   -1.4402  -12.1016 C   0  0  0  0  0  0  0  0  0  0  0  0
   -9.3490   -1.2642   -9.7123 C   0  0  0  0  0  0  0  0  0  0  0  0
   -9.4568   -0.5176  -10.9656 N   0  0  0  0  0  0  0  0  0  0  0  0
   -5.1702    2.9633  -15.9044 S   0  0  0  0  0  0  0  0  0  0  0  0
   -8.7281   -3.9799  -16.3263 H   0  0  0  0  0  0  0  0  0  0  0  0
   -9.3345   -3.1634  -18.5861 H   0  0  0  0  0  0  0  0  0  0  0  0
   -8.0732   -2.3929  -14.5680 H   0  0  0  0  0  0  0  0  0  0  0  0
   -9.2780   -0.7542  -19.0898 H   0  0  0  0  0  0  0  0  0  0  0  0
   -5.9848    1.2967  -12.8228 H   0  0  0  0  0  0  0  0  0  0  0  0
   -4.2156    3.0255  -13.6619 H   0  0  0  0  0  0  0  0  0  0  0  0
   -9.0361    1.4639  -18.4369 H   0  0  0  0  0  0  0  0  0  0  0  0
   -9.2387    1.8667  -16.7459 H   0  0  0  0  0  0  0  0  0  0  0  0
   -7.1952    2.8445  -17.8898 H   0  0  0  0  0  0  0  0  0  0  0  0
   -6.5393    1.2196  -18.0972 H   0  0  0  0  0  0  0  0  0  0  0  0
   -7.4770    1.7670  -12.5677 H   0  0  0  0  0  0  0  0  0  0  0  0
   -9.2212    1.8920  -12.3428 H   0  0  0  0  0  0  0  0  0  0  0  0
  -10.7319   -0.1152  -13.4086 H   0  0  0  0  0  0  0  0  0  0  0  0
   -9.8580   -1.3959  -14.2478 H   0  0  0  0  0  0  0  0  0  0  0  0
   -7.3584   -0.2543  -11.1816 H   0  0  0  0  0  0  0  0  0  0  0  0
   -8.1888    1.0368  -10.3060 H   0  0  0  0  0  0  0  0  0  0  0  0
  -10.5165   -2.0566  -11.9492 H   0  0  0  0  0  0  0  0  0  0  0  0
   -8.7650   -2.1238  -12.1746 H   0  0  0  0  0  0  0  0  0  0  0  0
  -10.2359   -1.9029   -9.5880 H   0  0  0  0  0  0  0  0  0  0  0  0
   -8.4459   -1.8916   -9.7360 H   0  0  0  0  0  0  0  0  0  0  0  0
   -9.2839   -0.5594   -8.8703 H   0  0  0  0  0  0  0  0  0  0  0  0
  1  2  2  0  0  0  0
  1  3  1  0  0  0  0
  2  4  1  0  0  0  0
  3  7  2  0  0  0  0
  4  9  2  0  0  0  0
  5  6  2  0  0  0  0
  5  8  1  0  0  0  0
  6 21  1  0  0  0  0
  7  9  1  0  0  0  0
  7 11  1  0  0  0  0
  8 10  2  0  0  0  0
  8 11  1  0  0  0  0
  9 13  1  0  0  0  0
 10 14  1  0  0  0  0
 10 21  1  0  0  0  0
 11 12  2  0  0  0  0
 12 15  1  0  0  0  0
 12 16  1  0  0  0  0
 13 14  1  0  0  0  0
 15 17  1  0  0  0  0
 16 18  1  0  0  0  0
 17 20  1  0  0  0  0
 18 20  1  0  0  0  0
 19 20  1  0  0  0  0
  1 22  1  0  0  0  0
  2 23  1  0  0  0  0
  3 24  1  0  0  0  0
  4 25  1  0  0  0  0
  5 26  1  0  0  0  0
  6 27  1  0  0  0  0
 13 28  1  0  0  0  0
 13 29  1  0  0  0  0
 14 30  1  0  0  0  0
 14 31  1  0  0  0  0
 15 32  1  0  0  0  0
 15 33  1  0  0  0  0
 16 34  1  0  0  0  0
 16 35  1  0  0  0  0
 17 36  1  0  0  0  0
 17 37  1  0  0  0  0
 18 38  1  0  0  0  0
 18 39  1  0  0  0  0
 19 40  1  0  0  0  0
 19 41  1  0  0  0  0
 19 42  1  0  0  0  0
M  END
> <id>
EN300-7361887

> <smiles>
CN1CCC(=C2C=3C=CSC3CCC=4C=CC=CC24)CC1

> <MDLNUMBER>
MFCD00864192

> <IUPAC Name>
1-methyl-4-{6-thiatricyclo[8.4.0.0,3,7]tetradeca-1(10),3(7),4,11,13-pentaen-2-ylidene}piperidine

> <CAS>
15574-96-6

> <URL>
https://www.enaminestore.com/catalog/EN300-7361887

> <ROCS_ShapeQuery>
amalgated

> <ROCS_TanimotoCombo>
0.817 

> <ROCS_ShapeTanimoto>
0.530 

> <ROCS_ColorTanimoto>
0.287 

> <ROCS_RefTversky>
0.552 

> <ROCS_RefColorTversky>
0.388 

> <ROCS_RefTverskyCombo>
0.940 

> <ROCS_FitTversky>
0.933 

> <ROCS_FitColorTversky>
0.524 

> <ROCS_FitTverskyCombo>
1.457 

> <ROCS_ColorScore>
-2.677

> <ROCS_Overlap>
911.542

> <ROCS_Rank>
426                 

$$$$
untitled-dbase-34197_82
  -OEChem-10092318153D

 38 39  0     1  0  0  0  0  0999 V2000
   -7.7469   -0.1010  -13.7482 C   0  0  0  0  0  0  0  0  0  0  0  0
   -9.8872   -2.8029  -17.3087 C   0  0  0  0  0  0  0  0  0  0  0  0
   -9.4286   -2.8600  -18.7636 C   0  0  0  0  0  0  0  0  0  0  0  0
   -7.3672   -1.8111  -17.9145 C   0  0  0  0  0  0  0  0  0  0  0  0
   -9.1366   -1.5570  -15.2130 C   0  0  0  0  0  0  0  0  0  0  0  0
   -7.7392    0.1047  -16.2635 C   0  0  0  0  0  0  0  0  0  0  0  0
   -9.5430   -1.4494  -16.6816 C   0  0  1  0  0  0  0  0  0  0  0  0
   -8.3417   -0.7681  -17.3621 C   0  0  2  0  0  0  0  0  0  0  0  0
   -9.6936    1.1087  -12.4790 C   0  0  0  0  0  0  0  0  0  0  0  0
  -10.2075   -1.0499  -11.3019 C   0  0  0  0  0  0  0  0  0  0  0  0
   -8.1846    0.2840  -10.6412 C   0  0  0  0  0  0  0  0  0  0  0  0
   -9.0996   -0.1221  -11.7957 C   0  0  0  0  0  0  0  0  0  0  0  0
   -7.9791   -2.6981  -18.9077 N   0  0  0  0  0  0  0  0  0  0  0  0
   -8.1793   -0.4850  -15.0071 N   0  0  0  0  0  0  0  0  0  0  0  0
   -6.9386    0.8013  -13.5413 O   0  0  0  0  0  0  0  0  0  0  0  0
   -8.3255   -0.8480  -12.7572 O   0  0  0  0  0  0  0  0  0  0  0  0
  -10.9665   -2.9673  -17.2563 H   0  0  0  0  0  0  0  0  0  0  0  0
   -9.4177   -3.6213  -16.7538 H   0  0  0  0  0  0  0  0  0  0  0  0
   -9.7182   -3.8317  -19.1985 H   0  0  0  0  0  0  0  0  0  0  0  0
   -9.9551   -2.0968  -19.3646 H   0  0  0  0  0  0  0  0  0  0  0  0
   -6.5084   -1.3047  -18.3702 H   0  0  0  0  0  0  0  0  0  0  0  0
   -6.9691   -2.4179  -17.0946 H   0  0  0  0  0  0  0  0  0  0  0  0
   -9.9912   -1.3615  -14.5515 H   0  0  0  0  0  0  0  0  0  0  0  0
   -8.7039   -2.5266  -14.9365 H   0  0  0  0  0  0  0  0  0  0  0  0
   -6.6379    0.1108  -16.2600 H   0  0  0  0  0  0  0  0  0  0  0  0
   -8.0759    1.1516  -16.3298 H   0  0  0  0  0  0  0  0  0  0  0  0
  -10.4435   -0.7883  -16.7808 H   0  0  0  0  0  0  0  0  0  0  0  0
   -8.6842   -0.1453  -18.1717 H   0  0  0  0  0  0  0  0  0  0  0  0
   -8.9015    1.7772  -12.8348 H   0  0  0  0  0  0  0  0  0  0  0  0
  -10.3240    0.8325  -13.3305 H   0  0  0  0  0  0  0  0  0  0  0  0
  -10.2982    1.6928  -11.7757 H   0  0  0  0  0  0  0  0  0  0  0  0
   -9.7859   -1.9344  -10.8110 H   0  0  0  0  0  0  0  0  0  0  0  0
  -10.8094   -1.4196  -12.1400 H   0  0  0  0  0  0  0  0  0  0  0  0
  -10.8723   -0.5444  -10.5941 H   0  0  0  0  0  0  0  0  0  0  0  0
   -7.7584   -0.5987  -10.1509 H   0  0  0  0  0  0  0  0  0  0  0  0
   -7.3620    0.9203  -10.9832 H   0  0  0  0  0  0  0  0  0  0  0  0
   -8.7460    0.8248   -9.8708 H   0  0  0  0  0  0  0  0  0  0  0  0
   -7.5317   -3.6276  -18.8535 H   0  0  0  0  0  0  0  0  0  0  0  0
  1 14  1  0  0  0  0
  1 15  2  0  0  0  0
  1 16  1  0  0  0  0
  2  3  1  0  0  0  0
  2  7  1  0  0  0  0
  3 13  1  0  0  0  0
  4  8  1  0  0  0  0
  4 13  1  0  0  0  0
  5  7  1  0  0  0  0
  5 14  1  0  0  0  0
  6  8  1  0  0  0  0
  6 14  1  0  0  0  0
  7  8  1  0  0  0  0
  9 12  1  0  0  0  0
 10 12  1  0  0  0  0
 11 12  1  0  0  0  0
 12 16  1  0  0  0  0
  2 17  1  0  0  0  0
  2 18  1  0  0  0  0
  3 19  1  0  0  0  0
  3 20  1  0  0  0  0
  4 21  1  0  0  0  0
  4 22  1  0  0  0  0
  5 23  1  0  0  0  0
  5 24  1  0  0  0  0
  6 25  1  0  0  0  0
  6 26  1  0  0  0  0
  7 27  1  0  0  0  0
  8 28  1  0  0  0  0
  9 29  1  0  0  0  0
  9 30  1  0  0  0  0
  9 31  1  0  0  0  0
 10 32  1  0  0  0  0
 10 33  1  0  0  0  0
 10 34  1  0  0  0  0
 11 35  1  0  0  0  0
 11 36  1  0  0  0  0
 11 37  1  0  0  0  0
 13 38  1  0  0  0  0
M  END
> <id>
EN300-89884

> <smiles>
CC(C)(C)OC(=O)N1CC2CCNCC2C1

> <MDLNUMBER>
MFCD08234697

> <IUPAC Name>
tert-butyl octahydro-1H-pyrrolo[3,4-c]pyridine-2-carboxylate

> <CAS>
885270-57-5

> <URL>
https://www.enaminestore.com/catalog/EN300-89884

> <ROCS_ShapeQuery>
amalgated

> <ROCS_TanimotoCombo>
0.817 

> <ROCS_ShapeTanimoto>
0.559 

> <ROCS_ColorTanimoto>
0.259 

> <ROCS_RefTversky>
0.522 

> <ROCS_RefColorTversky>
0.385 

> <ROCS_RefTverskyCombo>
0.907 

> <ROCS_FitTversky>
1.143 

> <ROCS_FitColorTversky>
0.440 

> <ROCS_FitTverskyCombo>
1.584 

> <ROCS_ColorScore>
-2.678

> <ROCS_Overlap>
856.661

> <ROCS_Rank>
427                 

$$$$
untitled-dbase-14980_76
  -OEChem-10092318153D

 44 46  0     1  0  0  0  0  0999 V2000
   -9.5418   -0.4529  -10.6171 C   0  0  0  0  0  0  0  0  0  0  0  0
   -8.1992   -0.6968  -16.7878 C   0  0  0  0  0  0  0  0  0  0  0  0
   -8.8221   -2.0757  -13.4736 C   0  0  0  0  0  0  0  0  0  0  0  0
  -11.0838   -1.7755   -9.7135 C   0  0  0  0  0  0  0  0  0  0  0  0
   -7.8179   -1.7113  -14.5642 C   0  0  0  0  0  0  0  0  0  0  0  0
  -11.1429   -1.9922  -11.2323 C   0  0  0  0  0  0  0  0  0  0  0  0
   -8.0259    0.7217  -12.2144 C   0  0  0  0  0  0  0  0  0  0  0  0
   -8.6077    0.6493  -14.7060 C   0  0  0  0  0  0  0  0  0  0  0  0
   -9.1172    0.4628  -13.2685 C   0  0  1  0  0  0  0  0  0  0  0  0
   -9.7586   -0.9236  -13.0742 C   0  0  2  0  0  0  0  0  0  0  0  0
   -6.9419   -1.6900  -19.1590 C   0  0  0  0  0  0  0  0  0  0  0  0
   -8.4753   -3.6654  -18.9229 C   0  0  0  0  0  0  0  0  0  0  0  0
   -9.4355   -1.3732  -19.2856 C   0  0  0  0  0  0  0  0  0  0  0  0
   -8.2993   -2.1732  -18.6502 C   0  0  0  0  0  0  0  0  0  0  0  0
   -9.9987   -0.7847   -9.4327 N   0  0  0  0  0  0  0  0  0  0  0  0
   -8.5379    0.4464  -10.8821 N   0  0  0  0  0  0  0  0  0  0  0  0
  -10.1446   -1.0650  -11.6847 N   0  0  0  0  0  0  0  0  0  0  0  0
   -8.2648   -0.6005  -15.3922 N   0  0  0  0  0  0  0  0  0  0  0  0
   -8.0336    0.2586  -17.5439 O   0  0  0  0  0  0  0  0  0  0  0  0
   -8.3473   -1.9853  -17.2312 O   0  0  0  0  0  0  0  0  0  0  0  0
   -9.4217   -2.9404  -13.8200 H   0  0  0  0  0  0  0  0  0  0  0  0
   -8.2655   -2.4437  -12.5878 H   0  0  0  0  0  0  0  0  0  0  0  0
  -12.0332   -1.3822   -9.3358 H   0  0  0  0  0  0  0  0  0  0  0  0
  -10.8567   -2.7111   -9.1921 H   0  0  0  0  0  0  0  0  0  0  0  0
   -6.8405   -1.4865  -14.1048 H   0  0  0  0  0  0  0  0  0  0  0  0
   -7.6535   -2.5736  -15.2340 H   0  0  0  0  0  0  0  0  0  0  0  0
  -10.8941   -3.0254  -11.4922 H   0  0  0  0  0  0  0  0  0  0  0  0
  -12.1329   -1.7483  -11.6293 H   0  0  0  0  0  0  0  0  0  0  0  0
   -7.1469    0.0924  -12.3876 H   0  0  0  0  0  0  0  0  0  0  0  0
   -7.6938    1.7640  -12.2641 H   0  0  0  0  0  0  0  0  0  0  0  0
   -9.3941    1.1344  -15.3177 H   0  0  0  0  0  0  0  0  0  0  0  0
   -7.7563    1.3560  -14.7131 H   0  0  0  0  0  0  0  0  0  0  0  0
   -9.9113    1.2225  -13.1068 H   0  0  0  0  0  0  0  0  0  0  0  0
  -10.6612   -0.9764  -13.7018 H   0  0  0  0  0  0  0  0  0  0  0  0
   -6.8117   -0.6193  -18.9651 H   0  0  0  0  0  0  0  0  0  0  0  0
   -6.1172   -2.2320  -18.6849 H   0  0  0  0  0  0  0  0  0  0  0  0
   -6.8625   -1.8195  -20.2444 H   0  0  0  0  0  0  0  0  0  0  0  0
   -9.4479   -4.0164  -18.5594 H   0  0  0  0  0  0  0  0  0  0  0  0
   -7.7172   -4.2515  -18.3908 H   0  0  0  0  0  0  0  0  0  0  0  0
   -8.4020   -3.8923  -19.9914 H   0  0  0  0  0  0  0  0  0  0  0  0
  -10.4093   -1.7195  -18.9208 H   0  0  0  0  0  0  0  0  0  0  0  0
   -9.3459   -0.3037  -19.0691 H   0  0  0  0  0  0  0  0  0  0  0  0
   -9.4468   -1.5086  -20.3731 H   0  0  0  0  0  0  0  0  0  0  0  0
   -8.0640    0.8995  -10.1049 H   0  0  0  0  0  0  0  0  0  0  0  0
  1 15  2  0  0  0  0
  1 16  1  0  0  0  0
  1 17  1  0  0  0  0
  2 18  1  0  0  0  0
  2 19  2  0  0  0  0
  2 20  1  0  0  0  0
  3  5  1  0  0  0  0
  3 10  1  0  0  0  0
  4  6  1  0  0  0  0
  4 15  1  0  0  0  0
  5 18  1  0  0  0  0
  6 17  1  0  0  0  0
  7  9  1  0  0  0  0
  7 16  1  0  0  0  0
  8  9  1  0  0  0  0
  8 18  1  0  0  0  0
  9 10  1  0  0  0  0
 10 17  1  0  0  0  0
 11 14  1  0  0  0  0
 12 14  1  0  0  0  0
 13 14  1  0  0  0  0
 14 20  1  0  0  0  0
  3 21  1  0  0  0  0
  3 22  1  0  0  0  0
  4 23  1  0  0  0  0
  4 24  1  0  0  0  0
  5 25  1  0  0  0  0
  5 26  1  0  0  0  0
  6 27  1  0  0  0  0
  6 28  1  0  0  0  0
  7 29  1  0  0  0  0
  7 30  1  0  0  0  0
  8 31  1  0  0  0  0
  8 32  1  0  0  0  0
  9 33  1  0  0  0  0
 10 34  1  0  0  0  0
 11 35  1  0  0  0  0
 11 36  1  0  0  0  0
 11 37  1  0  0  0  0
 12 38  1  0  0  0  0
 12 39  1  0  0  0  0
 12 40  1  0  0  0  0
 13 41  1  0  0  0  0
 13 42  1  0  0  0  0
 13 43  1  0  0  0  0
 16 44  1  0  0  0  0
M  END
> <id>
EN300-1118516

> <smiles>
CC(C)(C)OC(=O)N1CCC2C(CNC3=NCCN23)C1

> <MDLNUMBER>
MFCD30319980

> <IUPAC Name>
tert-butyl 2,5,7,11-tetraazatricyclo[7.4.0.0,2,6]tridec-5-ene-11-carboxylate

> <CAS>
1695380-59-6

> <URL>
https://www.enaminestore.com/catalog/EN300-1118516

> <ROCS_ShapeQuery>
amalgated

> <ROCS_TanimotoCombo>
0.817 

> <ROCS_ShapeTanimoto>
0.565 

> <ROCS_ColorTanimoto>
0.252 

> <ROCS_RefTversky>
0.567 

> <ROCS_RefColorTversky>
0.404 

> <ROCS_RefTverskyCombo>
0.971 

> <ROCS_FitTversky>
1.000 

> <ROCS_FitColorTversky>
0.402 

> <ROCS_FitTverskyCombo>
1.402 

> <ROCS_ColorScore>
-2.825

> <ROCS_Overlap>
936.556

> <ROCS_Rank>
428                 

$$$$
untitled-dbase-16651_16
  -OEChem-10092318153D

 44 47  0     1  0  0  0  0  0999 V2000
   -7.6478   -2.3105  -18.3644 C   0  0  0  0  0  0  0  0  0  0  0  0
   -9.1524   -2.3359  -18.6282 C   0  0  0  0  0  0  0  0  0  0  0  0
   -9.0588    1.5676  -11.9239 C   0  0  0  0  0  0  0  0  0  0  0  0
   -7.7196    0.8674  -11.6552 C   0  0  0  0  0  0  0  0  0  0  0  0
   -7.4347   -1.2315  -17.3085 C   0  0  0  0  0  0  0  0  0  0  0  0
   -9.7824   -1.3879  -17.6069 C   0  0  0  0  0  0  0  0  0  0  0  0
  -10.4395   -0.3329  -12.9474 C   0  0  0  0  0  0  0  0  0  0  0  0
   -8.2078   -1.5002  -12.5106 C   0  0  0  0  0  0  0  0  0  0  0  0
   -8.7533   -2.4274  -15.5044 C   0  0  0  0  0  0  0  0  0  0  0  0
   -8.9476    0.0896  -15.7281 C   0  0  0  0  0  0  0  0  0  0  0  0
  -10.1145    0.4841  -11.6754 C   0  0  1  0  0  0  0  0  0  0  0  0
   -8.1056   -0.5681  -11.2806 C   0  0  2  0  0  0  0  0  0  0  0  0
   -8.7364   -1.2325  -16.4877 C   0  0  0  0  0  0  0  0  0  0  0  0
   -9.2034   -1.0090  -13.5999 C   0  0  0  0  0  0  0  0  0  0  0  0
  -10.1196   -1.4788  -10.1672 C   0  0  0  0  0  0  0  0  0  0  0  0
   -9.6823   -2.1480  -14.4133 N   0  0  0  0  0  0  0  0  0  0  0  0
   -9.4124   -0.3153  -10.6674 N   0  0  0  0  0  0  0  0  0  0  0  0
   -8.4869   -0.0246  -14.3834 O   0  0  0  0  0  0  0  0  0  0  0  0
   -7.2771   -3.2809  -18.0251 H   0  0  0  0  0  0  0  0  0  0  0  0
   -7.1126   -2.0563  -19.2846 H   0  0  0  0  0  0  0  0  0  0  0  0
   -9.3602   -1.9966  -19.6489 H   0  0  0  0  0  0  0  0  0  0  0  0
   -9.5628   -3.3460  -18.5308 H   0  0  0  0  0  0  0  0  0  0  0  0
   -9.1820    2.3930  -11.2133 H   0  0  0  0  0  0  0  0  0  0  0  0
   -9.1115    1.9972  -12.9275 H   0  0  0  0  0  0  0  0  0  0  0  0
   -7.0432    0.9197  -12.5122 H   0  0  0  0  0  0  0  0  0  0  0  0
   -7.2173    1.3617  -10.8158 H   0  0  0  0  0  0  0  0  0  0  0  0
   -6.5845   -1.5094  -16.6759 H   0  0  0  0  0  0  0  0  0  0  0  0
   -7.2135   -0.2597  -17.7562 H   0  0  0  0  0  0  0  0  0  0  0  0
  -10.0729   -0.4380  -18.0716 H   0  0  0  0  0  0  0  0  0  0  0  0
  -10.6994   -1.8501  -17.2149 H   0  0  0  0  0  0  0  0  0  0  0  0
  -11.1794   -1.0968  -12.6648 H   0  0  0  0  0  0  0  0  0  0  0  0
  -10.9304    0.3301  -13.6733 H   0  0  0  0  0  0  0  0  0  0  0  0
   -7.2011   -1.6371  -12.9215 H   0  0  0  0  0  0  0  0  0  0  0  0
   -8.5274   -2.4897  -12.1492 H   0  0  0  0  0  0  0  0  0  0  0  0
   -9.0696   -3.3369  -16.0144 H   0  0  0  0  0  0  0  0  0  0  0  0
   -7.7527   -2.6146  -15.1154 H   0  0  0  0  0  0  0  0  0  0  0  0
   -8.4360    0.9191  -16.2236 H   0  0  0  0  0  0  0  0  0  0  0  0
  -10.0050    0.3631  -15.6804 H   0  0  0  0  0  0  0  0  0  0  0  0
  -11.0373    0.9445  -11.2873 H   0  0  0  0  0  0  0  0  0  0  0  0
   -7.3740   -0.9783  -10.5665 H   0  0  0  0  0  0  0  0  0  0  0  0
   -9.4966   -1.9947   -9.4217 H   0  0  0  0  0  0  0  0  0  0  0  0
  -11.0633   -1.1613   -9.6997 H   0  0  0  0  0  0  0  0  0  0  0  0
  -10.3355   -2.1630  -11.0011 H   0  0  0  0  0  0  0  0  0  0  0  0
  -10.5886   -1.9181  -14.8002 H   0  0  0  0  0  0  0  0  0  0  0  0
  1  2  1  0  0  0  0
  1  5  1  0  0  0  0
  2  6  1  0  0  0  0
  3  4  1  0  0  0  0
  3 11  1  0  0  0  0
  4 12  1  0  0  0  0
  5 13  1  0  0  0  0
  6 13  1  0  0  0  0
  7 11  1  0  0  0  0
  7 14  1  0  0  0  0
  8 12  1  0  0  0  0
  8 14  1  0  0  0  0
  9 13  1  0  0  0  0
  9 16  1  0  0  0  0
 10 13  1  0  0  0  0
 10 18  1  0  0  0  0
 11 17  1  0  0  0  0
 12 17  1  0  0  0  0
 14 16  1  0  0  0  0
 14 18  1  0  0  0  0
 15 17  1  0  0  0  0
  1 19  1  0  0  0  0
  1 20  1  0  0  0  0
  2 21  1  0  0  0  0
  2 22  1  0  0  0  0
  3 23  1  0  0  0  0
  3 24  1  0  0  0  0
  4 25  1  0  0  0  0
  4 26  1  0  0  0  0
  5 27  1  0  0  0  0
  5 28  1  0  0  0  0
  6 29  1  0  0  0  0
  6 30  1  0  0  0  0
  7 31  1  0  0  0  0
  7 32  1  0  0  0  0
  8 33  1  0  0  0  0
  8 34  1  0  0  0  0
  9 35  1  0  0  0  0
  9 36  1  0  0  0  0
 10 37  1  0  0  0  0
 10 38  1  0  0  0  0
 11 39  1  0  0  0  0
 12 40  1  0  0  0  0
 15 41  1  0  0  0  0
 15 42  1  0  0  0  0
 15 43  1  0  0  0  0
 16 44  1  0  0  0  0
M  END
> <id>
EN300-1278933

> <smiles>
CN1C2CCC1CC3(C2)NCC4(CCCC4)CO3

> <IUPAC Name>
8-methyldispiro[8-azabicyclo[3.2.1]octane-3,2'-[1,3]oxazinane-5',1''-cyclopentane]

> <URL>
https://www.enaminestore.com/catalog/EN300-1278933

> <ROCS_ShapeQuery>
amalgated

> <ROCS_TanimotoCombo>
0.817 

> <ROCS_ShapeTanimoto>
0.563 

> <ROCS_ColorTanimoto>
0.254 

> <ROCS_RefTversky>
0.548 

> <ROCS_RefColorTversky>
0.525 

> <ROCS_RefTverskyCombo>
1.074 

> <ROCS_FitTversky>
1.051 

> <ROCS_FitColorTversky>
0.329 

> <ROCS_FitTverskyCombo>
1.380 

> <ROCS_ColorScore>
-3.803

> <ROCS_Overlap>
902.893

> <ROCS_Rank>
429                 

$$$$
untitled-dbase-18332_12
  -OEChem-10092318153D

 31 33  0     0  0  0  0  0  0999 V2000
   -8.2720   -2.2093  -18.0482 C   0  0  0  0  0  0  0  0  0  0  0  0
   -7.9758    0.4281  -15.9061 C   0  0  0  0  0  0  0  0  0  0  0  0
   -7.5307   -1.9223  -15.0369 C   0  0  0  0  0  0  0  0  0  0  0  0
   -8.5944    0.8734  -14.5778 C   0  0  0  0  0  0  0  0  0  0  0  0
   -7.2620   -1.1316  -13.7523 C   0  0  0  0  0  0  0  0  0  0  0  0
  -10.1078   -0.3082  -11.9790 C   0  0  0  0  0  0  0  0  0  0  0  0
   -8.8702    0.0888  -11.2256 C   0  0  0  0  0  0  0  0  0  0  0  0
   -9.5974   -1.4443  -16.4636 C   0  0  0  0  0  0  0  0  0  0  0  0
   -8.1464   -1.0695  -16.1727 C   0  0  0  0  0  0  0  0  0  0  0  0
   -8.3710   -0.1289  -13.4336 C   0  0  0  0  0  0  0  0  0  0  0  0
   -7.4506   -1.4175  -17.4305 N   0  0  0  0  0  0  0  0  0  0  0  0
   -8.0807   -2.8715  -19.2229 N   0  0  0  0  0  0  0  0  0  0  0  0
   -9.4971   -2.4239  -17.4886 O   0  0  0  0  0  0  0  0  0  0  0  0
   -9.5892   -0.8577  -13.1884 O   0  0  0  0  0  0  0  0  0  0  0  0
   -8.0172    0.6043  -12.2460 O   0  0  0  0  0  0  0  0  0  0  0  0
   -8.4419    1.0041  -16.7202 H   0  0  0  0  0  0  0  0  0  0  0  0
   -6.9114    0.7075  -15.9054 H   0  0  0  0  0  0  0  0  0  0  0  0
   -6.5861   -2.3717  -15.3763 H   0  0  0  0  0  0  0  0  0  0  0  0
   -8.2070   -2.7595  -14.8095 H   0  0  0  0  0  0  0  0  0  0  0  0
   -8.1941    1.8586  -14.2882 H   0  0  0  0  0  0  0  0  0  0  0  0
   -9.6748    1.0300  -14.7261 H   0  0  0  0  0  0  0  0  0  0  0  0
   -7.1505   -1.8420  -12.9214 H   0  0  0  0  0  0  0  0  0  0  0  0
   -6.2985   -0.6084  -13.8297 H   0  0  0  0  0  0  0  0  0  0  0  0
  -10.7208   -1.0419  -11.4509 H   0  0  0  0  0  0  0  0  0  0  0  0
  -10.7216    0.5619  -12.2346 H   0  0  0  0  0  0  0  0  0  0  0  0
   -9.0524    0.8425  -10.4557 H   0  0  0  0  0  0  0  0  0  0  0  0
   -8.3761   -0.7784  -10.7746 H   0  0  0  0  0  0  0  0  0  0  0  0
  -10.1031   -1.9003  -15.6060 H   0  0  0  0  0  0  0  0  0  0  0  0
  -10.1982   -0.6005  -16.8143 H   0  0  0  0  0  0  0  0  0  0  0  0
   -8.8152   -3.4494  -19.5726 H   0  0  0  0  0  0  0  0  0  0  0  0
   -7.2117   -2.7600  -19.7004 H   0  0  0  0  0  0  0  0  0  0  0  0
  1 11  2  0  0  0  0
  1 12  1  0  0  0  0
  1 13  1  0  0  0  0
  2  4  1  0  0  0  0
  2  9  1  0  0  0  0
  3  5  1  0  0  0  0
  3  9  1  0  0  0  0
  4 10  1  0  0  0  0
  5 10  1  0  0  0  0
  6  7  1  0  0  0  0
  6 14  1  0  0  0  0
  7 15  1  0  0  0  0
  8  9  1  0  0  0  0
  8 13  1  0  0  0  0
  9 11  1  0  0  0  0
 10 14  1  0  0  0  0
 10 15  1  0  0  0  0
  2 16  1  0  0  0  0
  2 17  1  0  0  0  0
  3 18  1  0  0  0  0
  3 19  1  0  0  0  0
  4 20  1  0  0  0  0
  4 21  1  0  0  0  0
  5 22  1  0  0  0  0
  5 23  1  0  0  0  0
  6 24  1  0  0  0  0
  6 25  1  0  0  0  0
  7 26  1  0  0  0  0
  7 27  1  0  0  0  0
  8 28  1  0  0  0  0
  8 29  1  0  0  0  0
 12 30  1  0  0  0  0
 12 31  1  0  0  0  0
M  END
> <id>
EN300-1651542

> <smiles>
NC1=NC2(CO1)CCC3(CC2)OCCO3

> <IUPAC Name>
3,9,12-trioxa-1-azadispiro[4.2.4^{8}.2^{5}]tetradec-1-en-2-amine

> <CAS>
2172529-26-7

> <URL>
https://www.enaminestore.com/catalog/EN300-1651542

> <ROCS_ShapeQuery>
amalgated

> <ROCS_TanimotoCombo>
0.817 

> <ROCS_ShapeTanimoto>
0.509 

> <ROCS_ColorTanimoto>
0.308 

> <ROCS_RefTversky>
0.489 

> <ROCS_RefColorTversky>
0.471 

> <ROCS_RefTverskyCombo>
0.960 

> <ROCS_FitTversky>
1.087 

> <ROCS_FitColorTversky>
0.470 

> <ROCS_FitTverskyCombo>
1.557 

> <ROCS_ColorScore>
-3.297

> <ROCS_Overlap>
802.604

> <ROCS_Rank>
430                 

$$$$
untitled-dbase-43179_46
  -OEChem-10092318153D

 34 34  0     1  0  0  0  0  0999 V2000
   -9.1185   -1.6523  -14.4260 C   0  0  0  0  0  0  0  0  0  0  0  0
   -8.6272   -2.6919  -16.6852 C   0  0  0  0  0  0  0  0  0  0  0  0
   -8.8192   -0.2885  -16.4943 C   0  0  0  0  0  0  0  0  0  0  0  0
   -8.7900   -2.0980  -18.0912 C   0  0  2  0  0  0  0  0  0  0  0  0
   -8.2940   -0.6640  -17.8671 C   0  0  0  0  0  0  0  0  0  0  0  0
  -10.2600   -2.1395  -18.5360 C   0  0  0  0  0  0  0  0  0  0  0  0
   -7.7570   -1.2399  -12.2261 C   0  0  0  0  0  0  0  0  0  0  0  0
   -8.5038    1.1580  -12.2670 C   0  0  0  0  0  0  0  0  0  0  0  0
  -10.1218   -0.6446  -11.6029 C   0  0  0  0  0  0  0  0  0  0  0  0
   -8.9270   -0.2926  -12.4880 C   0  0  0  0  0  0  0  0  0  0  0  0
   -8.8786   -1.5626  -15.7864 N   0  0  0  0  0  0  0  0  0  0  0  0
   -7.9699   -2.8100  -19.0647 N   0  0  0  0  0  0  0  0  0  0  0  0
   -9.1498   -2.7090  -13.7993 O   0  0  0  0  0  0  0  0  0  0  0  0
   -9.3208   -0.4230  -13.8586 O   0  0  0  0  0  0  0  0  0  0  0  0
   -8.7093    0.1856  -18.8231 F   0  0  0  0  0  0  0  0  0  0  0  0
   -6.9382   -0.6219  -17.8402 F   0  0  0  0  0  0  0  0  0  0  0  0
   -9.3082   -3.5200  -16.4645 H   0  0  0  0  0  0  0  0  0  0  0  0
   -7.6016   -3.0264  -16.4873 H   0  0  0  0  0  0  0  0  0  0  0  0
   -8.1562    0.4007  -15.9620 H   0  0  0  0  0  0  0  0  0  0  0  0
   -9.8270    0.1382  -16.5314 H   0  0  0  0  0  0  0  0  0  0  0  0
  -10.3483   -1.7145  -19.5317 H   0  0  0  0  0  0  0  0  0  0  0  0
  -10.8641   -1.5636  -17.8410 H   0  0  0  0  0  0  0  0  0  0  0  0
  -10.6045   -3.1695  -18.5492 H   0  0  0  0  0  0  0  0  0  0  0  0
   -8.0567   -2.2821  -12.3837 H   0  0  0  0  0  0  0  0  0  0  0  0
   -6.9061   -1.0202  -12.8791 H   0  0  0  0  0  0  0  0  0  0  0  0
   -7.4218   -1.1687  -11.1850 H   0  0  0  0  0  0  0  0  0  0  0  0
   -9.3402    1.8412  -12.4538 H   0  0  0  0  0  0  0  0  0  0  0  0
   -7.7097    1.4438  -12.9662 H   0  0  0  0  0  0  0  0  0  0  0  0
   -8.1430    1.3226  -11.2465 H   0  0  0  0  0  0  0  0  0  0  0  0
  -10.9611    0.0348  -11.7906 H   0  0  0  0  0  0  0  0  0  0  0  0
  -10.4626   -1.6707  -11.7748 H   0  0  0  0  0  0  0  0  0  0  0  0
   -9.8667   -0.5354  -10.5426 H   0  0  0  0  0  0  0  0  0  0  0  0
   -8.5692   -3.1898  -19.7594 H   0  0  0  0  0  0  0  0  0  0  0  0
   -7.3331   -2.1634  -19.4678 H   0  0  0  0  0  0  0  0  0  0  0  0
  1 11  1  0  0  0  0
  1 13  2  0  0  0  0
  1 14  1  0  0  0  0
  2  4  1  0  0  0  0
  2 11  1  0  0  0  0
  3  5  1  0  0  0  0
  3 11  1  0  0  0  0
  4  5  1  0  0  0  0
  4  6  1  0  0  0  0
  4 12  1  0  0  0  0
  5 15  1  0  0  0  0
  5 16  1  0  0  0  0
  7 10  1  0  0  0  0
  8 10  1  0  0  0  0
  9 10  1  0  0  0  0
 10 14  1  0  0  0  0
  2 17  1  0  0  0  0
  2 18  1  0  0  0  0
  3 19  1  0  0  0  0
  3 20  1  0  0  0  0
  6 21  1  0  0  0  0
  6 22  1  0  0  0  0
  6 23  1  0  0  0  0
  7 24  1  0  0  0  0
  7 25  1  0  0  0  0
  7 26  1  0  0  0  0
  8 27  1  0  0  0  0
  8 28  1  0  0  0  0
  8 29  1  0  0  0  0
  9 30  1  0  0  0  0
  9 31  1  0  0  0  0
  9 32  1  0  0  0  0
 12 33  1  0  0  0  0
 12 34  1  0  0  0  0
M  END
> <id>
EN300-27736592

> <smiles>
CC(C)(C)OC(=O)N1CC(C)(N)C(F)(F)C1

> <MDLNUMBER>
MFCD33031999

> <IUPAC Name>
tert-butyl 3-amino-4,4-difluoro-3-methylpyrrolidine-1-carboxylate

> <CAS>
2613385-90-1

> <Purity>
95

> <URL>
https://www.enaminestore.com/catalog/EN300-27736592

> <ROCS_ShapeQuery>
amalgated

> <ROCS_TanimotoCombo>
0.817 

> <ROCS_ShapeTanimoto>
0.495 

> <ROCS_ColorTanimoto>
0.322 

> <ROCS_RefTversky>
0.484 

> <ROCS_RefColorTversky>
0.424 

> <ROCS_RefTverskyCombo>
0.907 

> <ROCS_FitTversky>
1.050 

> <ROCS_FitColorTversky>
0.573 

> <ROCS_FitTverskyCombo>
1.623 

> <ROCS_ColorScore>
-2.923

> <ROCS_Overlap>
793.566

> <ROCS_Rank>
431                 

$$$$
untitled-dbase-53338_13
  -OEChem-10092318153D

 35 36  0     1  0  0  0  0  0999 V2000
   -8.3685   -0.8717  -15.1664 C   0  0  0  0  0  0  0  0  0  0  0  0
   -8.9300    0.4536  -18.5288 C   0  0  0  0  0  0  0  0  0  0  0  0
   -8.7579   -3.2521  -17.6448 C   0  0  0  0  0  0  0  0  0  0  0  0
   -9.5866   -2.2351  -16.8503 C   0  0  0  0  0  0  0  0  0  0  0  0
   -7.2399   -1.4954  -18.3904 C   0  0  0  0  0  0  0  0  0  0  0  0
   -8.0957   -0.4862  -17.6505 C   0  0  1  0  0  0  0  0  0  0  0  0
   -7.7768    0.9727  -17.7623 C   0  0  0  0  0  0  0  0  0  0  0  0
   -9.7414    0.8985  -13.3854 C   0  0  0  0  0  0  0  0  0  0  0  0
  -10.5248   -1.1834  -12.2188 C   0  0  0  0  0  0  0  0  0  0  0  0
   -8.0714   -0.6556  -12.3220 C   0  0  0  0  0  0  0  0  0  0  0  0
   -9.4099   -0.5554  -13.0523 C   0  0  0  0  0  0  0  0  0  0  0  0
   -8.0790   -2.6341  -18.7918 N   0  0  0  0  0  0  0  0  0  0  0  0
   -8.7411   -1.0927  -16.4948 N   0  0  0  0  0  0  0  0  0  0  0  0
   -7.3176   -0.3329  -14.8239 O   0  0  0  0  0  0  0  0  0  0  0  0
   -9.3179   -1.2937  -14.2760 O   0  0  0  0  0  0  0  0  0  0  0  0
   -6.6474    1.4028  -18.4232 F   0  0  0  0  0  0  0  0  0  0  0  0
   -8.0111    1.8678  -16.7424 F   0  0  0  0  0  0  0  0  0  0  0  0
   -8.8276    0.3691  -19.6017 H   0  0  0  0  0  0  0  0  0  0  0  0
   -9.9072    0.7748  -18.1997 H   0  0  0  0  0  0  0  0  0  0  0  0
   -8.0052   -3.7021  -16.9882 H   0  0  0  0  0  0  0  0  0  0  0  0
   -9.3992   -4.0699  -17.9959 H   0  0  0  0  0  0  0  0  0  0  0  0
  -10.4476   -1.9121  -17.4418 H   0  0  0  0  0  0  0  0  0  0  0  0
   -9.9607   -2.6782  -15.9210 H   0  0  0  0  0  0  0  0  0  0  0  0
   -6.7850   -1.0307  -19.2728 H   0  0  0  0  0  0  0  0  0  0  0  0
   -6.4188   -1.8630  -17.7655 H   0  0  0  0  0  0  0  0  0  0  0  0
   -8.9435    1.3529  -13.9837 H   0  0  0  0  0  0  0  0  0  0  0  0
  -10.6818    0.9810  -13.9400 H   0  0  0  0  0  0  0  0  0  0  0  0
   -9.8239    1.4997  -12.4727 H   0  0  0  0  0  0  0  0  0  0  0  0
  -10.2911   -2.2267  -11.9775 H   0  0  0  0  0  0  0  0  0  0  0  0
  -11.4678   -1.1995  -12.7771 H   0  0  0  0  0  0  0  0  0  0  0  0
  -10.6853   -0.6387  -11.2828 H   0  0  0  0  0  0  0  0  0  0  0  0
   -7.8334   -1.6984  -12.0830 H   0  0  0  0  0  0  0  0  0  0  0  0
   -7.2532   -0.2429  -12.9211 H   0  0  0  0  0  0  0  0  0  0  0  0
   -8.1079   -0.1199  -11.3665 H   0  0  0  0  0  0  0  0  0  0  0  0
   -7.4895   -3.3336  -19.2447 H   0  0  0  0  0  0  0  0  0  0  0  0
  1 13  1  0  0  0  0
  1 14  2  0  0  0  0
  1 15  1  0  0  0  0
  2  6  1  0  0  0  0
  2  7  1  0  0  0  0
  3  4  1  0  0  0  0
  3 12  1  0  0  0  0
  4 13  1  0  0  0  0
  5  6  1  0  0  0  0
  5 12  1  0  0  0  0
  6  7  1  0  0  0  0
  6 13  1  0  0  0  0
  7 16  1  0  0  0  0
  7 17  1  0  0  0  0
  8 11  1  0  0  0  0
  9 11  1  0  0  0  0
 10 11  1  0  0  0  0
 11 15  1  0  0  0  0
  2 18  1  0  0  0  0
  2 19  1  0  0  0  0
  3 20  1  0  0  0  0
  3 21  1  0  0  0  0
  4 22  1  0  0  0  0
  4 23  1  0  0  0  0
  5 24  1  0  0  0  0
  5 25  1  0  0  0  0
  8 26  1  0  0  0  0
  8 27  1  0  0  0  0
  8 28  1  0  0  0  0
  9 29  1  0  0  0  0
  9 30  1  0  0  0  0
  9 31  1  0  0  0  0
 10 32  1  0  0  0  0
 10 33  1  0  0  0  0
 10 34  1  0  0  0  0
 12 35  1  0  0  0  0
M  END
> <id>
EN300-44832709

> <smiles>
CC(C)(C)OC(=O)N1CCNCC21CC2(F)F

> <IUPAC Name>
tert-butyl 1,1-difluoro-4,7-diazaspiro[2.5]octane-4-carboxylate

> <Purity>
95

> <URL>
https://www.enaminestore.com/catalog/EN300-44832709

> <ROCS_ShapeQuery>
amalgated

> <ROCS_TanimotoCombo>
0.817 

> <ROCS_ShapeTanimoto>
0.539 

> <ROCS_ColorTanimoto>
0.277 

> <ROCS_RefTversky>
0.522 

> <ROCS_RefColorTversky>
0.378 

> <ROCS_RefTverskyCombo>
0.899 

> <ROCS_FitTversky>
1.067 

> <ROCS_FitColorTversky>
0.511 

> <ROCS_FitTverskyCombo>
1.578 

> <ROCS_ColorScore>
-2.606

> <ROCS_Overlap>
857.482

> <ROCS_Rank>
432                 

$$$$
untitled-dbase-24632_15
  -OEChem-10092318153D

 35 36  0     1  0  0  0  0  0999 V2000
   -8.0599   -0.4422  -14.2819 C   0  0  0  0  0  0  0  0  0  0  0  0
   -9.5337   -2.8924  -16.6028 C   0  0  0  0  0  0  0  0  0  0  0  0
   -7.3750   -1.0506  -17.5691 C   0  0  0  0  0  0  0  0  0  0  0  0
   -9.4836   -2.2774  -15.2084 C   0  0  0  0  0  0  0  0  0  0  0  0
   -9.4300   -1.7017  -17.5705 C   0  0  1  0  0  0  0  0  0  0  0  0
   -8.6282   -0.6392  -16.7586 C   0  0  1  0  0  0  0  0  0  0  0  0
   -8.3388   -1.5522  -18.6646 C   0  0  2  0  0  0  0  0  0  0  0  0
   -9.8932    0.7397  -12.8324 C   0  0  0  0  0  0  0  0  0  0  0  0
   -9.8740   -1.2343  -11.2792 C   0  0  0  0  0  0  0  0  0  0  0  0
   -7.9735    0.4072  -11.2390 C   0  0  0  0  0  0  0  0  0  0  0  0
   -9.0168   -0.2856  -12.1144 C   0  0  0  0  0  0  0  0  0  0  0  0
   -8.6621   -1.0810  -15.3526 N   0  0  0  0  0  0  0  0  0  0  0  0
   -7.9087   -2.8593  -19.1358 N   0  0  0  0  0  0  0  0  0  0  0  0
   -7.3641    0.5657  -14.3773 O   0  0  0  0  0  0  0  0  0  0  0  0
   -8.3365   -1.0722  -13.0985 O   0  0  0  0  0  0  0  0  0  0  0  0
   -8.6897   -3.5808  -16.7213 H   0  0  0  0  0  0  0  0  0  0  0  0
  -10.4562   -3.4592  -16.7613 H   0  0  0  0  0  0  0  0  0  0  0  0
   -6.7266   -0.2212  -17.8674 H   0  0  0  0  0  0  0  0  0  0  0  0
   -6.7555   -1.8163  -17.0850 H   0  0  0  0  0  0  0  0  0  0  0  0
  -10.4764   -1.9515  -14.8794 H   0  0  0  0  0  0  0  0  0  0  0  0
   -9.0676   -2.9548  -14.4569 H   0  0  0  0  0  0  0  0  0  0  0  0
  -10.4222   -1.3511  -17.8803 H   0  0  0  0  0  0  0  0  0  0  0  0
   -8.9670    0.3915  -16.9107 H   0  0  0  0  0  0  0  0  0  0  0  0
   -8.5704   -0.8212  -19.4460 H   0  0  0  0  0  0  0  0  0  0  0  0
   -9.2817    1.4226  -13.4329 H   0  0  0  0  0  0  0  0  0  0  0  0
  -10.6228    0.2564  -13.4903 H   0  0  0  0  0  0  0  0  0  0  0  0
  -10.4359    1.3628  -12.1123 H   0  0  0  0  0  0  0  0  0  0  0  0
   -9.2492   -1.9717  -10.7623 H   0  0  0  0  0  0  0  0  0  0  0  0
  -10.5601   -1.8037  -11.9166 H   0  0  0  0  0  0  0  0  0  0  0  0
  -10.4632   -0.6939  -10.5313 H   0  0  0  0  0  0  0  0  0  0  0  0
   -7.3447   -0.3280  -10.7239 H   0  0  0  0  0  0  0  0  0  0  0  0
   -7.3252    1.0643  -11.8278 H   0  0  0  0  0  0  0  0  0  0  0  0
   -8.4557    1.0041  -10.4564 H   0  0  0  0  0  0  0  0  0  0  0  0
   -8.6349   -3.2502  -19.6913 H   0  0  0  0  0  0  0  0  0  0  0  0
   -7.0825   -2.7438  -19.6770 H   0  0  0  0  0  0  0  0  0  0  0  0
  1 12  1  0  0  0  0
  1 14  2  0  0  0  0
  1 15  1  0  0  0  0
  2  4  1  0  0  0  0
  2  5  1  6  0  0  0
  3  6  1  6  0  0  0
  3  7  1  0  0  0  0
  4 12  1  0  0  0  0
  5  6  1  0  0  0  0
  5  7  1  0  0  0  0
  6 12  1  0  0  0  0
  7 13  1  6  0  0  0
  8 11  1  0  0  0  0
  9 11  1  0  0  0  0
 10 11  1  0  0  0  0
 11 15  1  0  0  0  0
  2 16  1  0  0  0  0
  2 17  1  0  0  0  0
  3 18  1  0  0  0  0
  3 19  1  0  0  0  0
  4 20  1  0  0  0  0
  4 21  1  0  0  0  0
  5 22  1  0  0  0  0
  6 23  1  0  0  0  0
  7 24  1  0  0  0  0
  8 25  1  0  0  0  0
  8 26  1  0  0  0  0
  8 27  1  0  0  0  0
  9 28  1  0  0  0  0
  9 29  1  0  0  0  0
  9 30  1  0  0  0  0
 10 31  1  0  0  0  0
 10 32  1  0  0  0  0
 10 33  1  0  0  0  0
 13 34  1  0  0  0  0
 13 35  1  0  0  0  0
M  END
> <id>
EN300-6492238

> <smiles>
CC(C)(C)OC(=O)N1CC[C@@H]2[C@H](N)C[C@@H]21 |&1:10,11,14,r|

> <IUPAC Name>
rac-tert-butyl (1R,5S,6S)-6-amino-2-azabicyclo[3.2.0]heptane-2-carboxylate

> <CAS>
1314393-24-2

> <Purity>
95

> <URL>
https://www.enaminestore.com/catalog/EN300-6492238

> <ROCS_ShapeQuery>
amalgated

> <ROCS_TanimotoCombo>
0.817 

> <ROCS_ShapeTanimoto>
0.511 

> <ROCS_ColorTanimoto>
0.306 

> <ROCS_RefTversky>
0.485 

> <ROCS_RefColorTversky>
0.535 

> <ROCS_RefTverskyCombo>
1.020 

> <ROCS_FitTversky>
1.120 

> <ROCS_FitColorTversky>
0.416 

> <ROCS_FitTverskyCombo>
1.536 

> <ROCS_ColorScore>
-3.808

> <ROCS_Overlap>
794.273

> <ROCS_Rank>
433                 

$$$$
untitled-dbase-25090_26
  -OEChem-10092318153D

 38 39  0     1  0  0  0  0  0999 V2000
   -8.8295    0.1888  -13.9269 C   0  0  0  0  0  0  0  0  0  0  0  0
   -9.6519   -2.0444  -17.3239 C   0  0  0  0  0  0  0  0  0  0  0  0
   -9.0846   -3.2555  -18.0420 C   0  0  0  0  0  0  0  0  0  0  0  0
   -8.6182    0.1979  -16.4863 C   0  0  0  0  0  0  0  0  0  0  0  0
   -7.8353   -1.5579  -15.5513 C   0  0  0  0  0  0  0  0  0  0  0  0
   -7.3995   -1.6049  -18.1107 C   0  0  2  0  0  0  0  0  0  0  0  0
   -8.3829   -1.2591  -16.9798 C   0  0  0  0  0  0  0  0  0  0  0  0
   -7.1332   -0.4354  -19.0473 C   0  0  0  0  0  0  0  0  0  0  0  0
  -10.7539    0.5400  -11.8472 C   0  0  0  0  0  0  0  0  0  0  0  0
   -9.8501   -1.6044  -10.9017 C   0  0  0  0  0  0  0  0  0  0  0  0
   -8.3503    0.3990  -11.1139 C   0  0  0  0  0  0  0  0  0  0  0  0
   -9.5257   -0.3610  -11.7269 C   0  0  0  0  0  0  0  0  0  0  0  0
   -8.0440   -2.6781  -18.8908 N   0  0  0  0  0  0  0  0  0  0  0  0
   -8.4875   -0.3305  -15.1437 N   0  0  0  0  0  0  0  0  0  0  0  0
   -8.8443    1.3888  -13.6677 O   0  0  0  0  0  0  0  0  0  0  0  0
   -9.1515   -0.7988  -13.0378 O   0  0  0  0  0  0  0  0  0  0  0  0
  -10.2901   -1.4645  -18.0024 H   0  0  0  0  0  0  0  0  0  0  0  0
  -10.2449   -2.3229  -16.4472 H   0  0  0  0  0  0  0  0  0  0  0  0
   -8.6429   -3.9627  -17.3301 H   0  0  0  0  0  0  0  0  0  0  0  0
   -9.8431   -3.7775  -18.6315 H   0  0  0  0  0  0  0  0  0  0  0  0
   -7.8375    0.9304  -16.7073 H   0  0  0  0  0  0  0  0  0  0  0  0
   -9.6020    0.6221  -16.7028 H   0  0  0  0  0  0  0  0  0  0  0  0
   -8.2212   -2.4569  -15.0636 H   0  0  0  0  0  0  0  0  0  0  0  0
   -6.7493   -1.5036  -15.4258 H   0  0  0  0  0  0  0  0  0  0  0  0
   -6.4490   -1.9726  -17.7064 H   0  0  0  0  0  0  0  0  0  0  0  0
   -8.0727   -0.0612  -19.4558 H   0  0  0  0  0  0  0  0  0  0  0  0
   -6.4928   -0.7534  -19.8709 H   0  0  0  0  0  0  0  0  0  0  0  0
   -6.6375    0.3719  -18.5069 H   0  0  0  0  0  0  0  0  0  0  0  0
  -10.5251    1.4336  -12.4388 H   0  0  0  0  0  0  0  0  0  0  0  0
  -11.5932    0.0172  -12.3173 H   0  0  0  0  0  0  0  0  0  0  0  0
  -11.0759    0.8957  -10.8618 H   0  0  0  0  0  0  0  0  0  0  0  0
   -8.9717   -2.2538  -10.8128 H   0  0  0  0  0  0  0  0  0  0  0  0
  -10.6287   -2.2033  -11.3880 H   0  0  0  0  0  0  0  0  0  0  0  0
  -10.1916   -1.3434   -9.8949 H   0  0  0  0  0  0  0  0  0  0  0  0
   -7.4692   -0.2471  -11.0275 H   0  0  0  0  0  0  0  0  0  0  0  0
   -8.0795    1.2744  -11.7131 H   0  0  0  0  0  0  0  0  0  0  0  0
   -8.5896    0.7330  -10.0978 H   0  0  0  0  0  0  0  0  0  0  0  0
   -7.3638   -3.3867  -19.1605 H   0  0  0  0  0  0  0  0  0  0  0  0
  1 14  1  0  0  0  0
  1 15  2  0  0  0  0
  1 16  1  0  0  0  0
  2  3  1  0  0  0  0
  2  7  1  0  0  0  0
  3 13  1  0  0  0  0
  4  7  1  0  0  0  0
  4 14  1  0  0  0  0
  5  7  1  0  0  0  0
  5 14  1  0  0  0  0
  6  7  1  0  0  0  0
  6  8  1  0  0  0  0
  6 13  1  0  0  0  0
  9 12  1  0  0  0  0
 10 12  1  0  0  0  0
 11 12  1  0  0  0  0
 12 16  1  0  0  0  0
  2 17  1  0  0  0  0
  2 18  1  0  0  0  0
  3 19  1  0  0  0  0
  3 20  1  0  0  0  0
  4 21  1  0  0  0  0
  4 22  1  0  0  0  0
  5 23  1  0  0  0  0
  5 24  1  0  0  0  0
  6 25  1  0  0  0  0
  8 26  1  0  0  0  0
  8 27  1  0  0  0  0
  8 28  1  0  0  0  0
  9 29  1  0  0  0  0
  9 30  1  0  0  0  0
  9 31  1  0  0  0  0
 10 32  1  0  0  0  0
 10 33  1  0  0  0  0
 10 34  1  0  0  0  0
 11 35  1  0  0  0  0
 11 36  1  0  0  0  0
 11 37  1  0  0  0  0
 13 38  1  0  0  0  0
M  END
> <id>
EN300-1633511

> <smiles>
CC1NCCC21CN(C2)C(=O)OC(C)(C)C

> <MDLNUMBER>
MFCD32703003

> <IUPAC Name>
tert-butyl 5-methyl-2,6-diazaspiro[3.4]octane-2-carboxylate

> <CAS>
2172213-54-4

> <Purity>
95

> <URL>
https://www.enaminestore.com/catalog/EN300-1633511

> <ROCS_ShapeQuery>
amalgated

> <ROCS_TanimotoCombo>
0.817 

> <ROCS_ShapeTanimoto>
0.576 

> <ROCS_ColorTanimoto>
0.241 

> <ROCS_RefTversky>
0.532 

> <ROCS_RefColorTversky>
0.364 

> <ROCS_RefTverskyCombo>
0.896 

> <ROCS_FitTversky>
1.164 

> <ROCS_FitColorTversky>
0.417 

> <ROCS_FitTverskyCombo>
1.581 

> <ROCS_ColorScore>
-2.529

> <ROCS_Overlap>
873.596

> <ROCS_Rank>
434                 

$$$$
untitled-dbase-50094_80
  -OEChem-10092318153D

 44 45  0     1  0  0  0  0  0999 V2000
   -8.5807   -1.7682  -14.5910 C   0  0  0  0  0  0  0  0  0  0  0  0
   -8.1052    1.8319  -17.1410 C   0  0  0  0  0  0  0  0  0  0  0  0
   -8.4996    0.8913  -16.0121 C   0  0  0  0  0  0  0  0  0  0  0  0
   -7.1403    1.0169  -18.0033 C   0  0  0  0  0  0  0  0  0  0  0  0
   -9.3848   -2.8330  -18.2082 C   0  0  0  0  0  0  0  0  0  0  0  0
   -9.3728   -2.8538  -16.6786 C   0  0  0  0  0  0  0  0  0  0  0  0
   -7.6958   -1.2599  -18.9837 C   0  0  0  0  0  0  0  0  0  0  0  0
   -8.6493   -0.4422  -16.7504 C   0  0  1  0  0  0  0  0  0  0  0  0
   -7.4082   -0.4833  -17.6805 C   0  0  2  0  0  0  0  0  0  0  0  0
   -6.1637   -1.0729  -16.9813 C   0  0  0  0  0  0  0  0  0  0  0  0
   -8.0658   -1.4056  -11.7935 C   0  0  0  0  0  0  0  0  0  0  0  0
   -9.2573    0.7912  -12.0462 C   0  0  0  0  0  0  0  0  0  0  0  0
  -10.4867   -1.3555  -12.4803 C   0  0  0  0  0  0  0  0  0  0  0  0
   -9.1392   -0.6400  -12.5658 C   0  0  0  0  0  0  0  0  0  0  0  0
   -8.0570   -2.6687  -18.7997 N   0  0  0  0  0  0  0  0  0  0  0  0
   -8.8589   -1.6705  -15.9689 N   0  0  0  0  0  0  0  0  0  0  0  0
   -8.2225   -2.7828  -14.0003 O   0  0  0  0  0  0  0  0  0  0  0  0
   -8.7472   -0.5686  -13.9417 O   0  0  0  0  0  0  0  0  0  0  0  0
   -8.9675    2.1555  -17.7251 H   0  0  0  0  0  0  0  0  0  0  0  0
   -7.6156    2.7229  -16.7439 H   0  0  0  0  0  0  0  0  0  0  0  0
   -7.7174    0.8510  -15.2642 H   0  0  0  0  0  0  0  0  0  0  0  0
   -9.4214    1.2256  -15.5579 H   0  0  0  0  0  0  0  0  0  0  0  0
   -7.3479    1.2232  -19.0673 H   0  0  0  0  0  0  0  0  0  0  0  0
   -6.0936    1.3131  -17.8298 H   0  0  0  0  0  0  0  0  0  0  0  0
   -9.7557   -3.8069  -18.5511 H   0  0  0  0  0  0  0  0  0  0  0  0
  -10.0965   -2.0957  -18.5995 H   0  0  0  0  0  0  0  0  0  0  0  0
  -10.4255   -3.0423  -16.3669 H   0  0  0  0  0  0  0  0  0  0  0  0
   -8.8536   -3.7517  -16.2726 H   0  0  0  0  0  0  0  0  0  0  0  0
   -8.4804   -0.7623  -19.5633 H   0  0  0  0  0  0  0  0  0  0  0  0
   -6.8014   -1.2369  -19.6149 H   0  0  0  0  0  0  0  0  0  0  0  0
   -9.5337   -0.3847  -17.3993 H   0  0  0  0  0  0  0  0  0  0  0  0
   -6.3510   -2.1147  -16.7577 H   0  0  0  0  0  0  0  0  0  0  0  0
   -5.9841   -0.5220  -16.0678 H   0  0  0  0  0  0  0  0  0  0  0  0
   -5.3149   -0.9808  -17.6456 H   0  0  0  0  0  0  0  0  0  0  0  0
   -7.9780   -2.4334  -12.1635 H   0  0  0  0  0  0  0  0  0  0  0  0
   -7.0872   -0.9216  -11.8758 H   0  0  0  0  0  0  0  0  0  0  0  0
   -8.3266   -1.4805  -10.7316 H   0  0  0  0  0  0  0  0  0  0  0  0
  -10.0263    1.3442  -12.5975 H   0  0  0  0  0  0  0  0  0  0  0  0
   -8.3189    1.3383  -12.1928 H   0  0  0  0  0  0  0  0  0  0  0  0
   -9.5097    0.8149  -10.9812 H   0  0  0  0  0  0  0  0  0  0  0  0
  -11.2568   -0.8065  -13.0342 H   0  0  0  0  0  0  0  0  0  0  0  0
  -10.4298   -2.3720  -12.8830 H   0  0  0  0  0  0  0  0  0  0  0  0
  -10.8331   -1.4112  -11.4420 H   0  0  0  0  0  0  0  0  0  0  0  0
   -7.3615   -3.1443  -18.2410 H   0  0  0  0  0  0  0  0  0  0  0  0
  1 16  1  0  0  0  0
  1 17  2  0  0  0  0
  1 18  1  0  0  0  0
  2  3  1  0  0  0  0
  2  4  1  0  0  0  0
  3  8  1  6  0  0  0
  4  9  1  0  0  0  0
  5  6  1  0  0  0  0
  5 15  1  0  0  0  0
  6 16  1  0  0  0  0
  7  9  1  0  0  0  0
  7 15  1  0  0  0  0
  8  9  1  0  0  0  0
  8 16  1  0  0  0  0
  9 10  1  6  0  0  0
 11 14  1  0  0  0  0
 12 14  1  0  0  0  0
 13 14  1  0  0  0  0
 14 18  1  0  0  0  0
  2 19  1  0  0  0  0
  2 20  1  0  0  0  0
  3 21  1  0  0  0  0
  3 22  1  0  0  0  0
  4 23  1  0  0  0  0
  4 24  1  0  0  0  0
  5 25  1  0  0  0  0
  5 26  1  0  0  0  0
  6 27  1  0  0  0  0
  6 28  1  0  0  0  0
  7 29  1  0  0  0  0
  7 30  1  0  0  0  0
  8 31  1  0  0  0  0
 10 32  1  0  0  0  0
 10 33  1  0  0  0  0
 10 34  1  0  0  0  0
 11 35  1  0  0  0  0
 11 36  1  0  0  0  0
 11 37  1  0  0  0  0
 12 38  1  0  0  0  0
 12 39  1  0  0  0  0
 12 40  1  0  0  0  0
 13 41  1  0  0  0  0
 13 42  1  0  0  0  0
 13 43  1  0  0  0  0
 15 44  1  0  0  0  0
M  END
> <id>
EN300-37335401

> <smiles>
CC(C)(C)OC(=O)N1CCNC[C@@]2(C)CCC[C@H]12 |&1:12,17,r|

> <IUPAC Name>
rac-tert-butyl (5aR,8aS)-5a-methyl-decahydrocyclopenta[e][1,4]diazepine-1-carboxylate

> <Purity>
95

> <URL>
https://www.enaminestore.com/catalog/EN300-37335401

> <ROCS_ShapeQuery>
amalgated

> <ROCS_TanimotoCombo>
0.816 

> <ROCS_ShapeTanimoto>
0.550 

> <ROCS_ColorTanimoto>
0.266 

> <ROCS_RefTversky>
0.533 

> <ROCS_RefColorTversky>
0.394 

> <ROCS_RefTverskyCombo>
0.927 

> <ROCS_FitTversky>
1.060 

> <ROCS_FitColorTversky>
0.452 

> <ROCS_FitTverskyCombo>
1.512 

> <ROCS_ColorScore>
-2.737

> <ROCS_Overlap>
877.023

> <ROCS_Rank>
435                 

$$$$
untitled-dbase-15861_12
  -OEChem-10092318153D

 37 39  0     1  0  0  0  0  0999 V2000
   -7.0828   -0.0424  -18.7708 C   0  0  0  0  0  0  0  0  0  0  0  0
   -6.7754    1.3136  -18.6859 C   0  0  0  0  0  0  0  0  0  0  0  0
   -7.8246    1.4038  -16.5187 C   0  0  0  0  0  0  0  0  0  0  0  0
   -7.7828   -0.6949  -17.7388 C   0  0  0  0  0  0  0  0  0  0  0  0
   -8.1609    0.0392  -16.5837 C   0  0  0  0  0  0  0  0  0  0  0  0
   -7.1451    2.0355  -17.5607 C   0  0  0  0  0  0  0  0  0  0  0  0
   -8.5822   -0.4553  -12.3801 C   0  0  0  0  0  0  0  0  0  0  0  0
   -8.3663   -1.7485  -13.1618 C   0  0  0  0  0  0  0  0  0  0  0  0
   -8.9522    0.7297  -13.2692 C   0  0  0  0  0  0  0  0  0  0  0  0
   -9.4343   -2.5425  -17.2056 C   0  0  0  0  0  0  0  0  0  0  0  0
   -7.8798   -1.4843  -14.5853 C   0  0  0  0  0  0  0  0  0  0  0  0
   -9.7258    0.2819  -14.5087 C   0  0  0  0  0  0  0  0  0  0  0  0
   -9.9508   -1.6137  -16.1031 C   0  0  0  0  0  0  0  0  0  0  0  0
   -8.0572   -2.1871  -17.7808 C   0  0  1  0  0  0  0  0  0  0  0  0
   -8.9056   -0.6779  -15.4386 C   0  0  0  0  0  0  0  0  0  0  0  0
   -7.9542   -2.8248  -19.0986 N   0  0  0  0  0  0  0  0  0  0  0  0
   -6.7564    3.7090  -17.4466 Cl  0  0  0  0  0  0  0  0  0  0  0  0
   -6.7678   -0.5943  -19.6533 H   0  0  0  0  0  0  0  0  0  0  0  0
   -6.2400    1.7883  -19.5060 H   0  0  0  0  0  0  0  0  0  0  0  0
   -8.0759    1.9882  -15.6390 H   0  0  0  0  0  0  0  0  0  0  0  0
   -9.3681   -0.6087  -11.6258 H   0  0  0  0  0  0  0  0  0  0  0  0
   -7.6639   -0.2142  -11.8220 H   0  0  0  0  0  0  0  0  0  0  0  0
   -7.6284   -2.3668  -12.6361 H   0  0  0  0  0  0  0  0  0  0  0  0
   -9.2944   -2.3308  -13.1761 H   0  0  0  0  0  0  0  0  0  0  0  0
   -9.5361    1.4582  -12.6943 H   0  0  0  0  0  0  0  0  0  0  0  0
   -8.0359    1.2467  -13.5801 H   0  0  0  0  0  0  0  0  0  0  0  0
   -9.4119   -3.5905  -16.8232 H   0  0  0  0  0  0  0  0  0  0  0  0
  -10.1882   -2.5861  -18.0284 H   0  0  0  0  0  0  0  0  0  0  0  0
   -6.9403   -0.9296  -14.5112 H   0  0  0  0  0  0  0  0  0  0  0  0
   -7.6340   -2.4330  -15.0655 H   0  0  0  0  0  0  0  0  0  0  0  0
  -10.6621   -0.2016  -14.2038 H   0  0  0  0  0  0  0  0  0  0  0  0
  -10.0210    1.1893  -15.0456 H   0  0  0  0  0  0  0  0  0  0  0  0
  -10.7833   -1.0044  -16.5259 H   0  0  0  0  0  0  0  0  0  0  0  0
  -10.4651   -2.2462  -15.3465 H   0  0  0  0  0  0  0  0  0  0  0  0
   -7.3272   -2.7028  -17.1199 H   0  0  0  0  0  0  0  0  0  0  0  0
   -7.0248   -2.7084  -19.4199 H   0  0  0  0  0  0  0  0  0  0  0  0
   -8.1757   -3.7837  -18.9889 H   0  0  0  0  0  0  0  0  0  0  0  0
  1  2  1  0  0  0  0
  1  4  2  0  0  0  0
  2  6  2  0  0  0  0
  3  5  2  0  0  0  0
  3  6  1  0  0  0  0
  4  5  1  0  0  0  0
  4 14  1  0  0  0  0
  5 15  1  0  0  0  0
  6 17  1  0  0  0  0
  7  8  1  0  0  0  0
  7  9  1  0  0  0  0
  8 11  1  0  0  0  0
  9 12  1  0  0  0  0
 10 13  1  0  0  0  0
 10 14  1  0  0  0  0
 11 15  1  0  0  0  0
 12 15  1  0  0  0  0
 13 15  1  0  0  0  0
 14 16  1  0  0  0  0
  1 18  1  0  0  0  0
  2 19  1  0  0  0  0
  3 20  1  0  0  0  0
  7 21  1  0  0  0  0
  7 22  1  0  0  0  0
  8 23  1  0  0  0  0
  8 24  1  0  0  0  0
  9 25  1  0  0  0  0
  9 26  1  0  0  0  0
 10 27  1  0  0  0  0
 10 28  1  0  0  0  0
 11 29  1  0  0  0  0
 11 30  1  0  0  0  0
 12 31  1  0  0  0  0
 12 32  1  0  0  0  0
 13 33  1  0  0  0  0
 13 34  1  0  0  0  0
 14 35  1  0  0  0  0
 16 36  1  0  0  0  0
 16 37  1  0  0  0  0
M  END
> <id>
EN300-1458044

> <smiles>
NC1CCC2(CCCCC2)C=3C=C(Cl)C=CC13

> <IUPAC Name>
7'-chloro-3',4'-dihydro-2'H-spiro[cyclohexane-1,1'-naphthalene]-4'-amine

> <CAS>
2172528-31-1

> <URL>
https://www.enaminestore.com/catalog/EN300-1458044

> <ROCS_ShapeQuery>
amalgated

> <ROCS_TanimotoCombo>
0.816 

> <ROCS_ShapeTanimoto>
0.503 

> <ROCS_ColorTanimoto>
0.313 

> <ROCS_RefTversky>
0.495 

> <ROCS_RefColorTversky>
0.415 

> <ROCS_RefTverskyCombo>
0.909 

> <ROCS_FitTversky>
1.035 

> <ROCS_FitColorTversky>
0.561 

> <ROCS_FitTverskyCombo>
1.596 

> <ROCS_ColorScore>
-2.861

> <ROCS_Overlap>
812.394

> <ROCS_Rank>
436                 

$$$$
untitled-dbase-34874_83
  -OEChem-10092318153D

 38 39  0     1  0  0  0  0  0999 V2000
   -7.7446   -0.1537  -13.7143 C   0  0  0  0  0  0  0  0  0  0  0  0
   -9.9128   -2.7630  -17.3261 C   0  0  0  0  0  0  0  0  0  0  0  0
   -9.4377   -2.8201  -18.7756 C   0  0  0  0  0  0  0  0  0  0  0  0
   -7.3590   -1.8363  -17.8915 C   0  0  0  0  0  0  0  0  0  0  0  0
   -9.1563   -1.5560  -15.2100 C   0  0  0  0  0  0  0  0  0  0  0  0
   -7.6986    0.0743  -16.2274 C   0  0  0  0  0  0  0  0  0  0  0  0
   -9.5397   -1.4248  -16.6828 C   0  0  1  0  0  0  0  0  0  0  0  0
   -8.3111   -0.7715  -17.3415 C   0  0  2  0  0  0  0  0  0  0  0  0
   -9.6722    1.0995  -12.4588 C   0  0  0  0  0  0  0  0  0  0  0  0
  -10.2623   -1.0539  -11.3082 C   0  0  0  0  0  0  0  0  0  0  0  0
   -8.2110    0.2158  -10.6098 C   0  0  0  0  0  0  0  0  0  0  0  0
   -9.1222   -0.1538  -11.7794 C   0  0  0  0  0  0  0  0  0  0  0  0
   -7.9826   -2.6965  -18.9009 N   0  0  0  0  0  0  0  0  0  0  0  0
   -8.1718   -0.5135  -14.9821 N   0  0  0  0  0  0  0  0  0  0  0  0
   -6.9138    0.7234  -13.4888 O   0  0  0  0  0  0  0  0  0  0  0  0
   -8.3569   -0.8929  -12.7376 O   0  0  0  0  0  0  0  0  0  0  0  0
  -10.9968   -2.8988  -17.2882 H   0  0  0  0  0  0  0  0  0  0  0  0
   -9.4724   -3.5986  -16.7730 H   0  0  0  0  0  0  0  0  0  0  0  0
   -9.7483   -3.7798  -19.2228 H   0  0  0  0  0  0  0  0  0  0  0  0
   -9.9360   -2.0380  -19.3765 H   0  0  0  0  0  0  0  0  0  0  0  0
   -6.4805   -1.3503  -18.3314 H   0  0  0  0  0  0  0  0  0  0  0  0
   -6.9894   -2.4617  -17.0722 H   0  0  0  0  0  0  0  0  0  0  0  0
  -10.0137   -1.3416  -14.5582 H   0  0  0  0  0  0  0  0  0  0  0  0
   -8.7553   -2.5400  -14.9361 H   0  0  0  0  0  0  0  0  0  0  0  0
   -6.5977    0.0487  -16.2093 H   0  0  0  0  0  0  0  0  0  0  0  0
   -8.0045    1.1308  -16.2888 H   0  0  0  0  0  0  0  0  0  0  0  0
  -10.4200   -0.7379  -16.7880 H   0  0  0  0  0  0  0  0  0  0  0  0
   -8.6263   -0.1323  -18.1496 H   0  0  0  0  0  0  0  0  0  0  0  0
   -8.8569    1.7483  -12.7984 H   0  0  0  0  0  0  0  0  0  0  0  0
  -10.2992    0.8489  -13.3206 H   0  0  0  0  0  0  0  0  0  0  0  0
  -10.2690    1.6943  -11.7578 H   0  0  0  0  0  0  0  0  0  0  0  0
   -9.8723   -1.9544  -10.8202 H   0  0  0  0  0  0  0  0  0  0  0  0
  -10.8636   -1.3988  -12.1572 H   0  0  0  0  0  0  0  0  0  0  0  0
  -10.9215   -0.5359  -10.6042 H   0  0  0  0  0  0  0  0  0  0  0  0
   -7.8163   -0.6830  -10.1223 H   0  0  0  0  0  0  0  0  0  0  0  0
   -7.3662    0.8314  -10.9356 H   0  0  0  0  0  0  0  0  0  0  0  0
   -8.7667    0.7656   -9.8415 H   0  0  0  0  0  0  0  0  0  0  0  0
   -7.5616   -3.6386  -18.8506 H   0  0  0  0  0  0  0  0  0  0  0  0
  1 14  1  0  0  0  0
  1 15  2  0  0  0  0
  1 16  1  0  0  0  0
  2  3  1  0  0  0  0
  2  7  1  0  0  0  0
  3 13  1  0  0  0  0
  4  8  1  6  0  0  0
  4 13  1  0  0  0  0
  5  7  1  6  0  0  0
  5 14  1  0  0  0  0
  6  8  1  0  0  0  0
  6 14  1  0  0  0  0
  7  8  1  0  0  0  0
  9 12  1  0  0  0  0
 10 12  1  0  0  0  0
 11 12  1  0  0  0  0
 12 16  1  0  0  0  0
  2 17  1  0  0  0  0
  2 18  1  0  0  0  0
  3 19  1  0  0  0  0
  3 20  1  0  0  0  0
  4 21  1  0  0  0  0
  4 22  1  0  0  0  0
  5 23  1  0  0  0  0
  5 24  1  0  0  0  0
  6 25  1  0  0  0  0
  6 26  1  0  0  0  0
  7 27  1  0  0  0  0
  8 28  1  0  0  0  0
  9 29  1  0  0  0  0
  9 30  1  0  0  0  0
  9 31  1  0  0  0  0
 10 32  1  0  0  0  0
 10 33  1  0  0  0  0
 10 34  1  0  0  0  0
 11 35  1  0  0  0  0
 11 36  1  0  0  0  0
 11 37  1  0  0  0  0
 13 38  1  0  0  0  0
M  END
> <id>
EN300-6731881

> <smiles>
CC(C)(C)OC(=O)N1C[C@@H]2CCNC[C@@H]2C1 |&1:9,14,r|

> <MDLNUMBER>
MFCD12198663

> <IUPAC Name>
rac-tert-butyl (3aR,7aR)-octahydro-1H-pyrrolo[3,4-c]pyridine-2-carboxylate

> <CAS>
236406-56-7

> <Purity>
95

> <URL>
https://www.enaminestore.com/catalog/EN300-6731881

> <ROCS_ShapeQuery>
amalgated

> <ROCS_TanimotoCombo>
0.816 

> <ROCS_ShapeTanimoto>
0.557 

> <ROCS_ColorTanimoto>
0.259 

> <ROCS_RefTversky>
0.521 

> <ROCS_RefColorTversky>
0.385 

> <ROCS_RefTverskyCombo>
0.907 

> <ROCS_FitTversky>
1.141 

> <ROCS_FitColorTversky>
0.440 

> <ROCS_FitTverskyCombo>
1.582 

> <ROCS_ColorScore>
-2.679

> <ROCS_Overlap>
855.006

> <ROCS_Rank>
437                 

$$$$
untitled-dbase-24819_44
  -OEChem-10092318153D

 37 37  0     1  0  0  0  0  0999 V2000
   -8.5488   -0.0133  -15.1053 C   0  0  0  0  0  0  0  0  0  0  0  0
   -9.3396   -3.2339  -16.4248 C   0  0  0  0  0  0  0  0  0  0  0  0
   -9.9352   -2.6330  -17.7023 C   0  0  0  0  0  0  0  0  0  0  0  0
   -8.2459   -2.3686  -15.8008 C   0  0  0  0  0  0  0  0  0  0  0  0
   -8.9357   -1.7634  -18.4765 C   0  0  1  0  0  0  0  0  0  0  0  0
   -8.4335   -0.6020  -17.5700 C   0  0  2  0  0  0  0  0  0  0  0  0
   -7.0917   -0.0060  -18.0074 C   0  0  0  0  0  0  0  0  0  0  0  0
  -10.7054    0.1091  -13.2275 C   0  0  0  0  0  0  0  0  0  0  0  0
   -9.0357   -0.7062  -11.5373 C   0  0  0  0  0  0  0  0  0  0  0  0
   -8.6852    1.5051  -12.6756 C   0  0  0  0  0  0  0  0  0  0  0  0
   -9.2307    0.0859  -12.8283 C   0  0  0  0  0  0  0  0  0  0  0  0
   -8.4183   -0.9585  -16.1321 N   0  0  0  0  0  0  0  0  0  0  0  0
   -7.8859   -2.6131  -19.0434 N   0  0  0  0  0  0  0  0  0  0  0  0
   -8.6976    1.1937  -15.2869 O   0  0  0  0  0  0  0  0  0  0  0  0
   -8.4901   -0.5788  -13.8584 O   0  0  0  0  0  0  0  0  0  0  0  0
  -10.1441   -3.3886  -15.6865 H   0  0  0  0  0  0  0  0  0  0  0  0
   -8.9344   -4.2340  -16.6467 H   0  0  0  0  0  0  0  0  0  0  0  0
  -10.3177   -3.4514  -18.3437 H   0  0  0  0  0  0  0  0  0  0  0  0
  -10.8267   -2.0349  -17.4300 H   0  0  0  0  0  0  0  0  0  0  0  0
   -8.2420   -2.5151  -14.7186 H   0  0  0  0  0  0  0  0  0  0  0  0
   -7.2652   -2.6764  -16.1732 H   0  0  0  0  0  0  0  0  0  0  0  0
   -9.4796   -1.3139  -19.3141 H   0  0  0  0  0  0  0  0  0  0  0  0
   -9.1765    0.2257  -17.7083 H   0  0  0  0  0  0  0  0  0  0  0  0
   -6.3117   -0.7547  -17.9017 H   0  0  0  0  0  0  0  0  0  0  0  0
   -6.8569    0.8523  -17.3843 H   0  0  0  0  0  0  0  0  0  0  0  0
   -7.1560    0.3064  -19.0458 H   0  0  0  0  0  0  0  0  0  0  0  0
  -10.8495    0.6767  -14.1538 H   0  0  0  0  0  0  0  0  0  0  0  0
  -11.0995   -0.9018  -13.3743 H   0  0  0  0  0  0  0  0  0  0  0  0
  -11.3100    0.6084  -12.4617 H   0  0  0  0  0  0  0  0  0  0  0  0
   -7.9790   -0.7254  -11.2472 H   0  0  0  0  0  0  0  0  0  0  0  0
   -9.3381   -1.7511  -11.6711 H   0  0  0  0  0  0  0  0  0  0  0  0
   -9.6144   -0.2808  -10.7110 H   0  0  0  0  0  0  0  0  0  0  0  0
   -7.6274    1.4887  -12.3893 H   0  0  0  0  0  0  0  0  0  0  0  0
   -8.7831    2.0769  -13.6041 H   0  0  0  0  0  0  0  0  0  0  0  0
   -9.2129    2.0417  -11.8789 H   0  0  0  0  0  0  0  0  0  0  0  0
   -8.3202   -3.3072  -19.6028 H   0  0  0  0  0  0  0  0  0  0  0  0
   -7.2897   -2.0406  -19.5913 H   0  0  0  0  0  0  0  0  0  0  0  0
  1 12  1  0  0  0  0
  1 14  2  0  0  0  0
  1 15  1  0  0  0  0
  2  3  1  0  0  0  0
  2  4  1  0  0  0  0
  3  5  1  0  0  0  0
  4 12  1  0  0  0  0
  5  6  1  0  0  0  0
  5 13  1  1  0  0  0
  6  7  1  1  0  0  0
  6 12  1  0  0  0  0
  8 11  1  0  0  0  0
  9 11  1  0  0  0  0
 10 11  1  0  0  0  0
 11 15  1  0  0  0  0
  2 16  1  0  0  0  0
  2 17  1  0  0  0  0
  3 18  1  0  0  0  0
  3 19  1  0  0  0  0
  4 20  1  0  0  0  0
  4 21  1  0  0  0  0
  5 22  1  0  0  0  0
  6 23  1  0  0  0  0
  7 24  1  0  0  0  0
  7 25  1  0  0  0  0
  7 26  1  0  0  0  0
  8 27  1  0  0  0  0
  8 28  1  0  0  0  0
  8 29  1  0  0  0  0
  9 30  1  0  0  0  0
  9 31  1  0  0  0  0
  9 32  1  0  0  0  0
 10 33  1  0  0  0  0
 10 34  1  0  0  0  0
 10 35  1  0  0  0  0
 13 36  1  0  0  0  0
 13 37  1  0  0  0  0
M  END
> <id>
EN300-6482639

> <smiles>
C[C@H]1[C@@H](N)CCCN1C(=O)OC(C)(C)C |o1:1,2,r|

> <IUPAC Name>
rel-tert-butyl (2R,3R)-3-amino-2-methylpiperidine-1-carboxylate

> <CAS>
1932344-15-4

> <Purity>
95

> <URL>
https://www.enaminestore.com/catalog/EN300-6482639

> <ROCS_ShapeQuery>
amalgated

> <ROCS_TanimotoCombo>
0.815 

> <ROCS_ShapeTanimoto>
0.517 

> <ROCS_ColorTanimoto>
0.298 

> <ROCS_RefTversky>
0.484 

> <ROCS_RefColorTversky>
0.400 

> <ROCS_RefTverskyCombo>
0.884 

> <ROCS_FitTversky>
1.152 

> <ROCS_FitColorTversky>
0.541 

> <ROCS_FitTverskyCombo>
1.693 

> <ROCS_ColorScore>
-2.758

> <ROCS_Overlap>
792.454

> <ROCS_Rank>
438                 

$$$$
untitled-dbase-24709_189
  -OEChem-10092318153D

 38 39  0     1  0  0  0  0  0999 V2000
   -8.8272   -2.1548  -14.4391 C   0  0  0  0  0  0  0  0  0  0  0  0
   -8.2153    1.3535  -17.2183 C   0  0  0  0  0  0  0  0  0  0  0  0
   -7.1654    0.7582  -18.1027 C   0  0  0  0  0  0  0  0  0  0  0  0
   -9.2520   -0.7842  -18.2266 C   0  0  0  0  0  0  0  0  0  0  0  0
   -9.1571   -2.8791  -16.8196 C   0  0  0  0  0  0  0  0  0  0  0  0
   -7.6164   -0.9813  -16.2552 C   0  0  0  0  0  0  0  0  0  0  0  0
   -9.1547   -2.3122  -18.2457 C   0  0  2  0  0  0  0  0  0  0  0  0
   -8.1531   -0.1496  -17.3984 C   0  0  0  0  0  0  0  0  0  0  0  0
   -9.8332   -1.2885  -11.9041 C   0  0  0  0  0  0  0  0  0  0  0  0
   -8.1806    0.5931  -12.0982 C   0  0  0  0  0  0  0  0  0  0  0  0
  -10.0246    0.3686  -13.7887 C   0  0  0  0  0  0  0  0  0  0  0  0
   -9.0658   -0.3848  -12.8679 C   0  0  0  0  0  0  0  0  0  0  0  0
   -8.5880   -1.9779  -15.8086 N   0  0  0  0  0  0  0  0  0  0  0  0
   -7.9852   -2.7748  -18.9961 N   0  0  0  0  0  0  0  0  0  0  0  0
   -9.5164   -3.0549  -13.9633 O   0  0  0  0  0  0  0  0  0  0  0  0
   -8.2078   -1.2015  -13.6730 O   0  0  0  0  0  0  0  0  0  0  0  0
   -7.8994    1.7741  -16.2699 H   0  0  0  0  0  0  0  0  0  0  0  0
   -9.0257    1.8981  -17.6901 H   0  0  0  0  0  0  0  0  0  0  0  0
   -7.2664    0.8996  -19.1727 H   0  0  0  0  0  0  0  0  0  0  0  0
   -6.1397    0.7757  -17.7525 H   0  0  0  0  0  0  0  0  0  0  0  0
   -9.1866   -0.3810  -19.2568 H   0  0  0  0  0  0  0  0  0  0  0  0
  -10.2487   -0.4754  -17.8535 H   0  0  0  0  0  0  0  0  0  0  0  0
  -10.1906   -3.1665  -16.5283 H   0  0  0  0  0  0  0  0  0  0  0  0
   -8.5678   -3.8212  -16.7683 H   0  0  0  0  0  0  0  0  0  0  0  0
   -6.7143   -1.5282  -16.5861 H   0  0  0  0  0  0  0  0  0  0  0  0
   -7.2896   -0.3377  -15.4194 H   0  0  0  0  0  0  0  0  0  0  0  0
  -10.0642   -2.7110  -18.7636 H   0  0  0  0  0  0  0  0  0  0  0  0
  -10.4698   -1.9920  -12.4527 H   0  0  0  0  0  0  0  0  0  0  0  0
   -9.1559   -1.8607  -11.2617 H   0  0  0  0  0  0  0  0  0  0  0  0
  -10.5018   -0.7004  -11.2650 H   0  0  0  0  0  0  0  0  0  0  0  0
   -7.6281    1.2435  -12.7859 H   0  0  0  0  0  0  0  0  0  0  0  0
   -7.4281    0.0572  -11.5085 H   0  0  0  0  0  0  0  0  0  0  0  0
   -8.7675    1.2227  -11.4217 H   0  0  0  0  0  0  0  0  0  0  0  0
   -9.4743    1.0169  -14.4802 H   0  0  0  0  0  0  0  0  0  0  0  0
  -10.6425   -0.3180  -14.3764 H   0  0  0  0  0  0  0  0  0  0  0  0
  -10.6859    1.0240  -13.2104 H   0  0  0  0  0  0  0  0  0  0  0  0
   -7.4852   -1.9783  -19.3131 H   0  0  0  0  0  0  0  0  0  0  0  0
   -7.4240   -3.3225  -18.3880 H   0  0  0  0  0  0  0  0  0  0  0  0
  1 13  1  0  0  0  0
  1 15  2  0  0  0  0
  1 16  1  0  0  0  0
  2  3  1  0  0  0  0
  2  8  1  0  0  0  0
  3  8  1  0  0  0  0
  4  7  1  0  0  0  0
  4  8  1  0  0  0  0
  5  7  1  0  0  0  0
  5 13  1  0  0  0  0
  6  8  1  0  0  0  0
  6 13  1  0  0  0  0
  7 14  1  0  0  0  0
  9 12  1  0  0  0  0
 10 12  1  0  0  0  0
 11 12  1  0  0  0  0
 12 16  1  0  0  0  0
  2 17  1  0  0  0  0
  2 18  1  0  0  0  0
  3 19  1  0  0  0  0
  3 20  1  0  0  0  0
  4 21  1  0  0  0  0
  4 22  1  0  0  0  0
  5 23  1  0  0  0  0
  5 24  1  0  0  0  0
  6 25  1  0  0  0  0
  6 26  1  0  0  0  0
  7 27  1  0  0  0  0
  9 28  1  0  0  0  0
  9 29  1  0  0  0  0
  9 30  1  0  0  0  0
 10 31  1  0  0  0  0
 10 32  1  0  0  0  0
 10 33  1  0  0  0  0
 11 34  1  0  0  0  0
 11 35  1  0  0  0  0
 11 36  1  0  0  0  0
 14 37  1  0  0  0  0
 14 38  1  0  0  0  0
M  END
> <id>
EN300-6490169

> <smiles>
CC(C)(C)OC(=O)N1CC(N)CC2(CC2)C1

> <MDLNUMBER>
MFCD31668376

> <IUPAC Name>
tert-butyl 7-amino-5-azaspiro[2.5]octane-5-carboxylate

> <CAS>
2091417-05-7

> <Purity>
95

> <URL>
https://www.enaminestore.com/catalog/EN300-6490169

> <ROCS_ShapeQuery>
amalgated

> <ROCS_TanimotoCombo>
0.815 

> <ROCS_ShapeTanimoto>
0.484 

> <ROCS_ColorTanimoto>
0.331 

> <ROCS_RefTversky>
0.474 

> <ROCS_RefColorTversky>
0.433 

> <ROCS_RefTverskyCombo>
0.906 

> <ROCS_FitTversky>
1.048 

> <ROCS_FitColorTversky>
0.586 

> <ROCS_FitTverskyCombo>
1.634 

> <ROCS_ColorScore>
-2.987

> <ROCS_Overlap>
776.646

> <ROCS_Rank>
439                 

$$$$
untitled-dbase-42253_34
  -OEChem-10092318153D

 39 40  0     1  0  0  0  0  0999 V2000
   -9.4011   -2.0411  -15.9779 C   0  0  0  0  0  0  0  0  0  0  0  0
   -9.1006   -2.7637  -17.1329 C   0  0  0  0  0  0  0  0  0  0  0  0
   -7.8349   -0.8964  -17.9534 C   0  0  0  0  0  0  0  0  0  0  0  0
   -8.8959   -0.7444  -15.7689 C   0  0  0  0  0  0  0  0  0  0  0  0
   -8.1454   -0.1300  -16.8093 C   0  0  0  0  0  0  0  0  0  0  0  0
   -8.3008   -2.1996  -18.1119 C   0  0  0  0  0  0  0  0  0  0  0  0
   -9.5371   -0.5641  -13.3050 C   0  0  0  0  0  0  0  0  0  0  0  0
   -8.8092    1.4097  -14.5267 C   0  0  0  0  0  0  0  0  0  0  0  0
   -8.6089    2.0363  -15.8898 C   0  0  0  0  0  0  0  0  0  0  0  0
   -8.0690   -0.7775  -10.8525 C   0  0  0  0  0  0  0  0  0  0  0  0
   -9.6097    1.0111   -9.9945 C   0  0  0  0  0  0  0  0  0  0  0  0
  -10.5427   -1.2134  -10.6938 C   0  0  0  0  0  0  0  0  0  0  0  0
   -6.8928    1.8415  -17.6897 C   0  0  0  0  0  0  0  0  0  0  0  0
   -9.4643   -0.1639  -10.9590 C   0  0  0  0  0  0  0  0  0  0  0  0
   -9.1365   -0.0166  -14.5464 N   0  0  0  0  0  0  0  0  0  0  0  0
   -7.7338    1.2004  -16.6918 N   0  0  2  0  0  0  0  0  0  0  0  0
   -9.8447   -1.7484  -13.1589 O   0  0  0  0  0  0  0  0  0  0  0  0
   -7.9784   -2.9104  -19.2255 O   0  0  0  0  0  0  0  0  0  0  0  0
   -9.6388    0.3439  -12.2874 O   0  0  0  0  0  0  0  0  0  0  0  0
  -10.0775   -2.5221  -15.2806 H   0  0  0  0  0  0  0  0  0  0  0  0
   -9.5085   -3.7626  -17.2631 H   0  0  0  0  0  0  0  0  0  0  0  0
   -7.2122   -0.4905  -18.7449 H   0  0  0  0  0  0  0  0  0  0  0  0
   -7.8913    1.5909  -13.9319 H   0  0  0  0  0  0  0  0  0  0  0  0
   -9.6220    1.9246  -13.9706 H   0  0  0  0  0  0  0  0  0  0  0  0
   -9.5857    2.1483  -16.3719 H   0  0  0  0  0  0  0  0  0  0  0  0
   -8.1779    3.0390  -15.7923 H   0  0  0  0  0  0  0  0  0  0  0  0
   -7.9606   -1.6213  -11.5433 H   0  0  0  0  0  0  0  0  0  0  0  0
   -7.2875   -0.0436  -11.0747 H   0  0  0  0  0  0  0  0  0  0  0  0
   -7.8931   -1.1767   -9.8470 H   0  0  0  0  0  0  0  0  0  0  0  0
  -10.6094    1.4544  -10.0675 H   0  0  0  0  0  0  0  0  0  0  0  0
   -8.8996    1.8087  -10.2411 H   0  0  0  0  0  0  0  0  0  0  0  0
   -9.4411    0.7053   -8.9569 H   0  0  0  0  0  0  0  0  0  0  0  0
  -11.5437   -0.7735  -10.7702 H   0  0  0  0  0  0  0  0  0  0  0  0
  -10.4768   -2.0470  -11.4006 H   0  0  0  0  0  0  0  0  0  0  0  0
  -10.4569   -1.6118   -9.6764 H   0  0  0  0  0  0  0  0  0  0  0  0
   -6.6969    2.8819  -17.3911 H   0  0  0  0  0  0  0  0  0  0  0  0
   -5.9401    1.2977  -17.7702 H   0  0  0  0  0  0  0  0  0  0  0  0
   -7.4051    1.8297  -18.6630 H   0  0  0  0  0  0  0  0  0  0  0  0
   -8.3815   -3.7929  -19.1907 H   0  0  0  0  0  0  0  0  0  0  0  0
  1  2  1  0  0  0  0
  1  4  2  0  0  0  0
  2  6  2  0  0  0  0
  3  5  2  0  0  0  0
  3  6  1  0  0  0  0
  4  5  1  0  0  0  0
  4 15  1  0  0  0  0
  5 16  1  0  0  0  0
  6 18  1  0  0  0  0
  7 15  1  0  0  0  0
  7 17  2  0  0  0  0
  7 19  1  0  0  0  0
  8  9  1  0  0  0  0
  8 15  1  0  0  0  0
  9 16  1  0  0  0  0
 10 14  1  0  0  0  0
 11 14  1  0  0  0  0
 12 14  1  0  0  0  0
 13 16  1  0  0  0  0
 14 19  1  0  0  0  0
  1 20  1  0  0  0  0
  2 21  1  0  0  0  0
  3 22  1  0  0  0  0
  8 23  1  0  0  0  0
  8 24  1  0  0  0  0
  9 25  1  0  0  0  0
  9 26  1  0  0  0  0
 10 27  1  0  0  0  0
 10 28  1  0  0  0  0
 10 29  1  0  0  0  0
 11 30  1  0  0  0  0
 11 31  1  0  0  0  0
 11 32  1  0  0  0  0
 12 33  1  0  0  0  0
 12 34  1  0  0  0  0
 12 35  1  0  0  0  0
 13 36  1  0  0  0  0
 13 37  1  0  0  0  0
 13 38  1  0  0  0  0
 18 39  1  0  0  0  0
M  END
> <id>
EN300-27718639

> <smiles>
CN1CCN(C(=O)OC(C)(C)C)C=2C=CC(O)=CC12

> <IUPAC Name>
tert-butyl 6-hydroxy-4-methyl-1,2,3,4-tetrahydroquinoxaline-1-carboxylate

> <CAS>
2580252-99-7

> <URL>
https://www.enaminestore.com/catalog/EN300-27718639

> <ROCS_ShapeQuery>
amalgated

> <ROCS_TanimotoCombo>
0.815 

> <ROCS_ShapeTanimoto>
0.649 

> <ROCS_ColorTanimoto>
0.167 

> <ROCS_RefTversky>
0.607 

> <ROCS_RefColorTversky>
0.267 

> <ROCS_RefTverskyCombo>
0.874 

> <ROCS_FitTversky>
1.118 

> <ROCS_FitColorTversky>
0.307 

> <ROCS_FitTverskyCombo>
1.425 

> <ROCS_ColorScore>
-1.858

> <ROCS_Overlap>
1000.623

> <ROCS_Rank>
440                 

$$$$
untitled-dbase-42791_55
  -OEChem-10092318153D

 36 37  0     0  0  0  0  0  0999 V2000
  -10.4079   -4.1776  -18.5553 C   0  0  0  0  0  0  0  0  0  0  0  0
   -9.3044   -4.8598  -18.8900 C   0  0  0  0  0  0  0  0  0  0  0  0
   -8.4535   -0.1847  -15.2924 C   0  0  0  0  0  0  0  0  0  0  0  0
  -10.3784   -2.7133  -18.2364 C   0  0  0  0  0  0  0  0  0  0  0  0
   -7.9575   -4.2060  -18.9924 C   0  0  0  0  0  0  0  0  0  0  0  0
   -8.7554   -0.7316  -17.8004 C   0  0  0  0  0  0  0  0  0  0  0  0
   -8.3577   -2.4277  -16.5386 C   0  0  0  0  0  0  0  0  0  0  0  0
   -8.9486   -2.2585  -17.9610 C   0  0  0  0  0  0  0  0  0  0  0  0
   -9.7421    1.1439  -13.1183 C   0  0  0  0  0  0  0  0  0  0  0  0
   -9.3451   -0.9754  -11.8297 C   0  0  0  0  0  0  0  0  0  0  0  0
   -7.3926    0.3501  -12.6893 C   0  0  0  0  0  0  0  0  0  0  0  0
   -8.8361   -0.0754  -12.9537 C   0  0  0  0  0  0  0  0  0  0  0  0
   -7.9838   -2.7375  -18.9650 N   0  0  0  0  0  0  0  0  0  0  0  0
   -8.5267   -0.9944  -16.3915 N   0  0  0  0  0  0  0  0  0  0  0  0
   -8.0622    0.9788  -15.3168 O   0  0  0  0  0  0  0  0  0  0  0  0
   -8.8722   -0.8368  -14.1658 O   0  0  0  0  0  0  0  0  0  0  0  0
  -11.3629   -4.6915  -18.5085 H   0  0  0  0  0  0  0  0  0  0  0  0
   -9.3723   -5.9236  -19.0935 H   0  0  0  0  0  0  0  0  0  0  0  0
  -10.8074   -2.1630  -19.0814 H   0  0  0  0  0  0  0  0  0  0  0  0
  -11.0124   -2.5179  -17.3650 H   0  0  0  0  0  0  0  0  0  0  0  0
   -7.3224   -4.5851  -18.1847 H   0  0  0  0  0  0  0  0  0  0  0  0
   -7.4924   -4.5135  -19.9346 H   0  0  0  0  0  0  0  0  0  0  0  0
   -7.9040   -0.2749  -18.3094 H   0  0  0  0  0  0  0  0  0  0  0  0
   -9.6492   -0.1225  -17.9587 H   0  0  0  0  0  0  0  0  0  0  0  0
   -8.9804   -2.9866  -15.8348 H   0  0  0  0  0  0  0  0  0  0  0  0
   -7.3199   -2.7553  -16.4511 H   0  0  0  0  0  0  0  0  0  0  0  0
   -9.3801    1.7924  -13.9241 H   0  0  0  0  0  0  0  0  0  0  0  0
  -10.7734    0.8528  -13.3429 H   0  0  0  0  0  0  0  0  0  0  0  0
   -9.7453    1.7544  -12.2080 H   0  0  0  0  0  0  0  0  0  0  0  0
   -8.6980   -1.8515  -11.7081 H   0  0  0  0  0  0  0  0  0  0  0  0
  -10.3452   -1.3599  -12.0602 H   0  0  0  0  0  0  0  0  0  0  0  0
   -9.3902   -0.4424  -10.8745 H   0  0  0  0  0  0  0  0  0  0  0  0
   -6.7425   -0.5244  -12.5712 H   0  0  0  0  0  0  0  0  0  0  0  0
   -6.9982    0.9664  -13.5037 H   0  0  0  0  0  0  0  0  0  0  0  0
   -7.3188    0.9186  -11.7552 H   0  0  0  0  0  0  0  0  0  0  0  0
   -7.0334   -2.3879  -18.8547 H   0  0  0  0  0  0  0  0  0  0  0  0
  1  2  2  0  0  0  0
  1  4  1  0  0  0  0
  2  5  1  0  0  0  0
  3 14  1  0  0  0  0
  3 15  2  0  0  0  0
  3 16  1  0  0  0  0
  4  8  1  0  0  0  0
  5 13  1  0  0  0  0
  6  8  1  0  0  0  0
  6 14  1  0  0  0  0
  7  8  1  0  0  0  0
  7 14  1  0  0  0  0
  8 13  1  0  0  0  0
  9 12  1  0  0  0  0
 10 12  1  0  0  0  0
 11 12  1  0  0  0  0
 12 16  1  0  0  0  0
  1 17  1  0  0  0  0
  2 18  1  0  0  0  0
  4 19  1  0  0  0  0
  4 20  1  0  0  0  0
  5 21  1  0  0  0  0
  5 22  1  0  0  0  0
  6 23  1  0  0  0  0
  6 24  1  0  0  0  0
  7 25  1  0  0  0  0
  7 26  1  0  0  0  0
  9 27  1  0  0  0  0
  9 28  1  0  0  0  0
  9 29  1  0  0  0  0
 10 30  1  0  0  0  0
 10 31  1  0  0  0  0
 10 32  1  0  0  0  0
 11 33  1  0  0  0  0
 11 34  1  0  0  0  0
 11 35  1  0  0  0  0
 13 36  1  0  0  0  0
M  END
> <id>
EN300-1659465

> <smiles>
CC(C)(C)OC(=O)N1CC2(C1)CC=CCN2

> <MDLNUMBER>
MFCD33020380

> <IUPAC Name>
tert-butyl 2,5-diazaspiro[3.5]non-7-ene-2-carboxylate

> <CAS>
1341036-73-4

> <URL>
https://www.enaminestore.com/catalog/EN300-1659465

> <ROCS_ShapeQuery>
amalgated

> <ROCS_TanimotoCombo>
0.815 

> <ROCS_ShapeTanimoto>
0.515 

> <ROCS_ColorTanimoto>
0.300 

> <ROCS_RefTversky>
0.496 

> <ROCS_RefColorTversky>
0.432 

> <ROCS_RefTverskyCombo>
0.928 

> <ROCS_FitTversky>
1.080 

> <ROCS_FitColorTversky>
0.496 

> <ROCS_FitTverskyCombo>
1.576 

> <ROCS_ColorScore>
-3.001

> <ROCS_Overlap>
814.543

> <ROCS_Rank>
441                 

$$$$
untitled-dbase-42930_55
  -OEChem-10092318153D

 36 37  0     0  0  0  0  0  0999 V2000
  -10.4079   -4.1776  -18.5553 C   0  0  0  0  0  0  0  0  0  0  0  0
   -9.3044   -4.8598  -18.8900 C   0  0  0  0  0  0  0  0  0  0  0  0
   -8.4535   -0.1847  -15.2924 C   0  0  0  0  0  0  0  0  0  0  0  0
  -10.3784   -2.7133  -18.2364 C   0  0  0  0  0  0  0  0  0  0  0  0
   -7.9575   -4.2060  -18.9924 C   0  0  0  0  0  0  0  0  0  0  0  0
   -8.7554   -0.7316  -17.8004 C   0  0  0  0  0  0  0  0  0  0  0  0
   -8.3577   -2.4277  -16.5386 C   0  0  0  0  0  0  0  0  0  0  0  0
   -8.9486   -2.2585  -17.9610 C   0  0  0  0  0  0  0  0  0  0  0  0
   -9.7421    1.1439  -13.1183 C   0  0  0  0  0  0  0  0  0  0  0  0
   -9.3451   -0.9754  -11.8297 C   0  0  0  0  0  0  0  0  0  0  0  0
   -7.3926    0.3501  -12.6893 C   0  0  0  0  0  0  0  0  0  0  0  0
   -8.8361   -0.0754  -12.9537 C   0  0  0  0  0  0  0  0  0  0  0  0
   -7.9838   -2.7375  -18.9650 N   0  0  0  0  0  0  0  0  0  0  0  0
   -8.5267   -0.9944  -16.3915 N   0  0  0  0  0  0  0  0  0  0  0  0
   -8.0622    0.9788  -15.3168 O   0  0  0  0  0  0  0  0  0  0  0  0
   -8.8722   -0.8368  -14.1658 O   0  0  0  0  0  0  0  0  0  0  0  0
  -11.3629   -4.6915  -18.5085 H   0  0  0  0  0  0  0  0  0  0  0  0
   -9.3723   -5.9236  -19.0935 H   0  0  0  0  0  0  0  0  0  0  0  0
  -10.8074   -2.1630  -19.0814 H   0  0  0  0  0  0  0  0  0  0  0  0
  -11.0124   -2.5179  -17.3650 H   0  0  0  0  0  0  0  0  0  0  0  0
   -7.3224   -4.5851  -18.1847 H   0  0  0  0  0  0  0  0  0  0  0  0
   -7.4924   -4.5135  -19.9346 H   0  0  0  0  0  0  0  0  0  0  0  0
   -7.9040   -0.2749  -18.3094 H   0  0  0  0  0  0  0  0  0  0  0  0
   -9.6492   -0.1225  -17.9587 H   0  0  0  0  0  0  0  0  0  0  0  0
   -8.9804   -2.9866  -15.8348 H   0  0  0  0  0  0  0  0  0  0  0  0
   -7.3199   -2.7553  -16.4511 H   0  0  0  0  0  0  0  0  0  0  0  0
   -9.3801    1.7924  -13.9241 H   0  0  0  0  0  0  0  0  0  0  0  0
  -10.7734    0.8528  -13.3429 H   0  0  0  0  0  0  0  0  0  0  0  0
   -9.7453    1.7544  -12.2080 H   0  0  0  0  0  0  0  0  0  0  0  0
   -8.6980   -1.8515  -11.7081 H   0  0  0  0  0  0  0  0  0  0  0  0
  -10.3452   -1.3599  -12.0602 H   0  0  0  0  0  0  0  0  0  0  0  0
   -9.3902   -0.4424  -10.8745 H   0  0  0  0  0  0  0  0  0  0  0  0
   -6.7425   -0.5244  -12.5712 H   0  0  0  0  0  0  0  0  0  0  0  0
   -6.9982    0.9664  -13.5037 H   0  0  0  0  0  0  0  0  0  0  0  0
   -7.3188    0.9186  -11.7552 H   0  0  0  0  0  0  0  0  0  0  0  0
   -7.0334   -2.3879  -18.8547 H   0  0  0  0  0  0  0  0  0  0  0  0
  1  2  2  0  0  0  0
  1  4  1  0  0  0  0
  2  5  1  0  0  0  0
  3 14  1  0  0  0  0
  3 15  2  0  0  0  0
  3 16  1  0  0  0  0
  4  8  1  0  0  0  0
  5 13  1  0  0  0  0
  6  8  1  0  0  0  0
  6 14  1  0  0  0  0
  7  8  1  0  0  0  0
  7 14  1  0  0  0  0
  8 13  1  0  0  0  0
  9 12  1  0  0  0  0
 10 12  1  0  0  0  0
 11 12  1  0  0  0  0
 12 16  1  0  0  0  0
  1 17  1  0  0  0  0
  2 18  1  0  0  0  0
  4 19  1  0  0  0  0
  4 20  1  0  0  0  0
  5 21  1  0  0  0  0
  5 22  1  0  0  0  0
  6 23  1  0  0  0  0
  6 24  1  0  0  0  0
  7 25  1  0  0  0  0
  7 26  1  0  0  0  0
  9 27  1  0  0  0  0
  9 28  1  0  0  0  0
  9 29  1  0  0  0  0
 10 30  1  0  0  0  0
 10 31  1  0  0  0  0
 10 32  1  0  0  0  0
 11 33  1  0  0  0  0
 11 34  1  0  0  0  0
 11 35  1  0  0  0  0
 13 36  1  0  0  0  0
M  END
> <id>
EN300-27702570

> <smiles>
Cl.CC(C)(C)OC(=O)N1CC2(C1)CC=CCN2

> <MDLNUMBER>
MFCD33020684

> <IUPAC Name>
tert-butyl 2,5-diazaspiro[3.5]non-7-ene-2-carboxylate hydrochloride

> <CAS>
2580244-26-2

> <Purity>
95

> <URL>
https://www.enaminestore.com/catalog/EN300-27702570

> <ROCS_ShapeQuery>
amalgated

> <ROCS_TanimotoCombo>
0.815 

> <ROCS_ShapeTanimoto>
0.515 

> <ROCS_ColorTanimoto>
0.300 

> <ROCS_RefTversky>
0.496 

> <ROCS_RefColorTversky>
0.432 

> <ROCS_RefTverskyCombo>
0.928 

> <ROCS_FitTversky>
1.080 

> <ROCS_FitColorTversky>
0.496 

> <ROCS_FitTverskyCombo>
1.576 

> <ROCS_ColorScore>
-3.001

> <ROCS_Overlap>
814.543

> <ROCS_Rank>
442                 

$$$$
untitled-dbase-38320_6
  -OEChem-10092318153D

 31 33  0     0  0  0  0  0  0999 V2000
   -8.3508   -0.5014  -16.5436 C   0  0  0  0  0  0  0  0  0  0  0  0
   -9.2209   -1.3836  -15.9377 C   0  0  0  0  0  0  0  0  0  0  0  0
   -8.3000   -2.1117  -18.0267 C   0  0  0  0  0  0  0  0  0  0  0  0
   -7.9681    0.8036  -15.9434 C   0  0  0  0  0  0  0  0  0  0  0  0
   -9.9400   -1.1472  -14.6519 C   0  0  0  0  0  0  0  0  0  0  0  0
   -8.8690    1.1663  -14.7464 C   0  0  0  0  0  0  0  0  0  0  0  0
   -7.9617   -0.6222  -13.1259 C   0  0  0  0  0  0  0  0  0  0  0  0
  -10.2053    0.4803  -12.7141 C   0  0  0  0  0  0  0  0  0  0  0  0
   -7.7059    0.0368  -11.7761 C   0  0  0  0  0  0  0  0  0  0  0  0
  -10.0623   -0.3200  -11.4268 C   0  0  0  0  0  0  0  0  0  0  0  0
   -9.2308   -0.0351  -13.8102 C   0  0  0  0  0  0  0  0  0  0  0  0
   -7.8160   -0.9209  -17.7439 N   0  0  0  0  0  0  0  0  0  0  0  0
   -7.9843   -2.8214  -19.1427 N   0  0  0  0  0  0  0  0  0  0  0  0
   -8.7641   -0.1941  -10.8462 O   0  0  0  0  0  0  0  0  0  0  0  0
   -9.3994   -2.7841  -16.8885 S   0  0  0  0  0  0  0  0  0  0  0  0
   -6.9207    0.7519  -15.6169 H   0  0  0  0  0  0  0  0  0  0  0  0
   -8.0278    1.5987  -16.6981 H   0  0  0  0  0  0  0  0  0  0  0  0
  -10.9601   -0.8240  -14.8968 H   0  0  0  0  0  0  0  0  0  0  0  0
  -10.0294   -2.0805  -14.0880 H   0  0  0  0  0  0  0  0  0  0  0  0
   -8.3826    1.9688  -14.1707 H   0  0  0  0  0  0  0  0  0  0  0  0
   -9.8052    1.6006  -15.1343 H   0  0  0  0  0  0  0  0  0  0  0  0
   -7.1023   -0.4209  -13.7685 H   0  0  0  0  0  0  0  0  0  0  0  0
   -8.0356   -1.6996  -12.9958 H   0  0  0  0  0  0  0  0  0  0  0  0
  -11.2377    0.4476  -13.0654 H   0  0  0  0  0  0  0  0  0  0  0  0
   -9.9634    1.5241  -12.4952 H   0  0  0  0  0  0  0  0  0  0  0  0
   -6.7540   -0.2919  -11.3301 H   0  0  0  0  0  0  0  0  0  0  0  0
   -7.6220    1.1259  -11.9101 H   0  0  0  0  0  0  0  0  0  0  0  0
  -10.7893    0.0467  -10.6830 H   0  0  0  0  0  0  0  0  0  0  0  0
  -10.2932   -1.3895  -11.5784 H   0  0  0  0  0  0  0  0  0  0  0  0
   -7.3699   -2.4378  -19.8688 H   0  0  0  0  0  0  0  0  0  0  0  0
   -8.4215   -3.7264  -19.3466 H   0  0  0  0  0  0  0  0  0  0  0  0
  1  2  2  0  0  0  0
  1  4  1  0  0  0  0
  1 12  1  0  0  0  0
  2  5  1  0  0  0  0
  2 15  1  0  0  0  0
  3 12  2  0  0  0  0
  3 13  1  0  0  0  0
  3 15  1  0  0  0  0
  4  6  1  0  0  0  0
  5 11  1  0  0  0  0
  6 11  1  0  0  0  0
  7  9  1  0  0  0  0
  7 11  1  0  0  0  0
  8 10  1  0  0  0  0
  8 11  1  0  0  0  0
  9 14  1  0  0  0  0
 10 14  1  0  0  0  0
  4 16  1  0  0  0  0
  4 17  1  0  0  0  0
  5 18  1  0  0  0  0
  5 19  1  0  0  0  0
  6 20  1  0  0  0  0
  6 21  1  0  0  0  0
  7 22  1  0  0  0  0
  7 23  1  0  0  0  0
  8 24  1  0  0  0  0
  8 25  1  0  0  0  0
  9 26  1  0  0  0  0
  9 27  1  0  0  0  0
 10 28  1  0  0  0  0
 10 29  1  0  0  0  0
 13 30  1  0  0  0  0
 13 31  1  0  0  0  0
M  END
> <id>
EN300-247478

> <smiles>
NC1=NC=2CCC3(CCOCC3)CC2S1

> <MDLNUMBER>
MFCD29047331

> <IUPAC Name>
5,7-dihydro-4H-spiro[1,3-benzothiazole-6,4'-oxane]-2-amine

> <CAS>
1909306-61-1

> <Purity>
95

> <URL>
https://www.enaminestore.com/catalog/EN300-247478

> <ROCS_ShapeQuery>
amalgated

> <ROCS_TanimotoCombo>
0.815 

> <ROCS_ShapeTanimoto>
0.549 

> <ROCS_ColorTanimoto>
0.266 

> <ROCS_RefTversky>
0.507 

> <ROCS_RefColorTversky>
0.421 

> <ROCS_RefTverskyCombo>
0.928 

> <ROCS_FitTversky>
1.176 

> <ROCS_FitColorTversky>
0.420 

> <ROCS_FitTverskyCombo>
1.597 

> <ROCS_ColorScore>
-2.949

> <ROCS_Overlap>
830.920

> <ROCS_Rank>
443                 

$$$$
untitled-dbase-24893_69
  -OEChem-10092318153D

 35 36  0     1  0  0  0  0  0999 V2000
   -8.8739   -1.6004  -13.9357 C   0  0  0  0  0  0  0  0  0  0  0  0
   -8.9403    0.2673  -17.1145 C   0  0  0  0  0  0  0  0  0  0  0  0
   -9.3183   -2.7397  -17.1081 C   0  0  0  0  0  0  0  0  0  0  0  0
   -8.8043    0.2678  -15.5960 C   0  0  0  0  0  0  0  0  0  0  0  0
   -8.1639   -0.9707  -17.5866 C   0  0  1  0  0  0  0  0  0  0  0  0
   -8.2169   -1.9416  -16.3752 C   0  0  1  0  0  0  0  0  0  0  0  0
   -8.9297   -2.0254  -18.4197 C   0  0  1  0  0  0  0  0  0  0  0  0
   -7.8475    0.0944  -12.2231 C   0  0  0  0  0  0  0  0  0  0  0  0
  -10.1308    1.0942  -11.9126 C   0  0  0  0  0  0  0  0  0  0  0  0
   -9.5936   -1.1376  -10.8934 C   0  0  0  0  0  0  0  0  0  0  0  0
   -9.3392   -0.2017  -12.0742 C   0  0  0  0  0  0  0  0  0  0  0  0
   -8.6640   -1.1356  -15.2231 N   0  0  0  0  0  0  0  0  0  0  0  0
   -7.9509   -2.8513  -19.1266 N   0  0  0  0  0  0  0  0  0  0  0  0
   -8.3024   -2.5718  -13.4469 O   0  0  0  0  0  0  0  0  0  0  0  0
   -9.7983   -0.8414  -13.2700 O   0  0  0  0  0  0  0  0  0  0  0  0
   -9.9819    0.2416  -17.4350 H   0  0  0  0  0  0  0  0  0  0  0  0
   -8.4714    1.1653  -17.5246 H   0  0  0  0  0  0  0  0  0  0  0  0
   -9.1433   -3.8223  -17.0766 H   0  0  0  0  0  0  0  0  0  0  0  0
  -10.3422   -2.5535  -16.7687 H   0  0  0  0  0  0  0  0  0  0  0  0
   -7.9489    0.8511  -15.2450 H   0  0  0  0  0  0  0  0  0  0  0  0
   -9.7089    0.6474  -15.1102 H   0  0  0  0  0  0  0  0  0  0  0  0
   -7.1440   -0.7382  -17.9270 H   0  0  0  0  0  0  0  0  0  0  0  0
   -7.2901   -2.4860  -16.1760 H   0  0  0  0  0  0  0  0  0  0  0  0
   -9.7597   -1.6698  -19.0219 H   0  0  0  0  0  0  0  0  0  0  0  0
   -7.2758   -0.8333  -12.3393 H   0  0  0  0  0  0  0  0  0  0  0  0
   -7.6480    0.7364  -13.0872 H   0  0  0  0  0  0  0  0  0  0  0  0
   -7.4556    0.5888  -11.3268 H   0  0  0  0  0  0  0  0  0  0  0  0
  -11.2016    0.8865  -11.8054 H   0  0  0  0  0  0  0  0  0  0  0  0
  -10.0267    1.7284  -12.8004 H   0  0  0  0  0  0  0  0  0  0  0  0
   -9.7990    1.6640  -11.0386 H   0  0  0  0  0  0  0  0  0  0  0  0
  -10.6635   -1.3501  -10.7864 H   0  0  0  0  0  0  0  0  0  0  0  0
   -9.0625   -2.0878  -11.0102 H   0  0  0  0  0  0  0  0  0  0  0  0
   -9.2749   -0.6738   -9.9529 H   0  0  0  0  0  0  0  0  0  0  0  0
   -8.4175   -3.6519  -19.4833 H   0  0  0  0  0  0  0  0  0  0  0  0
   -7.5652   -2.3128  -19.8664 H   0  0  0  0  0  0  0  0  0  0  0  0
  1 12  1  0  0  0  0
  1 14  2  0  0  0  0
  1 15  1  0  0  0  0
  2  4  1  0  0  0  0
  2  5  1  0  0  0  0
  3  6  1  0  0  0  0
  3  7  1  0  0  0  0
  4 12  1  0  0  0  0
  5  6  1  0  0  0  0
  5  7  1  0  0  0  0
  6 12  1  0  0  0  0
  7 13  1  0  0  0  0
  8 11  1  0  0  0  0
  9 11  1  0  0  0  0
 10 11  1  0  0  0  0
 11 15  1  0  0  0  0
  2 16  1  0  0  0  0
  2 17  1  0  0  0  0
  3 18  1  0  0  0  0
  3 19  1  0  0  0  0
  4 20  1  0  0  0  0
  4 21  1  0  0  0  0
  5 22  1  0  0  0  0
  6 23  1  0  0  0  0
  7 24  1  0  0  0  0
  8 25  1  0  0  0  0
  8 26  1  0  0  0  0
  8 27  1  0  0  0  0
  9 28  1  0  0  0  0
  9 29  1  0  0  0  0
  9 30  1  0  0  0  0
 10 31  1  0  0  0  0
 10 32  1  0  0  0  0
 10 33  1  0  0  0  0
 13 34  1  0  0  0  0
 13 35  1  0  0  0  0
M  END
> <id>
EN300-6489200

> <smiles>
CC(C)(C)OC(=O)N1CCC2C(N)CC21

> <MDLNUMBER>
MFCD32717793

> <IUPAC Name>
tert-butyl 6-amino-2-azabicyclo[3.2.0]heptane-2-carboxylate

> <CAS>
1785176-82-0

> <URL>
https://www.enaminestore.com/catalog/EN300-6489200

> <ROCS_ShapeQuery>
amalgated

> <ROCS_TanimotoCombo>
0.815 

> <ROCS_ShapeTanimoto>
0.519 

> <ROCS_ColorTanimoto>
0.296 

> <ROCS_RefTversky>
0.490 

> <ROCS_RefColorTversky>
0.527 

> <ROCS_RefTverskyCombo>
1.016 

> <ROCS_FitTversky>
1.131 

> <ROCS_FitColorTversky>
0.403 

> <ROCS_FitTverskyCombo>
1.534 

> <ROCS_ColorScore>
-3.751

> <ROCS_Overlap>
802.526

> <ROCS_Rank>
444                 

$$$$
untitled-dbase-34500_33
  -OEChem-10092318153D

 35 36  0     1  0  0  0  0  0999 V2000
   -8.0680   -0.4783  -14.6771 C   0  0  0  0  0  0  0  0  0  0  0  0
   -9.7243   -3.4231  -17.5235 C   0  0  0  0  0  0  0  0  0  0  0  0
   -8.5072   -3.9265  -18.2922 C   0  0  0  0  0  0  0  0  0  0  0  0
   -9.7833   -1.1231  -16.3666 C   0  0  0  0  0  0  0  0  0  0  0  0
   -7.4555   -1.3675  -16.9599 C   0  0  0  0  0  0  0  0  0  0  0  0
   -9.7034   -1.9031  -17.6706 C   0  0  1  0  0  0  0  0  0  0  0  0
   -8.3099   -1.5947  -18.2074 C   0  0  2  0  0  0  0  0  0  0  0  0
   -8.6474    1.1854  -12.4266 C   0  0  0  0  0  0  0  0  0  0  0  0
   -9.9136   -0.7884  -11.5265 C   0  0  0  0  0  0  0  0  0  0  0  0
   -7.4402   -0.9654  -11.9254 C   0  0  0  0  0  0  0  0  0  0  0  0
   -8.7485   -0.3391  -12.4057 C   0  0  0  0  0  0  0  0  0  0  0  0
   -7.9579   -2.7672  -18.9956 N   0  0  0  0  0  0  0  0  0  0  0  0
   -8.4043   -0.9575  -15.9322 N   0  0  0  0  0  0  0  0  0  0  0  0
   -7.0460    0.1591  -14.4325 O   0  0  0  0  0  0  0  0  0  0  0  0
   -9.0113   -0.7966  -13.7369 O   0  0  0  0  0  0  0  0  0  0  0  0
  -10.6404   -3.8390  -17.9617 H   0  0  0  0  0  0  0  0  0  0  0  0
   -9.6955   -3.7301  -16.4708 H   0  0  0  0  0  0  0  0  0  0  0  0
   -7.7613   -4.3819  -17.6267 H   0  0  0  0  0  0  0  0  0  0  0  0
   -8.8042   -4.6944  -19.0216 H   0  0  0  0  0  0  0  0  0  0  0  0
  -10.2590   -0.1418  -16.4900 H   0  0  0  0  0  0  0  0  0  0  0  0
  -10.3180   -1.6571  -15.5689 H   0  0  0  0  0  0  0  0  0  0  0  0
   -6.8916   -2.2463  -16.6433 H   0  0  0  0  0  0  0  0  0  0  0  0
   -6.7592   -0.5393  -17.1119 H   0  0  0  0  0  0  0  0  0  0  0  0
  -10.4811   -1.5538  -18.3723 H   0  0  0  0  0  0  0  0  0  0  0  0
   -8.3113   -0.6874  -18.8570 H   0  0  0  0  0  0  0  0  0  0  0  0
   -7.8123    1.5119  -13.0567 H   0  0  0  0  0  0  0  0  0  0  0  0
   -9.5671    1.6456  -12.8023 H   0  0  0  0  0  0  0  0  0  0  0  0
   -8.4491    1.5779  -11.4227 H   0  0  0  0  0  0  0  0  0  0  0  0
   -9.9899   -1.8816  -11.5086 H   0  0  0  0  0  0  0  0  0  0  0  0
  -10.8664   -0.4189  -11.9224 H   0  0  0  0  0  0  0  0  0  0  0  0
   -9.8040   -0.4316  -10.4973 H   0  0  0  0  0  0  0  0  0  0  0  0
   -7.5125   -2.0590  -11.9103 H   0  0  0  0  0  0  0  0  0  0  0  0
   -6.5988   -0.6836  -12.5667 H   0  0  0  0  0  0  0  0  0  0  0  0
   -7.2141   -0.6563  -10.8985 H   0  0  0  0  0  0  0  0  0  0  0  0
   -6.9361   -2.8621  -19.0322 H   0  0  0  0  0  0  0  0  0  0  0  0
  1 13  1  0  0  0  0
  1 14  2  0  0  0  0
  1 15  1  0  0  0  0
  2  3  1  0  0  0  0
  2  6  1  0  0  0  0
  3 12  1  0  0  0  0
  4  6  1  0  0  0  0
  4 13  1  0  0  0  0
  5  7  1  0  0  0  0
  5 13  1  0  0  0  0
  6  7  1  0  0  0  0
  7 12  1  0  0  0  0
  8 11  1  0  0  0  0
  9 11  1  0  0  0  0
 10 11  1  0  0  0  0
 11 15  1  0  0  0  0
  2 16  1  0  0  0  0
  2 17  1  0  0  0  0
  3 18  1  0  0  0  0
  3 19  1  0  0  0  0
  4 20  1  0  0  0  0
  4 21  1  0  0  0  0
  5 22  1  0  0  0  0
  5 23  1  0  0  0  0
  6 24  1  0  0  0  0
  7 25  1  0  0  0  0
  8 26  1  0  0  0  0
  8 27  1  0  0  0  0
  8 28  1  0  0  0  0
  9 29  1  0  0  0  0
  9 30  1  0  0  0  0
  9 31  1  0  0  0  0
 10 32  1  0  0  0  0
 10 33  1  0  0  0  0
 10 34  1  0  0  0  0
 12 35  1  0  0  0  0
M  END
> <id>
EN300-33986

> <smiles>
CC(C)(C)OC(=O)N1CC2CCNC2C1

> <MDLNUMBER>
MFCD08235016

> <IUPAC Name>
tert-butyl octahydropyrrolo[3,4-b]pyrrole-5-carboxylate

> <CAS>
132414-81-4

> <URL>
https://www.enaminestore.com/catalog/EN300-33986

> <ROCS_ShapeQuery>
amalgated

> <ROCS_TanimotoCombo>
0.815 

> <ROCS_ShapeTanimoto>
0.514 

> <ROCS_ColorTanimoto>
0.301 

> <ROCS_RefTversky>
0.488 

> <ROCS_RefColorTversky>
0.435 

> <ROCS_RefTverskyCombo>
0.923 

> <ROCS_FitTversky>
1.118 

> <ROCS_FitColorTversky>
0.494 

> <ROCS_FitTverskyCombo>
1.612 

> <ROCS_ColorScore>
-3.028

> <ROCS_Overlap>
799.004

> <ROCS_Rank>
445                 

$$$$
untitled-dbase-16982_0
  -OEChem-10092318153D

 34 36  0     1  0  0  0  0  0999 V2000
   -7.7657    0.3462  -19.1234 C   0  0  0  0  0  0  0  0  0  0  0  0
   -7.0930    1.5281  -18.8283 C   0  0  0  0  0  0  0  0  0  0  0  0
   -7.2442    1.0028  -16.4811 C   0  0  0  0  0  0  0  0  0  0  0  0
   -8.1856   -0.5284  -18.1006 C   0  0  0  0  0  0  0  0  0  0  0  0
   -7.9085   -0.2117  -16.7503 C   0  0  0  0  0  0  0  0  0  0  0  0
   -6.8351    1.8580  -17.5057 C   0  0  0  0  0  0  0  0  0  0  0  0
   -8.0170   -1.0435  -13.1661 C   0  0  0  0  0  0  0  0  0  0  0  0
   -9.0185    0.0400  -13.5117 C   0  0  0  0  0  0  0  0  0  0  0  0
   -9.7086   -2.3903  -17.3454 C   0  0  0  0  0  0  0  0  0  0  0  0
   -7.3110   -1.3204  -14.4881 C   0  0  0  0  0  0  0  0  0  0  0  0
   -9.5706   -0.4087  -14.8590 C   0  0  0  0  0  0  0  0  0  0  0  0
   -8.8326   -2.5010  -16.1040 C   0  0  0  0  0  0  0  0  0  0  0  0
   -8.9123   -1.7948  -18.5099 C   0  0  2  0  0  0  0  0  0  0  0  0
   -8.3865   -1.1061  -15.5969 C   0  0  0  0  0  0  0  0  0  0  0  0
   -7.9663   -2.7882  -19.0326 N   0  0  0  0  0  0  0  0  0  0  0  0
   -6.0209    3.3263  -17.1275 Cl  0  0  0  0  0  0  0  0  0  0  0  0
   -7.9686    0.1052  -20.1647 H   0  0  0  0  0  0  0  0  0  0  0  0
   -6.7842    2.1818  -19.6398 H   0  0  0  0  0  0  0  0  0  0  0  0
   -7.0501    1.2979  -15.4524 H   0  0  0  0  0  0  0  0  0  0  0  0
   -7.3202   -0.7321  -12.3827 H   0  0  0  0  0  0  0  0  0  0  0  0
   -8.5371   -1.9451  -12.8213 H   0  0  0  0  0  0  0  0  0  0  0  0
   -9.8040    0.1341  -12.7561 H   0  0  0  0  0  0  0  0  0  0  0  0
   -8.5195    1.0109  -13.6025 H   0  0  0  0  0  0  0  0  0  0  0  0
  -10.1026   -3.3785  -17.6139 H   0  0  0  0  0  0  0  0  0  0  0  0
  -10.5817   -1.7605  -17.1321 H   0  0  0  0  0  0  0  0  0  0  0  0
   -6.4562   -0.6438  -14.5885 H   0  0  0  0  0  0  0  0  0  0  0  0
   -6.8903   -2.3324  -14.4900 H   0  0  0  0  0  0  0  0  0  0  0  0
  -10.3909   -1.1144  -14.6765 H   0  0  0  0  0  0  0  0  0  0  0  0
   -9.9991    0.4357  -15.4105 H   0  0  0  0  0  0  0  0  0  0  0  0
   -9.3750   -3.0406  -15.3173 H   0  0  0  0  0  0  0  0  0  0  0  0
   -7.9541   -3.1165  -16.3391 H   0  0  0  0  0  0  0  0  0  0  0  0
   -9.6283   -1.5523  -19.3057 H   0  0  0  0  0  0  0  0  0  0  0  0
   -8.4842   -3.5891  -19.2987 H   0  0  0  0  0  0  0  0  0  0  0  0
   -7.5057   -2.3867  -19.8117 H   0  0  0  0  0  0  0  0  0  0  0  0
  1  2  1  0  0  0  0
  1  4  2  0  0  0  0
  2  6  2  0  0  0  0
  3  5  2  0  0  0  0
  3  6  1  0  0  0  0
  4  5  1  0  0  0  0
  4 13  1  0  0  0  0
  5 14  1  0  0  0  0
  6 16  1  0  0  0  0
  7  8  1  0  0  0  0
  7 10  1  0  0  0  0
  8 11  1  0  0  0  0
  9 12  1  0  0  0  0
  9 13  1  0  0  0  0
 10 14  1  0  0  0  0
 11 14  1  0  0  0  0
 12 14  1  0  0  0  0
 13 15  1  0  0  0  0
  1 17  1  0  0  0  0
  2 18  1  0  0  0  0
  3 19  1  0  0  0  0
  7 20  1  0  0  0  0
  7 21  1  0  0  0  0
  8 22  1  0  0  0  0
  8 23  1  0  0  0  0
  9 24  1  0  0  0  0
  9 25  1  0  0  0  0
 10 26  1  0  0  0  0
 10 27  1  0  0  0  0
 11 28  1  0  0  0  0
 11 29  1  0  0  0  0
 12 30  1  0  0  0  0
 12 31  1  0  0  0  0
 13 32  1  0  0  0  0
 15 33  1  0  0  0  0
 15 34  1  0  0  0  0
M  END
> <id>
EN300-1458066

> <smiles>
NC1CCC2(CCCC2)C=3C=C(Cl)C=CC13

> <IUPAC Name>
7'-chloro-3',4'-dihydro-2'H-spiro[cyclopentane-1,1'-naphthalene]-4'-amine

> <CAS>
2168737-42-4

> <URL>
https://www.enaminestore.com/catalog/EN300-1458066

> <ROCS_ShapeQuery>
amalgated

> <ROCS_TanimotoCombo>
0.815 

> <ROCS_ShapeTanimoto>
0.479 

> <ROCS_ColorTanimoto>
0.336 

> <ROCS_RefTversky>
0.472 

> <ROCS_RefColorTversky>
0.438 

> <ROCS_RefTverskyCombo>
0.909 

> <ROCS_FitTversky>
1.033 

> <ROCS_FitColorTversky>
0.591 

> <ROCS_FitTverskyCombo>
1.624 

> <ROCS_ColorScore>
-3.019

> <ROCS_Overlap>
774.277

> <ROCS_Rank>
446                 

$$$$
untitled-dbase-34903_83
  -OEChem-10092318153D

 38 39  0     0  0  0  0  0  0999 V2000
   -8.7205    0.2687  -12.9838 C   0  0  0  0  0  0  0  0  0  0  0  0
   -8.9161    0.8313  -16.6138 C   0  0  0  0  0  0  0  0  0  0  0  0
   -7.5444   -1.3464  -17.0500 C   0  0  0  0  0  0  0  0  0  0  0  0
   -9.5956   -1.4937  -17.6471 C   0  0  0  0  0  0  0  0  0  0  0  0
   -8.3946    1.2421  -15.2499 C   0  0  0  0  0  0  0  0  0  0  0  0
   -9.2234   -1.0362  -15.0836 C   0  0  0  0  0  0  0  0  0  0  0  0
   -8.4177   -2.4893  -17.6087 C   0  0  0  0  0  0  0  0  0  0  0  0
   -8.8663   -0.6905  -16.5300 C   0  0  0  0  0  0  0  0  0  0  0  0
  -10.8382   -0.8474  -11.9193 C   0  0  0  0  0  0  0  0  0  0  0  0
   -9.4788   -2.9162  -11.4934 C   0  0  0  0  0  0  0  0  0  0  0  0
   -9.1345   -0.8778  -10.0671 C   0  0  0  0  0  0  0  0  0  0  0  0
   -9.4841   -1.3893  -11.4638 C   0  0  0  0  0  0  0  0  0  0  0  0
   -8.7819    0.1549  -14.3644 N   0  0  0  0  0  0  0  0  0  0  0  0
   -8.0000   -2.7910  -18.9704 N   0  0  0  0  0  0  0  0  0  0  0  0
   -8.8652    1.3239  -12.3707 O   0  0  0  0  0  0  0  0  0  0  0  0
   -8.4807   -0.9366  -12.3796 O   0  0  0  0  0  0  0  0  0  0  0  0
   -9.9516    1.1707  -16.7354 H   0  0  0  0  0  0  0  0  0  0  0  0
   -8.3189    1.2444  -17.4318 H   0  0  0  0  0  0  0  0  0  0  0  0
   -6.8212   -1.6431  -16.2838 H   0  0  0  0  0  0  0  0  0  0  0  0
   -7.0158   -0.7427  -17.7992 H   0  0  0  0  0  0  0  0  0  0  0  0
   -9.7149   -0.9297  -18.5814 H   0  0  0  0  0  0  0  0  0  0  0  0
  -10.5689   -1.9128  -17.3742 H   0  0  0  0  0  0  0  0  0  0  0  0
   -7.3003    1.2968  -15.2399 H   0  0  0  0  0  0  0  0  0  0  0  0
   -8.7963    2.1980  -14.9012 H   0  0  0  0  0  0  0  0  0  0  0  0
  -10.3049   -1.1282  -14.9381 H   0  0  0  0  0  0  0  0  0  0  0  0
   -8.7249   -1.9295  -14.6956 H   0  0  0  0  0  0  0  0  0  0  0  0
   -8.5455   -3.3465  -16.9488 H   0  0  0  0  0  0  0  0  0  0  0  0
  -10.8461    0.2483  -11.8995 H   0  0  0  0  0  0  0  0  0  0  0  0
  -11.0848   -1.1786  -12.9334 H   0  0  0  0  0  0  0  0  0  0  0  0
  -11.6374   -1.1746  -11.2445 H   0  0  0  0  0  0  0  0  0  0  0  0
   -8.5091   -3.3094  -11.1673 H   0  0  0  0  0  0  0  0  0  0  0  0
   -9.6354   -3.2873  -12.5127 H   0  0  0  0  0  0  0  0  0  0  0  0
  -10.2576   -3.3355  -10.8483 H   0  0  0  0  0  0  0  0  0  0  0  0
   -8.1632   -1.2664   -9.7401 H   0  0  0  0  0  0  0  0  0  0  0  0
   -9.0974    0.2160  -10.0357 H   0  0  0  0  0  0  0  0  0  0  0  0
   -9.8693   -1.2226   -9.3306 H   0  0  0  0  0  0  0  0  0  0  0  0
   -7.1240   -3.2581  -18.9336 H   0  0  0  0  0  0  0  0  0  0  0  0
   -8.6884   -3.3736  -19.3872 H   0  0  0  0  0  0  0  0  0  0  0  0
  1 13  1  0  0  0  0
  1 15  2  0  0  0  0
  1 16  1  0  0  0  0
  2  5  1  0  0  0  0
  2  8  1  0  0  0  0
  3  7  1  0  0  0  0
  3  8  1  0  0  0  0
  4  7  1  0  0  0  0
  4  8  1  0  0  0  0
  5 13  1  0  0  0  0
  6  8  1  0  0  0  0
  6 13  1  0  0  0  0
  7 14  1  0  0  0  0
  9 12  1  0  0  0  0
 10 12  1  0  0  0  0
 11 12  1  0  0  0  0
 12 16  1  0  0  0  0
  2 17  1  0  0  0  0
  2 18  1  0  0  0  0
  3 19  1  0  0  0  0
  3 20  1  0  0  0  0
  4 21  1  0  0  0  0
  4 22  1  0  0  0  0
  5 23  1  0  0  0  0
  5 24  1  0  0  0  0
  6 25  1  0  0  0  0
  6 26  1  0  0  0  0
  7 27  1  0  0  0  0
  9 28  1  0  0  0  0
  9 29  1  0  0  0  0
  9 30  1  0  0  0  0
 10 31  1  0  0  0  0
 10 32  1  0  0  0  0
 10 33  1  0  0  0  0
 11 34  1  0  0  0  0
 11 35  1  0  0  0  0
 11 36  1  0  0  0  0
 14 37  1  0  0  0  0
 14 38  1  0  0  0  0
M  END
> <id>
EN300-3052592

> <smiles>
CC(C)(C)OC(=O)N1CCC2(CC(N)C2)C1

> <MDLNUMBER>
MFCD17016203

> <IUPAC Name>
tert-butyl 2-amino-6-azaspiro[3.4]octane-6-carboxylate

> <CAS>
1239319-94-8

> <Purity>
95

> <URL>
https://www.enaminestore.com/catalog/EN300-3052592

> <ROCS_ShapeQuery>
amalgated

> <ROCS_TanimotoCombo>
0.815 

> <ROCS_ShapeTanimoto>
0.517 

> <ROCS_ColorTanimoto>
0.298 

> <ROCS_RefTversky>
0.496 

> <ROCS_RefColorTversky>
0.430 

> <ROCS_RefTverskyCombo>
0.926 

> <ROCS_FitTversky>
1.088 

> <ROCS_FitColorTversky>
0.493 

> <ROCS_FitTverskyCombo>
1.581 

> <ROCS_ColorScore>
-2.988

> <ROCS_Overlap>
814.128

> <ROCS_Rank>
447                 

$$$$
untitled-dbase-34602_44
  -OEChem-10092318153D

 37 37  0     1  0  0  0  0  0999 V2000
   -8.5581   -0.0130  -15.1047 C   0  0  0  0  0  0  0  0  0  0  0  0
   -9.3282   -3.2400  -16.4162 C   0  0  0  0  0  0  0  0  0  0  0  0
   -9.9322   -2.6461  -17.6932 C   0  0  0  0  0  0  0  0  0  0  0  0
   -8.2373   -2.3664  -15.7987 C   0  0  0  0  0  0  0  0  0  0  0  0
   -8.9420   -1.7703  -18.4723 C   0  0  1  0  0  0  0  0  0  0  0  0
   -8.4462   -0.6034  -17.5692 C   0  0  2  0  0  0  0  0  0  0  0  0
   -7.1122    0.0047  -18.0130 C   0  0  0  0  0  0  0  0  0  0  0  0
  -10.7107    0.0932  -13.2208 C   0  0  0  0  0  0  0  0  0  0  0  0
   -9.0296   -0.7076  -11.5350 C   0  0  0  0  0  0  0  0  0  0  0  0
   -8.7004    1.5059  -12.6753 C   0  0  0  0  0  0  0  0  0  0  0  0
   -9.2346    0.0823  -12.8258 C   0  0  0  0  0  0  0  0  0  0  0  0
   -8.4219   -0.9580  -16.1309 N   0  0  0  0  0  0  0  0  0  0  0  0
   -7.8876   -2.6125  -19.0417 N   0  0  0  0  0  0  0  0  0  0  0  0
   -8.7172    1.1927  -15.2871 O   0  0  0  0  0  0  0  0  0  0  0  0
   -8.4917   -0.5769  -13.8576 O   0  0  0  0  0  0  0  0  0  0  0  0
  -10.1291   -3.3970  -15.6746 H   0  0  0  0  0  0  0  0  0  0  0  0
   -8.9171   -4.2378  -16.6375 H   0  0  0  0  0  0  0  0  0  0  0  0
  -10.3103   -3.4687  -18.3319 H   0  0  0  0  0  0  0  0  0  0  0  0
  -10.8275   -2.0545  -17.4192 H   0  0  0  0  0  0  0  0  0  0  0  0
   -8.2267   -2.5114  -14.7165 H   0  0  0  0  0  0  0  0  0  0  0  0
   -7.2566   -2.6676  -16.1760 H   0  0  0  0  0  0  0  0  0  0  0  0
   -9.4926   -1.3261  -19.3083 H   0  0  0  0  0  0  0  0  0  0  0  0
   -9.1978    0.2173  -17.7050 H   0  0  0  0  0  0  0  0  0  0  0  0
   -6.3247   -0.7365  -17.9102 H   0  0  0  0  0  0  0  0  0  0  0  0
   -6.8827    0.8657  -17.3918 H   0  0  0  0  0  0  0  0  0  0  0  0
   -7.1840    0.3155  -19.0515 H   0  0  0  0  0  0  0  0  0  0  0  0
  -10.8620    0.6591  -14.1469 H   0  0  0  0  0  0  0  0  0  0  0  0
  -11.0969   -0.9210  -13.3660 H   0  0  0  0  0  0  0  0  0  0  0  0
  -11.3171    0.5879  -12.4535 H   0  0  0  0  0  0  0  0  0  0  0  0
   -7.9719   -0.7180  -11.2478 H   0  0  0  0  0  0  0  0  0  0  0  0
   -9.3238   -1.7550  -11.6674 H   0  0  0  0  0  0  0  0  0  0  0  0
   -9.6094   -0.2865  -10.7073 H   0  0  0  0  0  0  0  0  0  0  0  0
   -7.6416    1.4983  -12.3920 H   0  0  0  0  0  0  0  0  0  0  0  0
   -8.8056    2.0764  -13.6038 H   0  0  0  0  0  0  0  0  0  0  0  0
   -9.2302    2.0386  -11.8773 H   0  0  0  0  0  0  0  0  0  0  0  0
   -8.3183   -3.3109  -19.5987 H   0  0  0  0  0  0  0  0  0  0  0  0
   -7.2977   -2.0362  -19.5926 H   0  0  0  0  0  0  0  0  0  0  0  0
  1 12  1  0  0  0  0
  1 14  2  0  0  0  0
  1 15  1  0  0  0  0
  2  3  1  0  0  0  0
  2  4  1  0  0  0  0
  3  5  1  0  0  0  0
  4 12  1  0  0  0  0
  5  6  1  0  0  0  0
  5 13  1  0  0  0  0
  6  7  1  0  0  0  0
  6 12  1  0  0  0  0
  8 11  1  0  0  0  0
  9 11  1  0  0  0  0
 10 11  1  0  0  0  0
 11 15  1  0  0  0  0
  2 16  1  0  0  0  0
  2 17  1  0  0  0  0
  3 18  1  0  0  0  0
  3 19  1  0  0  0  0
  4 20  1  0  0  0  0
  4 21  1  0  0  0  0
  5 22  1  0  0  0  0
  6 23  1  0  0  0  0
  7 24  1  0  0  0  0
  7 25  1  0  0  0  0
  7 26  1  0  0  0  0
  8 27  1  0  0  0  0
  8 28  1  0  0  0  0
  8 29  1  0  0  0  0
  9 30  1  0  0  0  0
  9 31  1  0  0  0  0
  9 32  1  0  0  0  0
 10 33  1  0  0  0  0
 10 34  1  0  0  0  0
 10 35  1  0  0  0  0
 13 36  1  0  0  0  0
 13 37  1  0  0  0  0
M  END
> <id>
EN300-155978

> <smiles>
CC1C(N)CCCN1C(=O)OC(C)(C)C

> <MDLNUMBER>
MFCD24532322

> <IUPAC Name>
tert-butyl 3-amino-2-methylpiperidine-1-carboxylate

> <CAS>
1392473-07-2

> <Purity>
95

> <URL>
https://www.enaminestore.com/catalog/EN300-155978

> <ROCS_ShapeQuery>
amalgated

> <ROCS_TanimotoCombo>
0.815 

> <ROCS_ShapeTanimoto>
0.517 

> <ROCS_ColorTanimoto>
0.298 

> <ROCS_RefTversky>
0.484 

> <ROCS_RefColorTversky>
0.399 

> <ROCS_RefTverskyCombo>
0.883 

> <ROCS_FitTversky>
1.152 

> <ROCS_FitColorTversky>
0.540 

> <ROCS_FitTverskyCombo>
1.693 

> <ROCS_ColorScore>
-2.755

> <ROCS_Overlap>
792.379

> <ROCS_Rank>
448                 

$$$$
untitled-dbase-8571_0
  -OEChem-10092318153D

 34 36  0     1  0  0  0  0  0999 V2000
   -9.1709   -1.6250  -13.3116 C   0  0  0  0  0  0  0  0  0  0  0  0
   -9.1844   -1.1781  -11.9849 C   0  0  0  0  0  0  0  0  0  0  0  0
   -8.7677   -0.7778  -14.3540 C   0  0  0  0  0  0  0  0  0  0  0  0
   -8.3808    0.9758  -12.6939 C   0  0  0  0  0  0  0  0  0  0  0  0
   -8.3724    0.5133  -14.0118 C   0  0  0  0  0  0  0  0  0  0  0  0
   -8.7916    0.1221  -11.6767 C   0  0  0  0  0  0  0  0  0  0  0  0
   -8.7278   -1.1764  -15.7709 C   0  0  0  0  0  0  0  0  0  0  0  0
   -8.2686   -0.3090  -16.6931 C   0  0  0  0  0  0  0  0  0  0  0  0
   -7.8460    1.0686  -16.3294 C   0  0  0  0  0  0  0  0  0  0  0  0
   -9.2050   -2.5622  -16.1508 C   0  0  0  0  0  0  0  0  0  0  0  0
   -8.1397   -0.6610  -18.1557 C   0  0  0  0  0  0  0  0  0  0  0  0
   -8.2543   -2.1578  -18.4416 C   0  0  0  0  0  0  0  0  0  0  0  0
   -9.4194   -2.7632  -17.6613 C   0  0  1  0  0  0  0  0  0  0  0  0
   -7.9508    2.3705  -12.3734 C   0  0  0  0  0  0  0  0  0  0  0  0
   -9.5950   -4.2438  -17.9924 C   0  0  0  0  0  0  0  0  0  0  0  0
   -7.4450    1.8695  -17.1678 O   0  0  0  0  0  0  0  0  0  0  0  0
   -7.9331    1.4203  -14.9916 O   0  0  0  0  0  0  0  0  0  0  0  0
   -8.8122    0.5354  -10.3794 O   0  0  0  0  0  0  0  0  0  0  0  0
   -9.4786   -2.6501  -13.5006 H   0  0  0  0  0  0  0  0  0  0  0  0
   -9.5024   -1.8557  -11.1967 H   0  0  0  0  0  0  0  0  0  0  0  0
   -8.4735   -3.2925  -15.7801 H   0  0  0  0  0  0  0  0  0  0  0  0
  -10.1616   -2.7793  -15.6593 H   0  0  0  0  0  0  0  0  0  0  0  0
   -8.9214   -0.1267  -18.7104 H   0  0  0  0  0  0  0  0  0  0  0  0
   -7.1748   -0.3153  -18.5459 H   0  0  0  0  0  0  0  0  0  0  0  0
   -8.3888   -2.3121  -19.5189 H   0  0  0  0  0  0  0  0  0  0  0  0
   -7.3171   -2.6579  -18.1640 H   0  0  0  0  0  0  0  0  0  0  0  0
  -10.3421   -2.2429  -17.9548 H   0  0  0  0  0  0  0  0  0  0  0  0
   -8.8093    3.0505  -12.4127 H   0  0  0  0  0  0  0  0  0  0  0  0
   -7.5048    2.4269  -11.3730 H   0  0  0  0  0  0  0  0  0  0  0  0
   -7.1918    2.7232  -13.0823 H   0  0  0  0  0  0  0  0  0  0  0  0
   -8.6971   -4.7931  -17.7143 H   0  0  0  0  0  0  0  0  0  0  0  0
   -9.7709   -4.3647  -19.0600 H   0  0  0  0  0  0  0  0  0  0  0  0
  -10.4443   -4.6465  -17.4429 H   0  0  0  0  0  0  0  0  0  0  0  0
   -9.1195   -0.1823   -9.8033 H   0  0  0  0  0  0  0  0  0  0  0  0
  1  2  1  0  0  0  0
  1  3  2  0  0  0  0
  2  6  2  0  0  0  0
  3  5  1  0  0  0  0
  3  7  1  0  0  0  0
  4  5  2  0  0  0  0
  4  6  1  0  0  0  0
  4 14  1  0  0  0  0
  5 17  1  0  0  0  0
  6 18  1  0  0  0  0
  7  8  2  0  0  0  0
  7 10  1  0  0  0  0
  8  9  1  0  0  0  0
  8 11  1  0  0  0  0
  9 16  2  0  0  0  0
  9 17  1  0  0  0  0
 10 13  1  0  0  0  0
 11 12  1  0  0  0  0
 12 13  1  0  0  0  0
 13 15  1  0  0  0  0
  1 19  1  0  0  0  0
  2 20  1  0  0  0  0
 10 21  1  0  0  0  0
 10 22  1  0  0  0  0
 11 23  1  0  0  0  0
 11 24  1  0  0  0  0
 12 25  1  0  0  0  0
 12 26  1  0  0  0  0
 13 27  1  0  0  0  0
 14 28  1  0  0  0  0
 14 29  1  0  0  0  0
 14 30  1  0  0  0  0
 15 31  1  0  0  0  0
 15 32  1  0  0  0  0
 15 33  1  0  0  0  0
 18 34  1  0  0  0  0
M  END
> <id>
EN300-302598

> <smiles>
CC1CCC2=C(C1)C=3C=CC(O)=C(C)C3OC2=O

> <MDLNUMBER>
MFCD04213324

> <IUPAC Name>
3-hydroxy-4,9-dimethyl-6H,7H,8H,9H,10H-cyclohexa[c]chromen-6-one

> <CAS>
670245-24-6

> <URL>
https://www.enaminestore.com/catalog/EN300-302598

> <ROCS_ShapeQuery>
amalgated

> <ROCS_TanimotoCombo>
0.815 

> <ROCS_ShapeTanimoto>
0.594 

> <ROCS_ColorTanimoto>
0.221 

> <ROCS_RefTversky>
0.568 

> <ROCS_RefColorTversky>
0.339 

> <ROCS_RefTverskyCombo>
0.907 

> <ROCS_FitTversky>
1.084 

> <ROCS_FitColorTversky>
0.389 

> <ROCS_FitTverskyCombo>
1.473 

> <ROCS_ColorScore>
-2.358

> <ROCS_Overlap>
934.701

> <ROCS_Rank>
449                 

$$$$
untitled-dbase-14429_73
  -OEChem-10092318153D

 48 49  0     0  0  0  0  0  0999 V2000
   -8.5625    0.2863  -13.1808 C   0  0  0  0  0  0  0  0  0  0  0  0
   -6.9125   -1.5925  -16.0422 C   0  0  0  0  0  0  0  0  0  0  0  0
   -7.9314    0.5718  -16.7635 C   0  0  0  0  0  0  0  0  0  0  0  0
   -7.2522   -1.3429  -14.5714 C   0  0  0  0  0  0  0  0  0  0  0  0
   -7.5689    1.0014  -15.3364 C   0  0  0  0  0  0  0  0  0  0  0  0
   -7.6708   -1.2559  -18.4642 C   0  0  0  0  0  0  0  0  0  0  0  0
   -9.4309   -2.8338  -18.6047 C   0  0  0  0  0  0  0  0  0  0  0  0
   -7.9632   -0.9671  -16.9807 C   0  0  0  0  0  0  0  0  0  0  0  0
   -9.8010   -2.6209  -17.1289 C   0  0  0  0  0  0  0  0  0  0  0  0
  -11.3307   -2.5102  -17.0129 C   0  0  0  0  0  0  0  0  0  0  0  0
   -9.3575   -3.8008  -16.2538 C   0  0  0  0  0  0  0  0  0  0  0  0
  -10.7636   -0.1686  -11.4101 C   0  0  0  0  0  0  0  0  0  0  0  0
   -9.2586   -1.8183  -10.2599 C   0  0  0  0  0  0  0  0  0  0  0  0
   -8.6271    0.6116  -10.3326 C   0  0  0  0  0  0  0  0  0  0  0  0
   -9.3166   -0.5301  -11.0782 C   0  0  0  0  0  0  0  0  0  0  0  0
   -7.9975   -2.6367  -18.8161 N   0  0  0  0  0  0  0  0  0  0  0  0
   -7.8549   -0.0271  -14.3450 N   0  0  0  0  0  0  0  0  0  0  0  0
   -9.0818    1.3774  -12.9547 O   0  0  0  0  0  0  0  0  0  0  0  0
   -9.3007   -1.3709  -16.6311 O   0  0  0  0  0  0  0  0  0  0  0  0
   -8.6131   -0.7652  -12.3032 O   0  0  0  0  0  0  0  0  0  0  0  0
   -5.9275   -1.1589  -16.2505 H   0  0  0  0  0  0  0  0  0  0  0  0
   -6.8076   -2.6640  -16.1975 H   0  0  0  0  0  0  0  0  0  0  0  0
   -8.9216    0.9988  -17.0011 H   0  0  0  0  0  0  0  0  0  0  0  0
   -7.2174    1.0348  -17.4680 H   0  0  0  0  0  0  0  0  0  0  0  0
   -7.9686   -2.0938  -14.2023 H   0  0  0  0  0  0  0  0  0  0  0  0
   -6.3428   -1.4554  -13.9614 H   0  0  0  0  0  0  0  0  0  0  0  0
   -6.5095    1.2979  -15.3124 H   0  0  0  0  0  0  0  0  0  0  0  0
   -8.1439    1.8968  -15.0484 H   0  0  0  0  0  0  0  0  0  0  0  0
   -8.2477   -0.5783  -19.1089 H   0  0  0  0  0  0  0  0  0  0  0  0
   -6.6127   -1.0692  -18.6861 H   0  0  0  0  0  0  0  0  0  0  0  0
   -9.7070   -3.8456  -18.9232 H   0  0  0  0  0  0  0  0  0  0  0  0
   -9.9853   -2.1381  -19.2481 H   0  0  0  0  0  0  0  0  0  0  0  0
  -11.6012   -2.3595  -15.9728 H   0  0  0  0  0  0  0  0  0  0  0  0
  -11.7850   -3.4250  -17.3793 H   0  0  0  0  0  0  0  0  0  0  0  0
  -11.6750   -1.6686  -17.6053 H   0  0  0  0  0  0  0  0  0  0  0  0
   -9.6373   -3.6105  -15.2217 H   0  0  0  0  0  0  0  0  0  0  0  0
   -8.2796   -3.9161  -16.3219 H   0  0  0  0  0  0  0  0  0  0  0  0
   -9.8422   -4.7093  -16.5995 H   0  0  0  0  0  0  0  0  0  0  0  0
  -10.8095    0.7555  -11.9974 H   0  0  0  0  0  0  0  0  0  0  0  0
  -11.2588   -0.9649  -11.9754 H   0  0  0  0  0  0  0  0  0  0  0  0
  -11.3398    0.0169  -10.4964 H   0  0  0  0  0  0  0  0  0  0  0  0
   -8.2222   -2.0814  -10.0195 H   0  0  0  0  0  0  0  0  0  0  0  0
   -9.6670   -2.6611  -10.8293 H   0  0  0  0  0  0  0  0  0  0  0  0
   -9.8195   -1.7280   -9.3240 H   0  0  0  0  0  0  0  0  0  0  0  0
   -7.5891    0.3525  -10.0943 H   0  0  0  0  0  0  0  0  0  0  0  0
   -8.6265    1.5351  -10.9206 H   0  0  0  0  0  0  0  0  0  0  0  0
   -9.1241    0.8083   -9.3757 H   0  0  0  0  0  0  0  0  0  0  0  0
   -7.7800   -2.7917  -19.7999 H   0  0  0  0  0  0  0  0  0  0  0  0
  1 17  1  0  0  0  0
  1 18  2  0  0  0  0
  1 20  1  0  0  0  0
  2  4  1  0  0  0  0
  2  8  1  0  0  0  0
  3  5  1  0  0  0  0
  3  8  1  0  0  0  0
  4 17  1  0  0  0  0
  5 17  1  0  0  0  0
  6  8  1  0  0  0  0
  6 16  1  0  0  0  0
  7  9  1  0  0  0  0
  7 16  1  0  0  0  0
  8 19  1  0  0  0  0
  9 10  1  0  0  0  0
  9 11  1  0  0  0  0
  9 19  1  0  0  0  0
 12 15  1  0  0  0  0
 13 15  1  0  0  0  0
 14 15  1  0  0  0  0
 15 20  1  0  0  0  0
  2 21  1  0  0  0  0
  2 22  1  0  0  0  0
  3 23  1  0  0  0  0
  3 24  1  0  0  0  0
  4 25  1  0  0  0  0
  4 26  1  0  0  0  0
  5 27  1  0  0  0  0
  5 28  1  0  0  0  0
  6 29  1  0  0  0  0
  6 30  1  0  0  0  0
  7 31  1  0  0  0  0
  7 32  1  0  0  0  0
 10 33  1  0  0  0  0
 10 34  1  0  0  0  0
 10 35  1  0  0  0  0
 11 36  1  0  0  0  0
 11 37  1  0  0  0  0
 11 38  1  0  0  0  0
 12 39  1  0  0  0  0
 12 40  1  0  0  0  0
 12 41  1  0  0  0  0
 13 42  1  0  0  0  0
 13 43  1  0  0  0  0
 13 44  1  0  0  0  0
 14 45  1  0  0  0  0
 14 46  1  0  0  0  0
 14 47  1  0  0  0  0
 16 48  1  0  0  0  0
M  END
> <id>
EN300-842604

> <smiles>
CC(C)(C)OC(=O)N1CCC2(CC1)CNCC(C)(C)O2

> <IUPAC Name>
tert-butyl 2,2-dimethyl-1-oxa-4,9-diazaspiro[5.5]undecane-9-carboxylate

> <CAS>
1839098-07-5

> <URL>
https://www.enaminestore.com/catalog/EN300-842604

> <ROCS_ShapeQuery>
amalgated

> <ROCS_TanimotoCombo>
0.815 

> <ROCS_ShapeTanimoto>
0.610 

> <ROCS_ColorTanimoto>
0.204 

> <ROCS_RefTversky>
0.590 

> <ROCS_RefColorTversky>
0.361 

> <ROCS_RefTverskyCombo>
0.950 

> <ROCS_FitTversky>
1.062 

> <ROCS_FitColorTversky>
0.320 

> <ROCS_FitTverskyCombo>
1.382 

> <ROCS_ColorScore>
-2.543

> <ROCS_Overlap>
972.330

> <ROCS_Rank>
450                 

$$$$
untitled-dbase-48355_12
  -OEChem-10092318153D

 38 39  0     1  0  0  0  0  0999 V2000
   -8.5208   -1.4950  -14.4118 C   0  0  0  0  0  0  0  0  0  0  0  0
  -10.6532   -3.4450  -17.8120 C   0  0  0  0  0  0  0  0  0  0  0  0
   -9.9293   -3.4458  -16.4694 C   0  0  0  0  0  0  0  0  0  0  0  0
  -10.2365   -2.1275  -18.4490 C   0  0  0  0  0  0  0  0  0  0  0  0
   -8.2434   -0.5754  -17.9637 C   0  0  0  0  0  0  0  0  0  0  0  0
   -8.6570   -0.1672  -16.5561 C   0  0  0  0  0  0  0  0  0  0  0  0
   -8.6689   -2.5860  -16.6618 C   0  0  1  0  0  0  0  0  0  0  0  0
   -8.7471   -2.0152  -18.0915 C   0  0  1  0  0  0  0  0  0  0  0  0
   -7.5441   -0.4669  -11.9301 C   0  0  0  0  0  0  0  0  0  0  0  0
   -9.6735    0.8632  -11.8547 C   0  0  0  0  0  0  0  0  0  0  0  0
   -9.7654   -1.6466  -11.8364 C   0  0  0  0  0  0  0  0  0  0  0  0
   -9.0123   -0.4208  -12.3510 C   0  0  0  0  0  0  0  0  0  0  0  0
   -8.6335   -1.4092  -15.7917 N   0  0  0  0  0  0  0  0  0  0  0  0
   -7.9553   -2.7983  -19.0365 N   0  0  0  0  0  0  0  0  0  0  0  0
   -7.9913   -2.4326  -13.8192 O   0  0  0  0  0  0  0  0  0  0  0  0
   -9.0762   -0.4138  -13.7815 O   0  0  0  0  0  0  0  0  0  0  0  0
  -10.3263   -4.2945  -18.4223 H   0  0  0  0  0  0  0  0  0  0  0  0
  -11.7381   -3.5201  -17.6923 H   0  0  0  0  0  0  0  0  0  0  0  0
  -10.5848   -3.0293  -15.6955 H   0  0  0  0  0  0  0  0  0  0  0  0
   -9.6745   -4.4651  -16.1608 H   0  0  0  0  0  0  0  0  0  0  0  0
  -10.4206   -2.1190  -19.5289 H   0  0  0  0  0  0  0  0  0  0  0  0
  -10.8191   -1.3057  -18.0155 H   0  0  0  0  0  0  0  0  0  0  0  0
   -8.6564    0.0905  -18.7280 H   0  0  0  0  0  0  0  0  0  0  0  0
   -7.1488   -0.5336  -18.0351 H   0  0  0  0  0  0  0  0  0  0  0  0
   -7.9870    0.5806  -16.1222 H   0  0  0  0  0  0  0  0  0  0  0  0
   -9.6810    0.2202  -16.5301 H   0  0  0  0  0  0  0  0  0  0  0  0
   -7.7594   -3.1671  -16.4677 H   0  0  0  0  0  0  0  0  0  0  0  0
   -7.0659   -1.3871  -12.2845 H   0  0  0  0  0  0  0  0  0  0  0  0
   -6.9850    0.3888  -12.3223 H   0  0  0  0  0  0  0  0  0  0  0  0
   -7.4503   -0.4706  -10.8381 H   0  0  0  0  0  0  0  0  0  0  0  0
  -10.7271    0.9005  -12.1544 H   0  0  0  0  0  0  0  0  0  0  0  0
   -9.1953    1.7447  -12.2970 H   0  0  0  0  0  0  0  0  0  0  0  0
   -9.6199    0.9500  -10.7647 H   0  0  0  0  0  0  0  0  0  0  0  0
  -10.8185   -1.6138  -12.1382 H   0  0  0  0  0  0  0  0  0  0  0  0
   -9.3270   -2.5766  -12.2126 H   0  0  0  0  0  0  0  0  0  0  0  0
   -9.7585   -1.6766  -10.7408 H   0  0  0  0  0  0  0  0  0  0  0  0
   -8.2492   -3.7440  -18.9774 H   0  0  0  0  0  0  0  0  0  0  0  0
   -8.1144   -2.4368  -19.9467 H   0  0  0  0  0  0  0  0  0  0  0  0
  1 13  1  0  0  0  0
  1 15  2  0  0  0  0
  1 16  1  0  0  0  0
  2  3  1  0  0  0  0
  2  4  1  0  0  0  0
  3  7  1  0  0  0  0
  4  8  1  0  0  0  0
  5  6  1  0  0  0  0
  5  8  1  0  0  0  0
  6 13  1  0  0  0  0
  7  8  1  0  0  0  0
  7 13  1  0  0  0  0
  8 14  1  0  0  0  0
  9 12  1  0  0  0  0
 10 12  1  0  0  0  0
 11 12  1  0  0  0  0
 12 16  1  0  0  0  0
  2 17  1  0  0  0  0
  2 18  1  0  0  0  0
  3 19  1  0  0  0  0
  3 20  1  0  0  0  0
  4 21  1  0  0  0  0
  4 22  1  0  0  0  0
  5 23  1  0  0  0  0
  5 24  1  0  0  0  0
  6 25  1  0  0  0  0
  6 26  1  0  0  0  0
  7 27  1  0  0  0  0
  9 28  1  0  0  0  0
  9 29  1  0  0  0  0
  9 30  1  0  0  0  0
 10 31  1  0  0  0  0
 10 32  1  0  0  0  0
 10 33  1  0  0  0  0
 11 34  1  0  0  0  0
 11 35  1  0  0  0  0
 11 36  1  0  0  0  0
 14 37  1  0  0  0  0
 14 38  1  0  0  0  0
M  END
> <id>
EN300-333018

> <smiles>
CC(C)(C)OC(=O)N1CCC2(N)CCCC12

> <MDLNUMBER>
MFCD14581098

> <IUPAC Name>
tert-butyl 3a-amino-octahydrocyclopenta[b]pyrrole-1-carboxylate

> <CAS>
1438241-27-0

> <Purity>
95

> <URL>
https://www.enaminestore.com/catalog/EN300-333018

> <ROCS_ShapeQuery>
amalgated

> <ROCS_TanimotoCombo>
0.814 

> <ROCS_ShapeTanimoto>
0.518 

> <ROCS_ColorTanimoto>
0.296 

> <ROCS_RefTversky>
0.498 

> <ROCS_RefColorTversky>
0.430 

> <ROCS_RefTverskyCombo>
0.928 

> <ROCS_FitTversky>
1.083 

> <ROCS_FitColorTversky>
0.488 

> <ROCS_FitTverskyCombo>
1.571 

> <ROCS_ColorScore>
-2.991

> <ROCS_Overlap>
817.686

> <ROCS_Rank>
451                 

$$$$
untitled-dbase-9940_9
  -OEChem-10092318153D

 32 34  0     0  0  0  0  0  0999 V2000
   -8.9397   -1.6948  -18.4728 C   0  0  0  0  0  0  0  0  0  0  0  0
   -8.9798   -2.8353  -17.6714 C   0  0  0  0  0  0  0  0  0  0  0  0
   -8.6023   -0.4606  -17.9172 C   0  0  0  0  0  0  0  0  0  0  0  0
   -8.6916   -2.7433  -16.3094 C   0  0  0  0  0  0  0  0  0  0  0  0
   -8.3119   -0.3733  -16.5529 C   0  0  0  0  0  0  0  0  0  0  0  0
   -8.3707   -1.5077  -15.7439 C   0  0  0  0  0  0  0  0  0  0  0  0
   -7.9020    0.9104  -15.9579 C   0  0  0  0  0  0  0  0  0  0  0  0
   -7.4896    0.8667  -14.5104 C   0  0  0  0  0  0  0  0  0  0  0  0
   -9.7619    0.0924  -13.5698 C   0  0  0  0  0  0  0  0  0  0  0  0
   -7.5562   -0.3963  -12.3577 C   0  0  0  0  0  0  0  0  0  0  0  0
  -10.0583    0.8014  -12.2531 C   0  0  0  0  0  0  0  0  0  0  0  0
   -8.5047   -1.0055  -11.3286 C   0  0  0  0  0  0  0  0  0  0  0  0
   -8.2473   -0.2256  -13.7395 C   0  0  0  0  0  0  0  0  0  0  0  0
   -9.6847   -0.0783  -11.0672 C   0  0  0  0  0  0  0  0  0  0  0  0
   -7.8462    1.9358  -16.6265 O   0  0  0  0  0  0  0  0  0  0  0  0
   -8.1120   -1.5022  -14.4009 O   0  0  0  0  0  0  0  0  0  0  0  0
  -10.7549   -0.8322  -10.7034 F   0  0  0  0  0  0  0  0  0  0  0  0
   -9.4080    0.7232  -10.0055 F   0  0  0  0  0  0  0  0  0  0  0  0
   -9.1799   -1.7661  -19.5297 H   0  0  0  0  0  0  0  0  0  0  0  0
   -9.2333   -3.7969  -18.1083 H   0  0  0  0  0  0  0  0  0  0  0  0
   -8.5804    0.4170  -18.5574 H   0  0  0  0  0  0  0  0  0  0  0  0
   -8.7082   -3.6413  -15.6972 H   0  0  0  0  0  0  0  0  0  0  0  0
   -6.4071    0.6962  -14.4548 H   0  0  0  0  0  0  0  0  0  0  0  0
   -7.7031    1.8604  -14.0944 H   0  0  0  0  0  0  0  0  0  0  0  0
  -10.3390   -0.8378  -13.5964 H   0  0  0  0  0  0  0  0  0  0  0  0
  -10.1024    0.7165  -14.4030 H   0  0  0  0  0  0  0  0  0  0  0  0
   -7.2118    0.5777  -11.9989 H   0  0  0  0  0  0  0  0  0  0  0  0
   -6.6796   -1.0426  -12.4337 H   0  0  0  0  0  0  0  0  0  0  0  0
   -9.4900    1.7343  -12.2047 H   0  0  0  0  0  0  0  0  0  0  0  0
  -11.1166    1.0710  -12.1905 H   0  0  0  0  0  0  0  0  0  0  0  0
   -8.8687   -1.9782  -11.6696 H   0  0  0  0  0  0  0  0  0  0  0  0
   -7.9656   -1.1763  -10.3934 H   0  0  0  0  0  0  0  0  0  0  0  0
  1  2  2  0  0  0  0
  1  3  1  0  0  0  0
  2  4  1  0  0  0  0
  3  5  2  0  0  0  0
  4  6  2  0  0  0  0
  5  6  1  0  0  0  0
  5  7  1  0  0  0  0
  6 16  1  0  0  0  0
  7  8  1  0  0  0  0
  7 15  2  0  0  0  0
  8 13  1  0  0  0  0
  9 11  1  0  0  0  0
  9 13  1  0  0  0  0
 10 12  1  0  0  0  0
 10 13  1  0  0  0  0
 11 14  1  0  0  0  0
 12 14  1  0  0  0  0
 13 16  1  0  0  0  0
 14 17  1  0  0  0  0
 14 18  1  0  0  0  0
  1 19  1  0  0  0  0
  2 20  1  0  0  0  0
  3 21  1  0  0  0  0
  4 22  1  0  0  0  0
  8 23  1  0  0  0  0
  8 24  1  0  0  0  0
  9 25  1  0  0  0  0
  9 26  1  0  0  0  0
 10 27  1  0  0  0  0
 10 28  1  0  0  0  0
 11 29  1  0  0  0  0
 11 30  1  0  0  0  0
 12 31  1  0  0  0  0
 12 32  1  0  0  0  0
M  END
> <id>
EN300-338159

> <smiles>
FC1(F)CCC2(CC1)CC(=O)C=3C=CC=CC3O2

> <MDLNUMBER>
MFCD30499634

> <IUPAC Name>
4',4'-difluoro-3,4-dihydrospiro[1-benzopyran-2,1'-cyclohexane]-4-one

> <CAS>
2059948-21-7

> <URL>
https://www.enaminestore.com/catalog/EN300-338159

> <ROCS_ShapeQuery>
amalgated

> <ROCS_TanimotoCombo>
0.814 

> <ROCS_ShapeTanimoto>
0.616 

> <ROCS_ColorTanimoto>
0.198 

> <ROCS_RefTversky>
0.583 

> <ROCS_RefColorTversky>
0.288 

> <ROCS_RefTverskyCombo>
0.871 

> <ROCS_FitTversky>
1.102 

> <ROCS_FitColorTversky>
0.389 

> <ROCS_FitTverskyCombo>
1.491 

> <ROCS_ColorScore>
-1.987

> <ROCS_Overlap>
959.499

> <ROCS_Rank>
452                 

$$$$
untitled-dbase-16083_15
  -OEChem-10092318153D

 37 39  0     1  0  0  0  0  0999 V2000
   -7.4243   -0.8930  -17.2396 C   0  0  0  0  0  0  0  0  0  0  0  0
   -9.7976   -1.6548  -17.3859 C   0  0  0  0  0  0  0  0  0  0  0  0
   -7.0122   -2.1824  -17.9512 C   0  0  0  0  0  0  0  0  0  0  0  0
   -9.3131   -2.9103  -18.1125 C   0  0  0  0  0  0  0  0  0  0  0  0
  -10.2704   -0.1072  -11.6404 C   0  0  0  0  0  0  0  0  0  0  0  0
   -9.3264   -1.4918  -14.1458 C   0  0  0  0  0  0  0  0  0  0  0  0
   -8.9889   -0.1116  -10.8202 C   0  0  0  0  0  0  0  0  0  0  0  0
   -7.6845   -0.0725  -12.7748 C   0  0  0  0  0  0  0  0  0  0  0  0
   -8.6278    0.8169  -14.9257 C   0  0  0  0  0  0  0  0  0  0  0  0
   -8.9315   -0.0652  -13.6884 C   0  0  1  0  0  0  0  0  0  0  0  0
   -8.7388   -1.0382  -16.4438 C   0  0  0  0  0  0  0  0  0  0  0  0
   -8.0705   -2.6586  -18.8403 N   0  0  0  0  0  0  0  0  0  0  0  0
  -10.0594    0.5367  -12.9405 N   0  0  0  0  0  0  0  0  0  0  0  0
   -8.4932   -1.9047  -15.2728 N   0  0  0  0  0  0  0  0  0  0  0  0
   -7.9424   -0.7552  -11.5457 O   0  0  0  0  0  0  0  0  0  0  0  0
   -9.2288    0.2767  -16.1015 O   0  0  0  0  0  0  0  0  0  0  0  0
   -6.6049   -0.5783  -16.5702 H   0  0  0  0  0  0  0  0  0  0  0  0
   -7.5279   -0.1035  -18.0029 H   0  0  0  0  0  0  0  0  0  0  0  0
  -10.1271   -0.9289  -18.1498 H   0  0  0  0  0  0  0  0  0  0  0  0
  -10.7082   -1.9054  -16.8073 H   0  0  0  0  0  0  0  0  0  0  0  0
   -6.0839   -2.0349  -18.5147 H   0  0  0  0  0  0  0  0  0  0  0  0
   -6.8093   -2.9546  -17.2017 H   0  0  0  0  0  0  0  0  0  0  0  0
   -9.1328   -3.7012  -17.3755 H   0  0  0  0  0  0  0  0  0  0  0  0
  -10.0850   -3.2841  -18.7964 H   0  0  0  0  0  0  0  0  0  0  0  0
  -10.6134   -1.1340  -11.8001 H   0  0  0  0  0  0  0  0  0  0  0  0
  -11.0677    0.4107  -11.0982 H   0  0  0  0  0  0  0  0  0  0  0  0
   -9.1950   -2.2060  -13.3327 H   0  0  0  0  0  0  0  0  0  0  0  0
  -10.3775   -1.5308  -14.4322 H   0  0  0  0  0  0  0  0  0  0  0  0
   -8.6718    0.9162  -10.6180 H   0  0  0  0  0  0  0  0  0  0  0  0
   -9.1276   -0.6117   -9.8542 H   0  0  0  0  0  0  0  0  0  0  0  0
   -6.8244   -0.5467  -13.2689 H   0  0  0  0  0  0  0  0  0  0  0  0
   -7.3745    0.9448  -12.5080 H   0  0  0  0  0  0  0  0  0  0  0  0
   -8.9755    1.8455  -14.7794 H   0  0  0  0  0  0  0  0  0  0  0  0
   -7.5528    0.8760  -15.1225 H   0  0  0  0  0  0  0  0  0  0  0  0
   -8.2396   -1.9627  -19.5661 H   0  0  0  0  0  0  0  0  0  0  0  0
  -10.9103    0.4311  -13.4928 H   0  0  0  0  0  0  0  0  0  0  0  0
   -7.5190   -1.8420  -15.0088 H   0  0  0  0  0  0  0  0  0  0  0  0
  1  3  1  0  0  0  0
  1 11  1  0  0  0  0
  2  4  1  0  0  0  0
  2 11  1  0  0  0  0
  3 12  1  0  0  0  0
  4 12  1  0  0  0  0
  5  7  1  0  0  0  0
  5 13  1  0  0  0  0
  6 10  1  0  0  0  0
  6 14  1  0  0  0  0
  7 15  1  0  0  0  0
  8 10  1  0  0  0  0
  8 15  1  0  0  0  0
  9 10  1  0  0  0  0
  9 16  1  0  0  0  0
 10 13  1  0  0  0  0
 11 14  1  0  0  0  0
 11 16  1  0  0  0  0
  1 17  1  0  0  0  0
  1 18  1  0  0  0  0
  2 19  1  0  0  0  0
  2 20  1  0  0  0  0
  3 21  1  0  0  0  0
  3 22  1  0  0  0  0
  4 23  1  0  0  0  0
  4 24  1  0  0  0  0
  5 25  1  0  0  0  0
  5 26  1  0  0  0  0
  6 27  1  0  0  0  0
  6 28  1  0  0  0  0
  7 29  1  0  0  0  0
  7 30  1  0  0  0  0
  8 31  1  0  0  0  0
  8 32  1  0  0  0  0
  9 33  1  0  0  0  0
  9 34  1  0  0  0  0
 12 35  1  0  0  0  0
 13 36  1  0  0  0  0
 14 37  1  0  0  0  0
M  END
> <id>
EN300-1280596

> <smiles>
C1COCC2(CNC3(CCNCC3)OC2)N1

> <IUPAC Name>
4,8-dioxa-1,12,15-triazadispiro[5.2.5^{9}.2^{6}]hexadecane

> <CAS>
2169450-35-3

> <URL>
https://www.enaminestore.com/catalog/EN300-1280596

> <ROCS_ShapeQuery>
amalgated

> <ROCS_TanimotoCombo>
0.814 

> <ROCS_ShapeTanimoto>
0.562 

> <ROCS_ColorTanimoto>
0.252 

> <ROCS_RefTversky>
0.527 

> <ROCS_RefColorTversky>
0.503 

> <ROCS_RefTverskyCombo>
1.030 

> <ROCS_FitTversky>
1.137 

> <ROCS_FitColorTversky>
0.335 

> <ROCS_FitTverskyCombo>
1.472 

> <ROCS_ColorScore>
-3.621

> <ROCS_Overlap>
864.468

> <ROCS_Rank>
453                 

$$$$
untitled-dbase-25394_17
  -OEChem-10092318153D

 37 38  0     1  0  0  0  0  0999 V2000
   -6.6734    1.2326  -18.7701 C   0  0  0  0  0  0  0  0  0  0  0  0
   -6.8786   -0.1390  -18.7636 C   0  0  0  0  0  0  0  0  0  0  0  0
   -7.2862    1.9691  -17.7822 C   0  0  0  0  0  0  0  0  0  0  0  0
   -7.6949   -0.7423  -17.7910 C   0  0  0  0  0  0  0  0  0  0  0  0
   -8.2483    0.0842  -16.7976 C   0  0  0  0  0  0  0  0  0  0  0  0
   -9.5581    0.3275  -14.7027 C   0  0  0  0  0  0  0  0  0  0  0  0
   -9.1613   -2.6080  -17.0204 C   0  0  0  0  0  0  0  0  0  0  0  0
   -9.1419   -1.9501  -15.6535 C   0  0  0  0  0  0  0  0  0  0  0  0
   -7.8978   -2.2423  -17.7930 C   0  0  1  0  0  0  0  0  0  0  0  0
   -9.7344    1.2051  -11.9790 C   0  0  0  0  0  0  0  0  0  0  0  0
  -10.4300   -1.1515  -11.4577 C   0  0  0  0  0  0  0  0  0  0  0  0
   -8.1530   -0.7030  -12.4182 C   0  0  0  0  0  0  0  0  0  0  0  0
   -9.6154   -0.2608  -12.3933 C   0  0  0  0  0  0  0  0  0  0  0  0
   -8.0533    1.4304  -16.8108 N   0  0  0  0  0  0  0  0  0  0  0  0
   -9.0210   -0.4884  -15.7210 N   0  0  0  0  0  0  0  0  0  0  0  0
   -7.9945   -2.8185  -19.1387 N   0  0  0  0  0  0  0  0  0  0  0  0
   -9.5094    1.5554  -14.6669 O   0  0  0  0  0  0  0  0  0  0  0  0
  -10.1588   -0.4077  -13.7107 O   0  0  0  0  0  0  0  0  0  0  0  0
   -6.0558    1.7042  -19.5256 H   0  0  0  0  0  0  0  0  0  0  0  0
   -6.3963   -0.7491  -19.5263 H   0  0  0  0  0  0  0  0  0  0  0  0
   -7.1777    3.0472  -17.7401 H   0  0  0  0  0  0  0  0  0  0  0  0
   -9.2128   -3.6921  -16.8937 H   0  0  0  0  0  0  0  0  0  0  0  0
  -10.0538   -2.3071  -17.5702 H   0  0  0  0  0  0  0  0  0  0  0  0
  -10.0494   -2.1742  -15.0864 H   0  0  0  0  0  0  0  0  0  0  0  0
   -8.3007   -2.3577  -15.0872 H   0  0  0  0  0  0  0  0  0  0  0  0
   -7.0589   -2.7315  -17.2838 H   0  0  0  0  0  0  0  0  0  0  0  0
   -9.1511    1.8477  -12.6482 H   0  0  0  0  0  0  0  0  0  0  0  0
  -10.7753    1.5445  -11.9909 H   0  0  0  0  0  0  0  0  0  0  0  0
   -9.3311    1.3607  -10.9718 H   0  0  0  0  0  0  0  0  0  0  0  0
  -10.3475   -2.2043  -11.7513 H   0  0  0  0  0  0  0  0  0  0  0  0
  -11.4954   -0.8995  -11.5083 H   0  0  0  0  0  0  0  0  0  0  0  0
  -10.0997   -1.0545  -10.4184 H   0  0  0  0  0  0  0  0  0  0  0  0
   -8.0674   -1.7545  -12.7154 H   0  0  0  0  0  0  0  0  0  0  0  0
   -7.5606   -0.0984  -13.1125 H   0  0  0  0  0  0  0  0  0  0  0  0
   -7.7057   -0.6263  -11.4206 H   0  0  0  0  0  0  0  0  0  0  0  0
   -7.1396   -2.6435  -19.6085 H   0  0  0  0  0  0  0  0  0  0  0  0
   -8.1535   -3.7920  -19.0432 H   0  0  0  0  0  0  0  0  0  0  0  0
  1  2  1  0  0  0  0
  1  3  2  0  0  0  0
  2  4  2  0  0  0  0
  3 14  1  0  0  0  0
  4  5  1  0  0  0  0
  4  9  1  0  0  0  0
  5 14  2  0  0  0  0
  5 15  1  0  0  0  0
  6 15  1  0  0  0  0
  6 17  2  0  0  0  0
  6 18  1  0  0  0  0
  7  8  1  0  0  0  0
  7  9  1  0  0  0  0
  8 15  1  0  0  0  0
  9 16  1  0  0  0  0
 10 13  1  0  0  0  0
 11 13  1  0  0  0  0
 12 13  1  0  0  0  0
 13 18  1  0  0  0  0
  1 19  1  0  0  0  0
  2 20  1  0  0  0  0
  3 21  1  0  0  0  0
  7 22  1  0  0  0  0
  7 23  1  0  0  0  0
  8 24  1  0  0  0  0
  8 25  1  0  0  0  0
  9 26  1  0  0  0  0
 10 27  1  0  0  0  0
 10 28  1  0  0  0  0
 10 29  1  0  0  0  0
 11 30  1  0  0  0  0
 11 31  1  0  0  0  0
 11 32  1  0  0  0  0
 12 33  1  0  0  0  0
 12 34  1  0  0  0  0
 12 35  1  0  0  0  0
 16 36  1  0  0  0  0
 16 37  1  0  0  0  0
M  END
> <id>
EN300-6504988

> <smiles>
CC(C)(C)OC(=O)N1CCC(N)C=2C=CC=NC12

> <MDLNUMBER>
MFCD28144079

> <IUPAC Name>
tert-butyl 4-amino-1,2,3,4-tetrahydro-1,8-naphthyridine-1-carboxylate

> <CAS>
1822862-83-8

> <Purity>
95

> <URL>
https://www.enaminestore.com/catalog/EN300-6504988

> <ROCS_ShapeQuery>
amalgated

> <ROCS_TanimotoCombo>
0.814 

> <ROCS_ShapeTanimoto>
0.564 

> <ROCS_ColorTanimoto>
0.250 

> <ROCS_RefTversky>
0.547 

> <ROCS_RefColorTversky>
0.400 

> <ROCS_RefTverskyCombo>
0.947 

> <ROCS_FitTversky>
1.057 

> <ROCS_FitColorTversky>
0.400 

> <ROCS_FitTverskyCombo>
1.457 

> <ROCS_ColorScore>
-2.803

> <ROCS_Overlap>
900.411

> <ROCS_Rank>
454                 

$$$$
untitled-dbase-40144_6
  -OEChem-10092318153D

 32 34  0     1  0  0  0  0  0999 V2000
   -8.4226   -1.5742  -18.3469 C   0  0  0  0  0  0  0  0  0  0  0  0
   -9.0711   -2.6273  -17.7063 C   0  0  0  0  0  0  0  0  0  0  0  0
   -7.9193   -0.5082  -17.6009 C   0  0  0  0  0  0  0  0  0  0  0  0
   -9.2236   -2.6111  -16.3207 C   0  0  0  0  0  0  0  0  0  0  0  0
   -8.0564   -0.4889  -16.2063 C   0  0  0  0  0  0  0  0  0  0  0  0
   -8.7283   -1.5398  -15.5719 C   0  0  0  0  0  0  0  0  0  0  0  0
   -7.5133    0.6656  -15.4187 C   0  0  0  0  0  0  0  0  0  0  0  0
   -7.3709    0.2756  -13.9535 C   0  0  0  0  0  0  0  0  0  0  0  0
  -10.7998    0.2698  -12.2902 C   0  0  0  0  0  0  0  0  0  0  0  0
   -9.8748    0.5163  -13.4791 C   0  0  0  0  0  0  0  0  0  0  0  0
  -10.0565    0.4830  -10.9668 C   0  0  0  0  0  0  0  0  0  0  0  0
   -8.4073   -0.9552  -11.9974 C   0  0  0  0  0  0  0  0  0  0  0  0
   -8.6417   -0.4299  -13.4386 C   0  0  2  0  0  0  0  0  0  0  0  0
   -8.6474    0.0824  -11.0030 N   0  0  0  0  0  0  0  0  0  0  0  0
   -8.9329   -1.6107  -14.2193 O   0  0  0  0  0  0  0  0  0  0  0  0
   -8.3059   -1.5841  -19.4265 H   0  0  0  0  0  0  0  0  0  0  0  0
   -9.4610   -3.4588  -18.2861 H   0  0  0  0  0  0  0  0  0  0  0  0
   -7.4135    0.3066  -18.1131 H   0  0  0  0  0  0  0  0  0  0  0  0
   -9.7366   -3.4344  -15.8298 H   0  0  0  0  0  0  0  0  0  0  0  0
   -6.5334    0.9648  -15.8069 H   0  0  0  0  0  0  0  0  0  0  0  0
   -8.1893    1.5211  -15.5236 H   0  0  0  0  0  0  0  0  0  0  0  0
   -6.5192   -0.4109  -13.8638 H   0  0  0  0  0  0  0  0  0  0  0  0
   -7.1379    1.1617  -13.3540 H   0  0  0  0  0  0  0  0  0  0  0  0
  -11.6560    0.9483  -12.3411 H   0  0  0  0  0  0  0  0  0  0  0  0
  -11.1940   -0.7509  -12.3298 H   0  0  0  0  0  0  0  0  0  0  0  0
  -10.4537    0.3720  -14.3951 H   0  0  0  0  0  0  0  0  0  0  0  0
   -9.5365    1.5575  -13.4625 H   0  0  0  0  0  0  0  0  0  0  0  0
  -10.1373    1.5433  -10.6557 H   0  0  0  0  0  0  0  0  0  0  0  0
  -10.5671   -0.0963  -10.1750 H   0  0  0  0  0  0  0  0  0  0  0  0
   -9.1024   -1.7740  -11.7955 H   0  0  0  0  0  0  0  0  0  0  0  0
   -7.3912   -1.3436  -11.8922 H   0  0  0  0  0  0  0  0  0  0  0  0
   -8.0753    0.8997  -11.2192 H   0  0  0  0  0  0  0  0  0  0  0  0
  1  2  2  0  0  0  0
  1  3  1  0  0  0  0
  2  4  1  0  0  0  0
  3  5  2  0  0  0  0
  4  6  2  0  0  0  0
  5  6  1  0  0  0  0
  5  7  1  0  0  0  0
  6 15  1  0  0  0  0
  7  8  1  0  0  0  0
  8 13  1  0  0  0  0
  9 10  1  0  0  0  0
  9 11  1  0  0  0  0
 10 13  1  0  0  0  0
 11 14  1  0  0  0  0
 12 13  1  0  0  0  0
 12 14  1  0  0  0  0
 13 15  1  0  0  0  0
  1 16  1  0  0  0  0
  2 17  1  0  0  0  0
  3 18  1  0  0  0  0
  4 19  1  0  0  0  0
  7 20  1  0  0  0  0
  7 21  1  0  0  0  0
  8 22  1  0  0  0  0
  8 23  1  0  0  0  0
  9 24  1  0  0  0  0
  9 25  1  0  0  0  0
 10 26  1  0  0  0  0
 10 27  1  0  0  0  0
 11 28  1  0  0  0  0
 11 29  1  0  0  0  0
 12 30  1  0  0  0  0
 12 31  1  0  0  0  0
 14 32  1  0  0  0  0
M  END
> <id>
EN300-316275

> <smiles>
C1CNCC2(C1)CCC=3C=CC=CC3O2

> <MDLNUMBER>
MFCD09751491

> <IUPAC Name>
3,4-dihydrospiro[1-benzopyran-2,3'-piperidine]

> <CAS>
189321-87-7

> <URL>
https://www.enaminestore.com/catalog/EN300-316275

> <ROCS_ShapeQuery>
amalgated

> <ROCS_TanimotoCombo>
0.814 

> <ROCS_ShapeTanimoto>
0.530 

> <ROCS_ColorTanimoto>
0.284 

> <ROCS_RefTversky>
0.500 

> <ROCS_RefColorTversky>
0.414 

> <ROCS_RefTverskyCombo>
0.914 

> <ROCS_FitTversky>
1.127 

> <ROCS_FitColorTversky>
0.475 

> <ROCS_FitTverskyCombo>
1.602 

> <ROCS_ColorScore>
-2.878

> <ROCS_Overlap>
819.473

> <ROCS_Rank>
455                 

$$$$
untitled-dbase-41330_6
  -OEChem-10092318153D

 32 34  0     1  0  0  0  0  0999 V2000
   -8.4226   -1.5742  -18.3469 C   0  0  0  0  0  0  0  0  0  0  0  0
   -9.0711   -2.6273  -17.7063 C   0  0  0  0  0  0  0  0  0  0  0  0
   -7.9193   -0.5082  -17.6009 C   0  0  0  0  0  0  0  0  0  0  0  0
   -9.2236   -2.6111  -16.3207 C   0  0  0  0  0  0  0  0  0  0  0  0
   -8.0564   -0.4889  -16.2063 C   0  0  0  0  0  0  0  0  0  0  0  0
   -8.7283   -1.5398  -15.5719 C   0  0  0  0  0  0  0  0  0  0  0  0
   -7.5133    0.6656  -15.4187 C   0  0  0  0  0  0  0  0  0  0  0  0
   -7.3709    0.2756  -13.9535 C   0  0  0  0  0  0  0  0  0  0  0  0
  -10.7998    0.2698  -12.2902 C   0  0  0  0  0  0  0  0  0  0  0  0
   -9.8748    0.5163  -13.4791 C   0  0  0  0  0  0  0  0  0  0  0  0
  -10.0565    0.4830  -10.9668 C   0  0  0  0  0  0  0  0  0  0  0  0
   -8.4073   -0.9552  -11.9974 C   0  0  0  0  0  0  0  0  0  0  0  0
   -8.6417   -0.4299  -13.4386 C   0  0  2  0  0  0  0  0  0  0  0  0
   -8.6474    0.0824  -11.0030 N   0  0  0  0  0  0  0  0  0  0  0  0
   -8.9329   -1.6107  -14.2193 O   0  0  0  0  0  0  0  0  0  0  0  0
   -8.3059   -1.5841  -19.4265 H   0  0  0  0  0  0  0  0  0  0  0  0
   -9.4610   -3.4588  -18.2861 H   0  0  0  0  0  0  0  0  0  0  0  0
   -7.4135    0.3066  -18.1131 H   0  0  0  0  0  0  0  0  0  0  0  0
   -9.7366   -3.4344  -15.8298 H   0  0  0  0  0  0  0  0  0  0  0  0
   -6.5334    0.9648  -15.8069 H   0  0  0  0  0  0  0  0  0  0  0  0
   -8.1893    1.5211  -15.5236 H   0  0  0  0  0  0  0  0  0  0  0  0
   -6.5192   -0.4109  -13.8638 H   0  0  0  0  0  0  0  0  0  0  0  0
   -7.1379    1.1617  -13.3540 H   0  0  0  0  0  0  0  0  0  0  0  0
  -11.6560    0.9483  -12.3411 H   0  0  0  0  0  0  0  0  0  0  0  0
  -11.1940   -0.7509  -12.3298 H   0  0  0  0  0  0  0  0  0  0  0  0
  -10.4537    0.3720  -14.3951 H   0  0  0  0  0  0  0  0  0  0  0  0
   -9.5365    1.5575  -13.4625 H   0  0  0  0  0  0  0  0  0  0  0  0
  -10.1373    1.5433  -10.6557 H   0  0  0  0  0  0  0  0  0  0  0  0
  -10.5671   -0.0963  -10.1750 H   0  0  0  0  0  0  0  0  0  0  0  0
   -9.1024   -1.7740  -11.7955 H   0  0  0  0  0  0  0  0  0  0  0  0
   -7.3912   -1.3436  -11.8922 H   0  0  0  0  0  0  0  0  0  0  0  0
   -8.0753    0.8997  -11.2192 H   0  0  0  0  0  0  0  0  0  0  0  0
  1  2  2  0  0  0  0
  1  3  1  0  0  0  0
  2  4  1  0  0  0  0
  3  5  2  0  0  0  0
  4  6  2  0  0  0  0
  5  6  1  0  0  0  0
  5  7  1  0  0  0  0
  6 15  1  0  0  0  0
  7  8  1  0  0  0  0
  8 13  1  0  0  0  0
  9 10  1  0  0  0  0
  9 11  1  0  0  0  0
 10 13  1  0  0  0  0
 11 14  1  0  0  0  0
 12 13  1  0  0  0  0
 12 14  1  0  0  0  0
 13 15  1  0  0  0  0
  1 16  1  0  0  0  0
  2 17  1  0  0  0  0
  3 18  1  0  0  0  0
  4 19  1  0  0  0  0
  7 20  1  0  0  0  0
  7 21  1  0  0  0  0
  8 22  1  0  0  0  0
  8 23  1  0  0  0  0
  9 24  1  0  0  0  0
  9 25  1  0  0  0  0
 10 26  1  0  0  0  0
 10 27  1  0  0  0  0
 11 28  1  0  0  0  0
 11 29  1  0  0  0  0
 12 30  1  0  0  0  0
 12 31  1  0  0  0  0
 14 32  1  0  0  0  0
M  END
> <id>
EN300-317868

> <smiles>
Cl.C1CNCC2(C1)CCC=3C=CC=CC3O2

> <MDLNUMBER>
MFCD30730444

> <IUPAC Name>
3,4-dihydrospiro[1-benzopyran-2,3'-piperidine] hydrochloride

> <CAS>
2094731-97-0

> <Purity>
95

> <URL>
https://www.enaminestore.com/catalog/EN300-317868

> <Saltdate>
Cl

> <ROCS_ShapeQuery>
amalgated

> <ROCS_TanimotoCombo>
0.814 

> <ROCS_ShapeTanimoto>
0.530 

> <ROCS_ColorTanimoto>
0.284 

> <ROCS_RefTversky>
0.500 

> <ROCS_RefColorTversky>
0.414 

> <ROCS_RefTverskyCombo>
0.914 

> <ROCS_FitTversky>
1.127 

> <ROCS_FitColorTversky>
0.475 

> <ROCS_FitTverskyCombo>
1.602 

> <ROCS_ColorScore>
-2.878

> <ROCS_Overlap>
819.473

> <ROCS_Rank>
456                 

$$$$
untitled-dbase-12237_208
  -OEChem-10092318153D

 45 46  0     1  0  0  0  0  0999 V2000
   -9.1172    0.4759  -13.8802 C   0  0  0  0  0  0  0  0  0  0  0  0
  -10.5155   -3.5596  -17.8329 C   0  0  0  0  0  0  0  0  0  0  0  0
  -10.8009   -2.0918  -18.1501 C   0  0  0  0  0  0  0  0  0  0  0  0
   -9.1445   -3.7961  -17.1912 C   0  0  0  0  0  0  0  0  0  0  0  0
  -10.1700   -1.1496  -17.1290 C   0  0  0  0  0  0  0  0  0  0  0  0
   -7.6718    1.1910  -15.8259 C   0  0  0  0  0  0  0  0  0  0  0  0
   -8.2142   -1.1772  -15.5020 C   0  0  0  0  0  0  0  0  0  0  0  0
   -8.0513    1.0441  -17.2896 C   0  0  0  0  0  0  0  0  0  0  0  0
   -8.1321   -2.6946  -17.5248 C   0  0  2  0  0  0  0  0  0  0  0  0
   -8.6250   -1.3071  -16.9919 C   0  0  1  0  0  0  0  0  0  0  0  0
  -11.3180   -0.0811  -12.1382 C   0  0  0  0  0  0  0  0  0  0  0  0
   -9.7399   -1.6259  -10.9414 C   0  0  0  0  0  0  0  0  0  0  0  0
   -9.2480    0.8351  -11.0381 C   0  0  0  0  0  0  0  0  0  0  0  0
   -9.8583   -0.3541  -11.7785 C   0  0  0  0  0  0  0  0  0  0  0  0
   -8.3790    0.1933  -15.0297 N   0  0  0  0  0  0  0  0  0  0  0  0
   -7.8958   -2.6926  -18.9757 N   0  0  0  0  0  0  0  0  0  0  0  0
   -9.7024    1.5379  -13.6766 O   0  0  0  0  0  0  0  0  0  0  0  0
   -7.9095   -0.3018  -17.7443 O   0  0  0  0  0  0  0  0  0  0  0  0
   -9.1222   -0.5642  -12.9889 O   0  0  0  0  0  0  0  0  0  0  0  0
  -11.3004   -3.9426  -17.1570 H   0  0  0  0  0  0  0  0  0  0  0  0
  -10.5956   -4.1575  -18.7565 H   0  0  0  0  0  0  0  0  0  0  0  0
  -10.4295   -1.8565  -19.1577 H   0  0  0  0  0  0  0  0  0  0  0  0
  -11.8877   -1.9322  -18.1752 H   0  0  0  0  0  0  0  0  0  0  0  0
   -9.2817   -3.8715  -16.0991 H   0  0  0  0  0  0  0  0  0  0  0  0
   -8.7662   -4.7812  -17.5152 H   0  0  0  0  0  0  0  0  0  0  0  0
  -10.4399   -0.1169  -17.4021 H   0  0  0  0  0  0  0  0  0  0  0  0
  -10.6388   -1.3231  -16.1441 H   0  0  0  0  0  0  0  0  0  0  0  0
   -6.6028    0.9962  -15.6916 H   0  0  0  0  0  0  0  0  0  0  0  0
   -7.8815    2.2030  -15.4722 H   0  0  0  0  0  0  0  0  0  0  0  0
   -8.7716   -1.8919  -14.8861 H   0  0  0  0  0  0  0  0  0  0  0  0
   -7.1484   -1.3949  -15.3636 H   0  0  0  0  0  0  0  0  0  0  0  0
   -9.0709    1.3997  -17.4791 H   0  0  0  0  0  0  0  0  0  0  0  0
   -7.3872    1.6645  -17.9030 H   0  0  0  0  0  0  0  0  0  0  0  0
   -7.1824   -2.9354  -17.0298 H   0  0  0  0  0  0  0  0  0  0  0  0
  -11.4072    0.8311  -12.7391 H   0  0  0  0  0  0  0  0  0  0  0  0
  -11.7572   -0.9119  -12.7001 H   0  0  0  0  0  0  0  0  0  0  0  0
  -11.9189    0.0829  -11.2364 H   0  0  0  0  0  0  0  0  0  0  0  0
   -8.6942   -1.8257  -10.6810 H   0  0  0  0  0  0  0  0  0  0  0  0
  -10.0896   -2.4982  -11.5054 H   0  0  0  0  0  0  0  0  0  0  0  0
  -10.3204   -1.5559  -10.0159 H   0  0  0  0  0  0  0  0  0  0  0  0
   -8.2009    0.6395  -10.7800 H   0  0  0  0  0  0  0  0  0  0  0  0
   -9.2908    1.7494  -11.6390 H   0  0  0  0  0  0  0  0  0  0  0  0
   -9.7712    1.0154  -10.0921 H   0  0  0  0  0  0  0  0  0  0  0  0
   -7.2088   -2.0065  -19.1701 H   0  0  0  0  0  0  0  0  0  0  0  0
   -7.5801   -3.5955  -19.2322 H   0  0  0  0  0  0  0  0  0  0  0  0
  1 15  1  0  0  0  0
  1 17  2  0  0  0  0
  1 19  1  0  0  0  0
  2  3  1  0  0  0  0
  2  4  1  0  0  0  0
  3  5  1  0  0  0  0
  4  9  1  0  0  0  0
  5 10  1  0  0  0  0
  6  8  1  0  0  0  0
  6 15  1  0  0  0  0
  7 10  1  0  0  0  0
  7 15  1  0  0  0  0
  8 18  1  0  0  0  0
  9 10  1  0  0  0  0
  9 16  1  0  0  0  0
 10 18  1  0  0  0  0
 11 14  1  0  0  0  0
 12 14  1  0  0  0  0
 13 14  1  0  0  0  0
 14 19  1  0  0  0  0
  2 20  1  0  0  0  0
  2 21  1  0  0  0  0
  3 22  1  0  0  0  0
  3 23  1  0  0  0  0
  4 24  1  0  0  0  0
  4 25  1  0  0  0  0
  5 26  1  0  0  0  0
  5 27  1  0  0  0  0
  6 28  1  0  0  0  0
  6 29  1  0  0  0  0
  7 30  1  0  0  0  0
  7 31  1  0  0  0  0
  8 32  1  0  0  0  0
  8 33  1  0  0  0  0
  9 34  1  0  0  0  0
 11 35  1  0  0  0  0
 11 36  1  0  0  0  0
 11 37  1  0  0  0  0
 12 38  1  0  0  0  0
 12 39  1  0  0  0  0
 12 40  1  0  0  0  0
 13 41  1  0  0  0  0
 13 42  1  0  0  0  0
 13 43  1  0  0  0  0
 16 44  1  0  0  0  0
 16 45  1  0  0  0  0
M  END
> <id>
EN300-717825

> <smiles>
CC(C)(C)OC(=O)N1CCOC2(CCCCC2N)C1

> <MDLNUMBER>
MFCD30203720

> <IUPAC Name>
tert-butyl 7-amino-1-oxa-4-azaspiro[5.5]undecane-4-carboxylate

> <CAS>
1934279-32-9

> <URL>
https://www.enaminestore.com/catalog/EN300-717825

> <ROCS_ShapeQuery>
amalgated

> <ROCS_TanimotoCombo>
0.814 

> <ROCS_ShapeTanimoto>
0.627 

> <ROCS_ColorTanimoto>
0.187 

> <ROCS_RefTversky>
0.589 

> <ROCS_RefColorTversky>
0.315 

> <ROCS_RefTverskyCombo>
0.904 

> <ROCS_FitTversky>
1.114 

> <ROCS_FitColorTversky>
0.315 

> <ROCS_FitTverskyCombo>
1.429 

> <ROCS_ColorScore>
-2.205

> <ROCS_Overlap>
970.157

> <ROCS_Rank>
457                 

$$$$
untitled-dbase-16639_19
  -OEChem-10092318153D

 34 36  0     0  0  0  0  0  0999 V2000
   -9.1934   -0.1794  -11.2815 C   0  0  0  0  0  0  0  0  0  0  0  0
  -10.0468    0.1945  -12.5077 C   0  0  0  0  0  0  0  0  0  0  0  0
   -7.9523   -0.0676  -12.1865 C   0  0  0  0  0  0  0  0  0  0  0  0
   -7.2393   -1.2459  -16.9415 C   0  0  0  0  0  0  0  0  0  0  0  0
   -9.6115   -2.1428  -16.9035 C   0  0  0  0  0  0  0  0  0  0  0  0
   -7.5054   -1.3234  -18.4418 C   0  0  0  0  0  0  0  0  0  0  0  0
   -8.9657   -3.1929  -17.8078 C   0  0  0  0  0  0  0  0  0  0  0  0
   -8.5414    0.5574  -14.6173 C   0  0  0  0  0  0  0  0  0  0  0  0
   -9.0401   -1.8028  -13.8048 C   0  0  0  0  0  0  0  0  0  0  0  0
   -8.8836   -0.3271  -13.4128 C   0  0  0  0  0  0  0  0  0  0  0  0
   -8.5441   -1.3476  -16.1106 C   0  0  0  0  0  0  0  0  0  0  0  0
   -8.0948   -2.6074  -18.8290 N   0  0  0  0  0  0  0  0  0  0  0  0
   -9.1151   -0.0128  -15.8339 N   0  0  0  0  0  0  0  0  0  0  0  0
   -8.1940   -2.0904  -14.9194 O   0  0  0  0  0  0  0  0  0  0  0  0
   -9.2339    0.5220  -10.4455 H   0  0  0  0  0  0  0  0  0  0  0  0
   -9.3777   -1.1911  -10.9060 H   0  0  0  0  0  0  0  0  0  0  0  0
  -10.9996   -0.3324  -12.5949 H   0  0  0  0  0  0  0  0  0  0  0  0
  -10.2333    1.2709  -12.5905 H   0  0  0  0  0  0  0  0  0  0  0  0
   -7.4944    0.9289  -12.1668 H   0  0  0  0  0  0  0  0  0  0  0  0
   -7.1708   -0.8107  -12.0023 H   0  0  0  0  0  0  0  0  0  0  0  0
   -6.5596   -2.0653  -16.6694 H   0  0  0  0  0  0  0  0  0  0  0  0
   -6.7175   -0.3042  -16.7167 H   0  0  0  0  0  0  0  0  0  0  0  0
  -10.2078   -1.4568  -17.5181 H   0  0  0  0  0  0  0  0  0  0  0  0
  -10.3096   -2.6535  -16.2342 H   0  0  0  0  0  0  0  0  0  0  0  0
   -8.1956   -0.5201  -18.7328 H   0  0  0  0  0  0  0  0  0  0  0  0
   -6.5824   -1.1525  -19.0139 H   0  0  0  0  0  0  0  0  0  0  0  0
   -8.3974   -3.9258  -17.2095 H   0  0  0  0  0  0  0  0  0  0  0  0
   -9.7552   -3.7727  -18.3131 H   0  0  0  0  0  0  0  0  0  0  0  0
   -8.9070    1.5791  -14.4592 H   0  0  0  0  0  0  0  0  0  0  0  0
   -7.4550    0.6332  -14.7430 H   0  0  0  0  0  0  0  0  0  0  0  0
   -8.7434   -2.4693  -12.9893 H   0  0  0  0  0  0  0  0  0  0  0  0
  -10.0785   -2.0438  -14.0510 H   0  0  0  0  0  0  0  0  0  0  0  0
   -8.6437   -2.4698  -19.6887 H   0  0  0  0  0  0  0  0  0  0  0  0
  -10.1217   -0.0758  -15.7436 H   0  0  0  0  0  0  0  0  0  0  0  0
  1  2  1  0  0  0  0
  1  3  1  0  0  0  0
  2 10  1  0  0  0  0
  3 10  1  0  0  0  0
  4  6  1  0  0  0  0
  4 11  1  0  0  0  0
  5  7  1  0  0  0  0
  5 11  1  0  0  0  0
  6 12  1  0  0  0  0
  7 12  1  0  0  0  0
  8 10  1  0  0  0  0
  8 13  1  0  0  0  0
  9 10  1  0  0  0  0
  9 14  1  0  0  0  0
 11 13  1  0  0  0  0
 11 14  1  0  0  0  0
  1 15  1  0  0  0  0
  1 16  1  0  0  0  0
  2 17  1  0  0  0  0
  2 18  1  0  0  0  0
  3 19  1  0  0  0  0
  3 20  1  0  0  0  0
  4 21  1  0  0  0  0
  4 22  1  0  0  0  0
  5 23  1  0  0  0  0
  5 24  1  0  0  0  0
  6 25  1  0  0  0  0
  6 26  1  0  0  0  0
  7 27  1  0  0  0  0
  7 28  1  0  0  0  0
  8 29  1  0  0  0  0
  8 30  1  0  0  0  0
  9 31  1  0  0  0  0
  9 32  1  0  0  0  0
 12 33  1  0  0  0  0
 13 34  1  0  0  0  0
M  END
> <id>
EN300-1278874

> <smiles>
C1CC2(C1)CNC3(CCNCC3)OC2

> <IUPAC Name>
6-oxa-10,13-diazadispiro[3.2.5^{7}.2^{4}]tetradecane

> <CAS>
2172394-34-0

> <URL>
https://www.enaminestore.com/catalog/EN300-1278874

> <ROCS_ShapeQuery>
amalgated

> <ROCS_TanimotoCombo>
0.814 

> <ROCS_ShapeTanimoto>
0.498 

> <ROCS_ColorTanimoto>
0.316 

> <ROCS_RefTversky>
0.469 

> <ROCS_RefColorTversky>
0.511 

> <ROCS_RefTverskyCombo>
0.980 

> <ROCS_FitTversky>
1.143 

> <ROCS_FitColorTversky>
0.453 

> <ROCS_FitTverskyCombo>
1.596 

> <ROCS_ColorScore>
-3.602

> <ROCS_Overlap>
766.844

> <ROCS_Rank>
458                 

$$$$
untitled-dbase-38587_12
  -OEChem-10092318153D

 39 42  0     1  0  0  0  0  0999 V2000
   -6.5530    2.9528  -18.7945 C   0  0  0  0  0  0  0  0  0  0  0  0
   -5.7839    1.8417  -19.0841 C   0  0  0  0  0  0  0  0  0  0  0  0
   -8.9376    0.7610  -12.4850 C   0  0  0  0  0  0  0  0  0  0  0  0
   -7.5621    2.8507  -17.8433 C   0  0  0  0  0  0  0  0  0  0  0  0
   -6.0451    0.6318  -18.4389 C   0  0  0  0  0  0  0  0  0  0  0  0
   -8.9676    1.5218  -13.6452 C   0  0  0  0  0  0  0  0  0  0  0  0
   -8.8033   -0.6053  -12.6203 C   0  0  0  0  0  0  0  0  0  0  0  0
   -7.8329    1.6391  -17.1605 C   0  0  0  0  0  0  0  0  0  0  0  0
   -7.0926    0.4785  -17.4983 C   0  0  0  0  0  0  0  0  0  0  0  0
   -8.8519    0.9068  -14.8981 C   0  0  0  0  0  0  0  0  0  0  0  0
   -8.7107   -0.4833  -14.9399 C   0  0  0  0  0  0  0  0  0  0  0  0
   -8.9713    1.7158  -16.1611 C   0  0  0  0  0  0  0  0  0  0  0  0
   -9.7170   -1.4612  -16.9430 C   0  0  0  0  0  0  0  0  0  0  0  0
   -9.3984   -2.6038  -17.9071 C   0  0  0  0  0  0  0  0  0  0  0  0
   -7.0425   -2.1330  -17.7592 C   0  0  0  0  0  0  0  0  0  0  0  0
   -7.2537   -0.8991  -16.8360 C   0  0  2  0  0  0  0  0  0  0  0  0
   -7.9051   -3.4182  -19.6094 C   0  0  0  0  0  0  0  0  0  0  0  0
   -8.6911   -1.2376  -13.8088 N   0  0  0  0  0  0  0  0  0  0  0  0
   -8.5349   -1.1167  -16.1628 N   0  0  1  0  0  0  0  0  0  0  0  0
   -8.1774   -2.3251  -18.6762 N   0  0  1  0  0  0  0  0  0  0  0  0
   -6.3688    3.8958  -19.2962 H   0  0  0  0  0  0  0  0  0  0  0  0
   -4.9812    1.9041  -19.8134 H   0  0  0  0  0  0  0  0  0  0  0  0
   -9.0217    1.2245  -11.5090 H   0  0  0  0  0  0  0  0  0  0  0  0
   -8.1531    3.7422  -17.6129 H   0  0  0  0  0  0  0  0  0  0  0  0
   -5.4132   -0.2272  -18.6853 H   0  0  0  0  0  0  0  0  0  0  0  0
   -9.0849    2.6012  -13.5696 H   0  0  0  0  0  0  0  0  0  0  0  0
   -8.7829   -1.2516  -11.7500 H   0  0  0  0  0  0  0  0  0  0  0  0
   -9.1615    2.7968  -15.8893 H   0  0  0  0  0  0  0  0  0  0  0  0
   -9.9359    1.4571  -16.6919 H   0  0  0  0  0  0  0  0  0  0  0  0
  -10.0600   -0.6065  -17.5443 H   0  0  0  0  0  0  0  0  0  0  0  0
  -10.5426   -1.7472  -16.2749 H   0  0  0  0  0  0  0  0  0  0  0  0
   -9.2633   -3.5199  -17.3187 H   0  0  0  0  0  0  0  0  0  0  0  0
  -10.2535   -2.7721  -18.5757 H   0  0  0  0  0  0  0  0  0  0  0  0
   -6.1020   -2.0243  -18.3166 H   0  0  0  0  0  0  0  0  0  0  0  0
   -6.9414   -3.0325  -17.1400 H   0  0  0  0  0  0  0  0  0  0  0  0
   -6.5109   -0.9293  -16.0123 H   0  0  0  0  0  0  0  0  0  0  0  0
   -6.9898   -3.1965  -20.1776 H   0  0  0  0  0  0  0  0  0  0  0  0
   -7.7703   -4.3544  -19.0479 H   0  0  0  0  0  0  0  0  0  0  0  0
   -8.7509   -3.5261  -20.3044 H   0  0  0  0  0  0  0  0  0  0  0  0
  1  2  2  0  0  0  0
  1  4  1  0  0  0  0
  2  5  1  0  0  0  0
  3  6  1  0  0  0  0
  3  7  2  0  0  0  0
  4  8  2  0  0  0  0
  5  9  2  0  0  0  0
  6 10  2  0  0  0  0
  7 18  1  0  0  0  0
  8  9  1  0  0  0  0
  8 12  1  0  0  0  0
  9 16  1  0  0  0  0
 10 11  1  0  0  0  0
 10 12  1  0  0  0  0
 11 18  2  0  0  0  0
 11 19  1  0  0  0  0
 13 14  1  0  0  0  0
 13 19  1  0  0  0  0
 14 20  1  0  0  0  0
 15 16  1  1  0  0  0
 15 20  1  0  0  0  0
 16 19  1  0  0  0  0
 17 20  1  0  0  0  0
  1 21  1  0  0  0  0
  2 22  1  0  0  0  0
  3 23  1  0  0  0  0
  4 24  1  0  0  0  0
  5 25  1  0  0  0  0
  6 26  1  0  0  0  0
  7 27  1  0  0  0  0
 12 28  1  0  0  0  0
 12 29  1  0  0  0  0
 13 30  1  0  0  0  0
 13 31  1  0  0  0  0
 14 32  1  0  0  0  0
 14 33  1  0  0  0  0
 15 34  1  0  0  0  0
 15 35  1  0  0  0  0
 16 36  1  0  0  0  0
 17 37  1  0  0  0  0
 17 38  1  0  0  0  0
 17 39  1  0  0  0  0
M  END
> <id>
EN300-59238

> <smiles>
CN1CCN2[C@@H](C1)C=3C=CC=CC3CC=4C=CC=NC24

> <MDLNUMBER>
MFCD11501593

> <IUPAC Name>
(7R)-5-methyl-2,5,19-triazatetracyclo[13.4.0.0^{2,7}.0^{8,13}]nonadeca-1(19),8,10,12,15,17-hexaene

> <CAS>
61364-37-2

> <URL>
https://www.enaminestore.com/catalog/EN300-59238

> <ROCS_ShapeQuery>
amalgated

> <ROCS_TanimotoCombo>
0.813 

> <ROCS_ShapeTanimoto>
0.563 

> <ROCS_ColorTanimoto>
0.251 

> <ROCS_RefTversky>
0.570 

> <ROCS_RefColorTversky>
0.375 

> <ROCS_RefTverskyCombo>
0.945 

> <ROCS_FitTversky>
0.978 

> <ROCS_FitColorTversky>
0.431 

> <ROCS_FitTverskyCombo>
1.409 

> <ROCS_ColorScore>
-2.610

> <ROCS_Overlap>
941.293

> <ROCS_Rank>
459                 

$$$$
untitled-dbase-18988_463
  -OEChem-10092318153D

 48 48  0     0  0  0  0  0  0999 V2000
   -7.4983    0.4591  -16.9223 C   0  0  0  0  0  0  0  0  0  0  0  0
   -9.0490   -1.3460  -14.7253 C   0  0  0  0  0  0  0  0  0  0  0  0
   -9.0423   -1.5932  -19.1024 C   0  0  0  0  0  0  0  0  0  0  0  0
   -8.3145   -3.4076  -17.6052 C   0  0  0  0  0  0  0  0  0  0  0  0
   -9.5161   -0.7470  -17.9172 C   0  0  0  0  0  0  0  0  0  0  0  0
   -7.7187   -2.7310  -16.3657 C   0  0  0  0  0  0  0  0  0  0  0  0
   -5.2410    1.7080  -18.1530 C   0  0  0  0  0  0  0  0  0  0  0  0
   -6.9215    3.1127  -19.3826 C   0  0  0  0  0  0  0  0  0  0  0  0
   -6.7846    3.2329  -16.8776 C   0  0  0  0  0  0  0  0  0  0  0  0
   -7.7663   -0.4347  -12.3370 C   0  0  0  0  0  0  0  0  0  0  0  0
   -9.0354    1.7040  -12.6897 C   0  0  0  0  0  0  0  0  0  0  0  0
  -10.2829   -0.4411  -12.3016 C   0  0  0  0  0  0  0  0  0  0  0  0
   -6.6352    2.3313  -18.1022 C   0  0  0  0  0  0  0  0  0  0  0  0
   -9.0345    0.1933  -12.9131 C   0  0  0  0  0  0  0  0  0  0  0  0
   -8.0589   -2.6409  -18.8211 N   0  0  0  0  0  0  0  0  0  0  0  0
   -8.4701   -0.5276  -16.9259 N   0  0  0  0  0  0  0  0  0  0  0  0
   -8.4263   -1.5257  -15.9533 N   0  0  0  0  0  0  0  0  0  0  0  0
   -6.6409    0.5890  -16.0512 O   0  0  0  0  0  0  0  0  0  0  0  0
   -9.5449   -2.2564  -14.0647 O   0  0  0  0  0  0  0  0  0  0  0  0
   -7.6018    1.2787  -18.0140 O   0  0  0  0  0  0  0  0  0  0  0  0
   -9.0536   -0.0337  -14.3267 O   0  0  0  0  0  0  0  0  0  0  0  0
   -9.9315   -2.0834  -19.5468 H   0  0  0  0  0  0  0  0  0  0  0  0
   -8.6650   -0.9332  -19.9123 H   0  0  0  0  0  0  0  0  0  0  0  0
   -7.9763   -4.4407  -17.6947 H   0  0  0  0  0  0  0  0  0  0  0  0
   -9.3962   -3.4513  -17.4660 H   0  0  0  0  0  0  0  0  0  0  0  0
   -9.8416    0.2323  -18.2924 H   0  0  0  0  0  0  0  0  0  0  0  0
  -10.3856   -1.2093  -17.4290 H   0  0  0  0  0  0  0  0  0  0  0  0
   -7.7241   -3.4190  -15.5307 H   0  0  0  0  0  0  0  0  0  0  0  0
   -6.6931   -2.4485  -16.5623 H   0  0  0  0  0  0  0  0  0  0  0  0
   -5.0316    1.1462  -17.2357 H   0  0  0  0  0  0  0  0  0  0  0  0
   -5.1322    1.0319  -19.0073 H   0  0  0  0  0  0  0  0  0  0  0  0
   -4.4688    2.4826  -18.2241 H   0  0  0  0  0  0  0  0  0  0  0  0
   -7.9208    3.5616  -19.3505 H   0  0  0  0  0  0  0  0  0  0  0  0
   -6.9087    2.4500  -20.2555 H   0  0  0  0  0  0  0  0  0  0  0  0
   -6.1882    3.9100  -19.5419 H   0  0  0  0  0  0  0  0  0  0  0  0
   -7.7846    3.6801  -16.8410 H   0  0  0  0  0  0  0  0  0  0  0  0
   -6.6189    2.6802  -15.9472 H   0  0  0  0  0  0  0  0  0  0  0  0
   -6.0744    4.0666  -16.9186 H   0  0  0  0  0  0  0  0  0  0  0  0
   -7.7618   -1.5191  -12.4953 H   0  0  0  0  0  0  0  0  0  0  0  0
   -6.8644   -0.0130  -12.7927 H   0  0  0  0  0  0  0  0  0  0  0  0
   -7.7110   -0.2803  -11.2533 H   0  0  0  0  0  0  0  0  0  0  0  0
   -9.9436    2.1588  -13.1015 H   0  0  0  0  0  0  0  0  0  0  0  0
   -8.1922    2.1756  -13.2071 H   0  0  0  0  0  0  0  0  0  0  0  0
   -8.9737    1.9551  -11.6259 H   0  0  0  0  0  0  0  0  0  0  0  0
  -11.1927    0.0092  -12.7147 H   0  0  0  0  0  0  0  0  0  0  0  0
  -10.3177   -1.5200  -12.4841 H   0  0  0  0  0  0  0  0  0  0  0  0
  -10.3169   -0.2697  -11.2196 H   0  0  0  0  0  0  0  0  0  0  0  0
   -7.9960   -3.2789  -19.6272 H   0  0  0  0  0  0  0  0  0  0  0  0
  1 16  1  0  0  0  0
  1 18  2  0  0  0  0
  1 20  1  0  0  0  0
  2 17  1  0  0  0  0
  2 19  2  0  0  0  0
  2 21  1  0  0  0  0
  3  5  1  0  0  0  0
  3 15  1  0  0  0  0
  4  6  1  0  0  0  0
  4 15  1  0  0  0  0
  5 16  1  0  0  0  0
  6 17  1  0  0  0  0
  7 13  1  0  0  0  0
  8 13  1  0  0  0  0
  9 13  1  0  0  0  0
 10 14  1  0  0  0  0
 11 14  1  0  0  0  0
 12 14  1  0  0  0  0
 13 20  1  0  0  0  0
 14 21  1  0  0  0  0
 16 17  1  0  0  0  0
  3 22  1  0  0  0  0
  3 23  1  0  0  0  0
  4 24  1  0  0  0  0
  4 25  1  0  0  0  0
  5 26  1  0  0  0  0
  5 27  1  0  0  0  0
  6 28  1  0  0  0  0
  6 29  1  0  0  0  0
  7 30  1  0  0  0  0
  7 31  1  0  0  0  0
  7 32  1  0  0  0  0
  8 33  1  0  0  0  0
  8 34  1  0  0  0  0
  8 35  1  0  0  0  0
  9 36  1  0  0  0  0
  9 37  1  0  0  0  0
  9 38  1  0  0  0  0
 10 39  1  0  0  0  0
 10 40  1  0  0  0  0
 10 41  1  0  0  0  0
 11 42  1  0  0  0  0
 11 43  1  0  0  0  0
 11 44  1  0  0  0  0
 12 45  1  0  0  0  0
 12 46  1  0  0  0  0
 12 47  1  0  0  0  0
 15 48  1  0  0  0  0
M  END
> <id>
EN300-1608291

> <smiles>
CC(C)(C)OC(=O)N1CCNCCN1C(=O)OC(C)(C)C

> <MDLNUMBER>
MFCD24395795

> <IUPAC Name>
1,2-di-tert-butyl 1,2,5-triazepane-1,2-dicarboxylate

> <CAS>
952150-25-3

> <Purity>
95

> <URL>
https://www.enaminestore.com/catalog/EN300-1608291

> <ROCS_ShapeQuery>
amalgated

> <ROCS_TanimotoCombo>
0.813 

> <ROCS_ShapeTanimoto>
0.572 

> <ROCS_ColorTanimoto>
0.241 

> <ROCS_RefTversky>
0.575 

> <ROCS_RefColorTversky>
0.389 

> <ROCS_RefTverskyCombo>
0.964 

> <ROCS_FitTversky>
1.000 

> <ROCS_FitColorTversky>
0.389 

> <ROCS_FitTverskyCombo>
1.389 

> <ROCS_ColorScore>
-2.720

> <ROCS_Overlap>
949.874

> <ROCS_Rank>
460                 

$$$$
untitled-dbase-34249_211
  -OEChem-10092318153D

 46 48  0     1  0  0  0  0  0999 V2000
   -8.0879   -0.4564  -12.9237 C   0  0  0  0  0  0  0  0  0  0  0  0
   -7.8532    0.3566  -16.6396 C   0  0  0  0  0  0  0  0  0  0  0  0
   -6.9976   -1.9567  -16.0667 C   0  0  0  0  0  0  0  0  0  0  0  0
   -8.2743    0.5898  -15.1915 C   0  0  0  0  0  0  0  0  0  0  0  0
   -6.6241   -1.2282  -14.7712 C   0  0  0  0  0  0  0  0  0  0  0  0
   -7.4717   -1.3278  -18.4817 C   0  0  0  0  0  0  0  0  0  0  0  0
   -9.9804   -2.4476  -15.9771 C   0  0  0  0  0  0  0  0  0  0  0  0
   -9.8077   -3.9548  -17.7091 C   0  0  0  0  0  0  0  0  0  0  0  0
   -9.3893   -1.6405  -17.1187 C   0  0  2  0  0  0  0  0  0  0  0  0
   -9.3960   -2.6170  -18.2948 C   0  0  1  0  0  0  0  0  0  0  0  0
   -7.9164   -1.1349  -17.0214 C   0  0  0  0  0  0  0  0  0  0  0  0
   -9.0053    0.8274  -10.5374 C   0  0  0  0  0  0  0  0  0  0  0  0
  -11.3193    0.3807  -11.4062 C   0  0  0  0  0  0  0  0  0  0  0  0
   -9.7870   -1.5397  -10.8842 C   0  0  0  0  0  0  0  0  0  0  0  0
   -9.8699   -0.1002  -11.3899 C   0  0  0  0  0  0  0  0  0  0  0  0
   -8.0278   -2.6367  -18.8146 N   0  0  0  0  0  0  0  0  0  0  0  0
   -7.7011   -0.3873  -14.2656 N   0  0  0  0  0  0  0  0  0  0  0  0
   -7.3578   -0.8259  -12.0064 O   0  0  0  0  0  0  0  0  0  0  0  0
   -9.7368   -3.8240  -16.2856 O   0  0  0  0  0  0  0  0  0  0  0  0
   -9.3874   -0.0618  -12.7377 O   0  0  0  0  0  0  0  0  0  0  0  0
   -8.5309    0.9247  -17.2841 H   0  0  0  0  0  0  0  0  0  0  0  0
   -6.8569    0.7761  -16.7877 H   0  0  0  0  0  0  0  0  0  0  0  0
   -6.0669   -2.2432  -16.5790 H   0  0  0  0  0  0  0  0  0  0  0  0
   -7.5044   -2.9019  -15.8112 H   0  0  0  0  0  0  0  0  0  0  0  0
   -7.9542    1.5870  -14.8456 H   0  0  0  0  0  0  0  0  0  0  0  0
   -9.3743    0.5914  -15.1339 H   0  0  0  0  0  0  0  0  0  0  0  0
   -6.3227   -1.9678  -14.0131 H   0  0  0  0  0  0  0  0  0  0  0  0
   -5.7494   -0.5783  -14.9340 H   0  0  0  0  0  0  0  0  0  0  0  0
   -7.8414   -0.5625  -19.1562 H   0  0  0  0  0  0  0  0  0  0  0  0
   -6.3874   -1.3651  -18.5691 H   0  0  0  0  0  0  0  0  0  0  0  0
   -9.5139   -2.2415  -15.0019 H   0  0  0  0  0  0  0  0  0  0  0  0
  -11.0626   -2.2864  -15.8688 H   0  0  0  0  0  0  0  0  0  0  0  0
  -10.8283   -4.2337  -17.9911 H   0  0  0  0  0  0  0  0  0  0  0  0
   -9.1409   -4.7705  -18.0127 H   0  0  0  0  0  0  0  0  0  0  0  0
  -10.0793   -0.7932  -17.3482 H   0  0  0  0  0  0  0  0  0  0  0  0
  -10.0742   -2.3099  -19.0741 H   0  0  0  0  0  0  0  0  0  0  0  0
   -7.9641    0.4857  -10.5231 H   0  0  0  0  0  0  0  0  0  0  0  0
   -9.0284    1.8565  -10.9106 H   0  0  0  0  0  0  0  0  0  0  0  0
   -9.3442    0.8296   -9.4951 H   0  0  0  0  0  0  0  0  0  0  0  0
  -11.9433   -0.2820  -12.0168 H   0  0  0  0  0  0  0  0  0  0  0  0
  -11.3949    1.3771  -11.8564 H   0  0  0  0  0  0  0  0  0  0  0  0
  -11.7424    0.4230  -10.3974 H   0  0  0  0  0  0  0  0  0  0  0  0
  -10.4071   -2.2052  -11.4955 H   0  0  0  0  0  0  0  0  0  0  0  0
   -8.7584   -1.9142  -10.9003 H   0  0  0  0  0  0  0  0  0  0  0  0
  -10.1692   -1.6154   -9.8598 H   0  0  0  0  0  0  0  0  0  0  0  0
   -8.0661   -2.7268  -19.8222 H   0  0  0  0  0  0  0  0  0  0  0  0
  1 17  1  0  0  0  0
  1 18  2  0  0  0  0
  1 20  1  0  0  0  0
  2  4  1  0  0  0  0
  2 11  1  0  0  0  0
  3  5  1  0  0  0  0
  3 11  1  0  0  0  0
  4 17  1  0  0  0  0
  5 17  1  0  0  0  0
  6 11  1  0  0  0  0
  6 16  1  0  0  0  0
  7  9  1  0  0  0  0
  7 19  1  0  0  0  0
  8 10  1  0  0  0  0
  8 19  1  0  0  0  0
  9 10  1  0  0  0  0
  9 11  1  0  0  0  0
 10 16  1  0  0  0  0
 12 15  1  0  0  0  0
 13 15  1  0  0  0  0
 14 15  1  0  0  0  0
 15 20  1  0  0  0  0
  2 21  1  0  0  0  0
  2 22  1  0  0  0  0
  3 23  1  0  0  0  0
  3 24  1  0  0  0  0
  4 25  1  0  0  0  0
  4 26  1  0  0  0  0
  5 27  1  0  0  0  0
  5 28  1  0  0  0  0
  6 29  1  0  0  0  0
  6 30  1  0  0  0  0
  7 31  1  0  0  0  0
  7 32  1  0  0  0  0
  8 33  1  0  0  0  0
  8 34  1  0  0  0  0
  9 35  1  0  0  0  0
 10 36  1  0  0  0  0
 12 37  1  0  0  0  0
 12 38  1  0  0  0  0
 12 39  1  0  0  0  0
 13 40  1  0  0  0  0
 13 41  1  0  0  0  0
 13 42  1  0  0  0  0
 14 43  1  0  0  0  0
 14 44  1  0  0  0  0
 14 45  1  0  0  0  0
 16 46  1  0  0  0  0
M  END
> <id>
EN300-249882

> <smiles>
CC(C)(C)OC(=O)N1CCC2(CNC3COCC32)CC1

> <MDLNUMBER>
MFCD30180332

> <IUPAC Name>
tert-butyl hexahydrospiro[furo[3,4-b]pyrrole-3,4'-piperidine]-1'-carboxylate

> <CAS>
1935013-51-6

> <URL>
https://www.enaminestore.com/catalog/EN300-249882

> <ROCS_ShapeQuery>
amalgated

> <ROCS_TanimotoCombo>
0.813 

> <ROCS_ShapeTanimoto>
0.616 

> <ROCS_ColorTanimoto>
0.197 

> <ROCS_RefTversky>
0.597 

> <ROCS_RefColorTversky>
0.352 

> <ROCS_RefTverskyCombo>
0.949 

> <ROCS_FitTversky>
1.056 

> <ROCS_FitColorTversky>
0.309 

> <ROCS_FitTverskyCombo>
1.366 

> <ROCS_ColorScore>
-2.485

> <ROCS_Overlap>
984.653

> <ROCS_Rank>
461                 

$$$$
untitled-dbase-45832_13
  -OEChem-10092318153D

 40 42  0     0  0  0  0  0  0999 V2000
   -7.4969    0.5365  -19.1693 C   0  0  0  0  0  0  0  0  0  0  0  0
   -6.7827    1.7027  -18.8947 C   0  0  0  0  0  0  0  0  0  0  0  0
   -7.1258    1.3356  -16.5441 C   0  0  0  0  0  0  0  0  0  0  0  0
   -8.0527   -0.2675  -18.1494 C   0  0  0  0  0  0  0  0  0  0  0  0
   -7.8466    0.1553  -16.8105 C   0  0  0  0  0  0  0  0  0  0  0  0
   -6.5990    2.1031  -17.5799 C   0  0  0  0  0  0  0  0  0  0  0  0
   -8.9520   -0.0496  -14.5757 C   0  0  0  0  0  0  0  0  0  0  0  0
   -8.2671   -2.9252  -18.1721 C   0  0  0  0  0  0  0  0  0  0  0  0
  -10.0630   -1.9740  -17.5756 C   0  0  0  0  0  0  0  0  0  0  0  0
   -8.1292   -2.0817  -15.7368 C   0  0  0  0  0  0  0  0  0  0  0  0
   -8.9070   -1.5577  -18.5360 C   0  0  0  0  0  0  0  0  0  0  0  0
   -8.9810   -2.7787  -16.7982 C   0  0  0  0  0  0  0  0  0  0  0  0
  -10.6702   -0.1138  -12.2844 C   0  0  0  0  0  0  0  0  0  0  0  0
   -8.6695   -0.9806  -11.0375 C   0  0  0  0  0  0  0  0  0  0  0  0
   -8.6045    1.3080  -12.0702 C   0  0  0  0  0  0  0  0  0  0  0  0
   -9.1444   -0.1153  -12.2028 C   0  0  0  0  0  0  0  0  0  0  0  0
   -8.3527   -0.6273  -15.7145 N   0  0  0  0  0  0  0  0  0  0  0  0
   -9.6523    0.9617  -14.6018 O   0  0  0  0  0  0  0  0  0  0  0  0
   -8.6242   -0.6900  -13.4071 O   0  0  0  0  0  0  0  0  0  0  0  0
   -5.6258    3.6761  -17.1946 Br  0  0  0  0  0  0  0  0  0  0  0  0
   -7.6363    0.2452  -20.2090 H   0  0  0  0  0  0  0  0  0  0  0  0
   -6.3803    2.2832  -19.7206 H   0  0  0  0  0  0  0  0  0  0  0  0
   -6.9377    1.6385  -15.5159 H   0  0  0  0  0  0  0  0  0  0  0  0
   -8.6354   -3.7618  -18.7790 H   0  0  0  0  0  0  0  0  0  0  0  0
   -7.1742   -2.9663  -18.1608 H   0  0  0  0  0  0  0  0  0  0  0  0
  -10.5814   -1.1753  -17.0389 H   0  0  0  0  0  0  0  0  0  0  0  0
  -10.8243   -2.6052  -18.0522 H   0  0  0  0  0  0  0  0  0  0  0  0
   -8.3817   -2.5014  -14.7570 H   0  0  0  0  0  0  0  0  0  0  0  0
   -7.0584   -2.2693  -15.8824 H   0  0  0  0  0  0  0  0  0  0  0  0
   -9.2405   -1.5135  -19.5816 H   0  0  0  0  0  0  0  0  0  0  0  0
   -9.3439   -3.7401  -16.4134 H   0  0  0  0  0  0  0  0  0  0  0  0
  -11.0152    0.5063  -13.1196 H   0  0  0  0  0  0  0  0  0  0  0  0
  -11.0682   -1.1254  -12.4148 H   0  0  0  0  0  0  0  0  0  0  0  0
  -11.1099    0.3169  -11.3776 H   0  0  0  0  0  0  0  0  0  0  0  0
   -7.5753   -0.9846  -10.9752 H   0  0  0  0  0  0  0  0  0  0  0  0
   -8.9745   -2.0241  -11.1766 H   0  0  0  0  0  0  0  0  0  0  0  0
   -9.0699   -0.6267  -10.0820 H   0  0  0  0  0  0  0  0  0  0  0  0
   -7.5100    1.3072  -12.0116 H   0  0  0  0  0  0  0  0  0  0  0  0
   -8.9047    1.9338  -12.9168 H   0  0  0  0  0  0  0  0  0  0  0  0
   -8.9632    1.7763  -11.1465 H   0  0  0  0  0  0  0  0  0  0  0  0
  1  2  1  0  0  0  0
  1  4  2  0  0  0  0
  2  6  2  0  0  0  0
  3  5  2  0  0  0  0
  3  6  1  0  0  0  0
  4  5  1  0  0  0  0
  4 11  1  0  0  0  0
  5 17  1  0  0  0  0
  6 20  1  0  0  0  0
  7 17  1  0  0  0  0
  7 18  2  0  0  0  0
  7 19  1  0  0  0  0
  8 11  1  0  0  0  0
  8 12  1  0  0  0  0
  9 11  1  0  0  0  0
  9 12  1  0  0  0  0
 10 12  1  0  0  0  0
 10 17  1  0  0  0  0
 13 16  1  0  0  0  0
 14 16  1  0  0  0  0
 15 16  1  0  0  0  0
 16 19  1  0  0  0  0
  1 21  1  0  0  0  0
  2 22  1  0  0  0  0
  3 23  1  0  0  0  0
  8 24  1  0  0  0  0
  8 25  1  0  0  0  0
  9 26  1  0  0  0  0
  9 27  1  0  0  0  0
 10 28  1  0  0  0  0
 10 29  1  0  0  0  0
 11 30  1  0  0  0  0
 12 31  1  0  0  0  0
 13 32  1  0  0  0  0
 13 33  1  0  0  0  0
 13 34  1  0  0  0  0
 14 35  1  0  0  0  0
 14 36  1  0  0  0  0
 14 37  1  0  0  0  0
 15 38  1  0  0  0  0
 15 39  1  0  0  0  0
 15 40  1  0  0  0  0
M  END
> <id>
EN300-28296720

> <smiles>
CC(C)(C)OC(=O)N1CC2CC(C2)C=3C=CC(Br)=CC13

> <IUPAC Name>
tert-butyl 5-bromo-8-azatricyclo[8.1.1.0,2,7]dodeca-2,4,6-triene-8-carboxylate

> <CAS>
2680706-52-7

> <URL>
https://www.enaminestore.com/catalog/EN300-28296720

> <ROCS_ShapeQuery>
amalgated

> <ROCS_TanimotoCombo>
0.813 

> <ROCS_ShapeTanimoto>
0.650 

> <ROCS_ColorTanimoto>
0.163 

> <ROCS_RefTversky>
0.616 

> <ROCS_RefColorTversky>
0.326 

> <ROCS_RefTverskyCombo>
0.942 

> <ROCS_FitTversky>
1.094 

> <ROCS_FitColorTversky>
0.246 

> <ROCS_FitTverskyCombo>
1.341 

> <ROCS_ColorScore>
-2.327

> <ROCS_Overlap>
1015.623

> <ROCS_Rank>
462                 

$$$$
untitled-dbase-23988_4
  -OEChem-10092318153D

 49 52  0     1  0  0  0  0  0999 V2000
   -5.8174    0.1991  -20.1798 C   0  0  0  0  0  0  0  0  0  0  0  0
   -9.6982    1.0485  -12.3701 C   0  0  0  0  0  0  0  0  0  0  0  0
   -9.8556    0.5957  -11.0654 C   0  0  0  0  0  0  0  0  0  0  0  0
   -7.4281   -0.9962  -16.6497 C   0  0  0  0  0  0  0  0  0  0  0  0
   -8.4904   -1.3278  -11.5884 C   0  0  0  0  0  0  0  0  0  0  0  0
   -8.8489   -0.9697  -18.5605 C   0  0  0  0  0  0  0  0  0  0  0  0
   -6.3377    1.0920  -19.2040 C   0  0  0  0  0  0  0  0  0  0  0  0
   -7.8069   -0.4019  -17.8492 C   0  0  0  0  0  0  0  0  0  0  0  0
   -7.2228    0.8705  -18.1782 C   0  0  0  0  0  0  0  0  0  0  0  0
   -8.9234    0.3181  -13.2883 C   0  0  0  0  0  0  0  0  0  0  0  0
   -8.2890   -0.8911  -12.9129 C   0  0  0  0  0  0  0  0  0  0  0  0
   -8.2143   -1.9910  -16.0914 C   0  0  0  0  0  0  0  0  0  0  0  0
   -9.2585   -0.5957  -10.6773 C   0  0  0  0  0  0  0  0  0  0  0  0
   -7.3329    2.1196  -17.4956 C   0  0  0  0  0  0  0  0  0  0  0  0
   -9.2294   -2.5062  -16.8850 C   0  0  0  0  0  0  0  0  0  0  0  0
   -8.9783    0.8536  -14.6649 C   0  0  0  0  0  0  0  0  0  0  0  0
   -8.2241    2.5067  -16.3548 C   0  0  0  0  0  0  0  0  0  0  0  0
   -7.3776   -1.6781  -13.8514 C   0  0  1  0  0  0  0  0  0  0  0  0
   -6.4407   -2.6912  -13.1786 C   0  0  0  0  0  0  0  0  0  0  0  0
   -5.0690    3.1294  -19.9523 C   0  0  0  0  0  0  0  0  0  0  0  0
   -6.7967    2.1001  -14.3435 C   0  0  0  0  0  0  0  0  0  0  0  0
   -5.3931   -0.5307  -20.9761 N   0  0  0  0  0  0  0  0  0  0  0  0
   -9.5437   -2.0432  -18.1203 N   0  0  0  0  0  0  0  0  0  0  0  0
   -6.5669    3.0538  -18.0783 N   0  0  0  0  0  0  0  0  0  0  0  0
   -5.9807    2.4031  -19.0971 N   0  0  0  0  0  0  0  0  0  0  0  0
   -7.9886    1.7474  -15.1117 N   0  0  0  0  0  0  0  0  0  0  0  0
  -10.0080   -3.5738  -16.3686 N   0  0  0  0  0  0  0  0  0  0  0  0
   -9.9791    0.5321  -15.3089 O   0  0  0  0  0  0  0  0  0  0  0  0
   -8.1366   -2.4407  -14.8068 O   0  0  0  0  0  0  0  0  0  0  0  0
   -9.4097   -1.0450   -9.4234 F   0  0  0  0  0  0  0  0  0  0  0  0
  -10.1849    1.9752  -12.6706 H   0  0  0  0  0  0  0  0  0  0  0  0
  -10.4394    1.1707  -10.3550 H   0  0  0  0  0  0  0  0  0  0  0  0
   -6.5327   -0.6515  -16.1583 H   0  0  0  0  0  0  0  0  0  0  0  0
   -8.0403   -2.2616  -11.2474 H   0  0  0  0  0  0  0  0  0  0  0  0
   -9.2013   -0.5671  -19.5006 H   0  0  0  0  0  0  0  0  0  0  0  0
   -8.0836    3.5723  -16.1060 H   0  0  0  0  0  0  0  0  0  0  0  0
   -9.2686    2.4101  -16.6837 H   0  0  0  0  0  0  0  0  0  0  0  0
   -6.7010   -1.0093  -14.4302 H   0  0  0  0  0  0  0  0  0  0  0  0
   -7.0253   -3.3906  -12.5861 H   0  0  0  0  0  0  0  0  0  0  0  0
   -5.7417   -2.1672  -12.5315 H   0  0  0  0  0  0  0  0  0  0  0  0
   -5.8879   -3.2372  -13.9391 H   0  0  0  0  0  0  0  0  0  0  0  0
   -5.6488    3.5649  -20.7703 H   0  0  0  0  0  0  0  0  0  0  0  0
   -4.5742    3.9146  -19.3740 H   0  0  0  0  0  0  0  0  0  0  0  0
   -4.3133    2.4414  -20.3418 H   0  0  0  0  0  0  0  0  0  0  0  0
   -5.9829    1.4011  -14.5868 H   0  0  0  0  0  0  0  0  0  0  0  0
   -6.4875    3.1250  -14.5966 H   0  0  0  0  0  0  0  0  0  0  0  0
   -7.0223    2.0401  -13.2686 H   0  0  0  0  0  0  0  0  0  0  0  0
  -10.7692   -3.9194  -16.9108 H   0  0  0  0  0  0  0  0  0  0  0  0
   -9.8353   -3.8885  -15.4391 H   0  0  0  0  0  0  0  0  0  0  0  0
  1  7  1  0  0  0  0
  1 22  3  0  0  0  0
  2  3  1  0  0  0  0
  2 10  2  0  0  0  0
  3 13  2  0  0  0  0
  4  8  2  0  0  0  0
  4 12  1  0  0  0  0
  5 11  2  0  0  0  0
  5 13  1  0  0  0  0
  6  8  1  0  0  0  0
  6 23  2  0  0  0  0
  7  9  2  0  0  0  0
  7 25  1  0  0  0  0
  8  9  1  0  0  0  0
  9 14  1  0  0  0  0
 10 11  1  0  0  0  0
 10 16  1  0  0  0  0
 11 18  1  0  0  0  0
 12 15  2  0  0  0  0
 12 29  1  0  0  0  0
 13 30  1  0  0  0  0
 14 17  1  0  0  0  0
 14 24  2  0  0  0  0
 15 23  1  0  0  0  0
 15 27  1  0  0  0  0
 16 26  1  0  0  0  0
 16 28  2  0  0  0  0
 17 26  1  0  0  0  0
 18 19  1  1  0  0  0
 18 29  1  0  0  0  0
 20 25  1  0  0  0  0
 21 26  1  0  0  0  0
 24 25  1  0  0  0  0
  2 31  1  0  0  0  0
  3 32  1  0  0  0  0
  4 33  1  0  0  0  0
  5 34  1  0  0  0  0
  6 35  1  0  0  0  0
 17 36  1  0  0  0  0
 17 37  1  0  0  0  0
 18 38  1  0  0  0  0
 19 39  1  0  0  0  0
 19 40  1  0  0  0  0
 19 41  1  0  0  0  0
 20 42  1  0  0  0  0
 20 43  1  0  0  0  0
 20 44  1  0  0  0  0
 21 45  1  0  0  0  0
 21 46  1  0  0  0  0
 21 47  1  0  0  0  0
 27 48  1  0  0  0  0
 27 49  1  0  0  0  0
M  END
> <id>
EN300-7406070

> <smiles>
C[C@H]1OC=2C=C(C=NC2N)C3=C(C#N)N(C)N=C3CN(C)C(=O)C=4C=CC(F)=CC14

> <MDLNUMBER>
MFCD28144520

> <IUPAC Name>
(16R)-19-amino-13-fluoro-4,8,16-trimethyl-9-oxo-17-oxa-4,5,8,20-tetraazatetracyclo[16.3.1.0^{2,6}.0^{10,15}]docosa-1(22),2,5,10(15),11,13,18,20-octaene-3-carbonitrile

> <CAS>
1454846-35-5

> <URL>
https://www.enaminestore.com/catalog/EN300-7406070

> <ROCS_ShapeQuery>
amalgated

> <ROCS_TanimotoCombo>
0.813 

> <ROCS_ShapeTanimoto>
0.616 

> <ROCS_ColorTanimoto>
0.198 

> <ROCS_RefTversky>
0.702 

> <ROCS_RefColorTversky>
0.393 

> <ROCS_RefTverskyCombo>
1.094 

> <ROCS_FitTversky>
0.834 

> <ROCS_FitColorTversky>
0.285 

> <ROCS_FitTverskyCombo>
1.119 

> <ROCS_ColorScore>
-2.809

> <ROCS_Overlap>
1175.534

> <ROCS_Rank>
463                 

$$$$
untitled-dbase-35322_19
  -OEChem-10092318153D

 33 34  0     0  0  0  0  0  0999 V2000
   -8.8386   -0.1669  -11.8677 C   0  0  0  0  0  0  0  0  0  0  0  0
   -9.7190    0.5806  -12.8866 C   0  0  0  0  0  0  0  0  0  0  0  0
   -7.9397   -1.2963  -12.4050 C   0  0  0  0  0  0  0  0  0  0  0  0
   -7.7837   -0.7010  -17.7125 C   0  0  0  0  0  0  0  0  0  0  0  0
   -9.7457   -2.4092  -17.3241 C   0  0  0  0  0  0  0  0  0  0  0  0
  -10.2332   -0.2794  -14.0478 C   0  0  0  0  0  0  0  0  0  0  0  0
   -7.3979   -1.0710  -13.8221 C   0  0  0  0  0  0  0  0  0  0  0  0
   -8.3791    0.1370  -16.5719 C   0  0  0  0  0  0  0  0  0  0  0  0
   -9.2031   -2.6202  -15.9030 C   0  0  0  0  0  0  0  0  0  0  0  0
   -8.7533   -1.7495  -18.3127 C   0  0  0  0  0  0  0  0  0  0  0  0
   -7.9523   -2.7802  -18.9823 N   0  0  0  0  0  0  0  0  0  0  0  0
   -8.8029   -0.9579  -15.0834 Si  0  0  0  0  0  0  0  0  0  0  0  0
   -8.2126    0.5688  -11.3128 H   0  0  0  0  0  0  0  0  0  0  0  0
   -9.5083   -0.6025  -11.0932 H   0  0  0  0  0  0  0  0  0  0  0  0
  -10.5697    1.0392  -12.3555 H   0  0  0  0  0  0  0  0  0  0  0  0
   -9.1389    1.4190  -13.3040 H   0  0  0  0  0  0  0  0  0  0  0  0
   -7.0853   -1.4199  -11.7205 H   0  0  0  0  0  0  0  0  0  0  0  0
   -8.4974   -2.2472  -12.3646 H   0  0  0  0  0  0  0  0  0  0  0  0
   -7.4528   -0.0364  -18.5176 H   0  0  0  0  0  0  0  0  0  0  0  0
   -6.8879   -1.2083  -17.3410 H   0  0  0  0  0  0  0  0  0  0  0  0
  -10.0620   -3.3808  -17.7228 H   0  0  0  0  0  0  0  0  0  0  0  0
  -10.6509   -1.7903  -17.2790 H   0  0  0  0  0  0  0  0  0  0  0  0
  -10.8307   -1.1040  -13.6657 H   0  0  0  0  0  0  0  0  0  0  0  0
  -10.8644    0.3281  -14.6947 H   0  0  0  0  0  0  0  0  0  0  0  0
   -6.8400   -0.1380  -13.8506 H   0  0  0  0  0  0  0  0  0  0  0  0
   -6.7267   -1.8791  -14.0981 H   0  0  0  0  0  0  0  0  0  0  0  0
   -7.6660    0.8880  -16.2508 H   0  0  0  0  0  0  0  0  0  0  0  0
   -9.2774    0.6398  -16.9105 H   0  0  0  0  0  0  0  0  0  0  0  0
   -9.9345   -3.1497  -15.3010 H   0  0  0  0  0  0  0  0  0  0  0  0
   -8.2942   -3.2133  -15.9364 H   0  0  0  0  0  0  0  0  0  0  0  0
   -9.3355   -1.2495  -19.0958 H   0  0  0  0  0  0  0  0  0  0  0  0
   -8.5736   -3.4083  -19.4323 H   0  0  0  0  0  0  0  0  0  0  0  0
   -7.3644   -2.3312  -19.6425 H   0  0  0  0  0  0  0  0  0  0  0  0
  1  2  1  0  0  0  0
  1  3  1  0  0  0  0
  2  6  1  0  0  0  0
  3  7  1  0  0  0  0
  4  8  1  0  0  0  0
  4 10  1  0  0  0  0
  5  9  1  0  0  0  0
  5 10  1  0  0  0  0
  6 12  1  0  0  0  0
  7 12  1  0  0  0  0
  8 12  1  0  0  0  0
  9 12  1  0  0  0  0
 10 11  1  0  0  0  0
  1 13  1  0  0  0  0
  1 14  1  0  0  0  0
  2 15  1  0  0  0  0
  2 16  1  0  0  0  0
  3 17  1  0  0  0  0
  3 18  1  0  0  0  0
  4 19  1  0  0  0  0
  4 20  1  0  0  0  0
  5 21  1  0  0  0  0
  5 22  1  0  0  0  0
  6 23  1  0  0  0  0
  6 24  1  0  0  0  0
  7 25  1  0  0  0  0
  7 26  1  0  0  0  0
  8 27  1  0  0  0  0
  8 28  1  0  0  0  0
  9 29  1  0  0  0  0
  9 30  1  0  0  0  0
 10 31  1  0  0  0  0
 11 32  1  0  0  0  0
 11 33  1  0  0  0  0
M  END
> <id>
EN300-6745718

> <smiles>
NC1CC[Si]2(CCCCC2)CC1

> <MDLNUMBER>
MFCD31794696

> <IUPAC Name>
6-silaspiro[5.5]undecan-3-amine

> <CAS>
1330276-93-1

> <URL>
https://www.enaminestore.com/catalog/EN300-6745718

> <ROCS_ShapeQuery>
amalgated

> <ROCS_TanimotoCombo>
0.813 

> <ROCS_ShapeTanimoto>
0.425 

> <ROCS_ColorTanimoto>
0.388 

> <ROCS_RefTversky>
0.392 

> <ROCS_RefColorTversky>
0.449 

> <ROCS_RefTverskyCombo>
0.841 

> <ROCS_FitTversky>
1.248 

> <ROCS_FitColorTversky>
0.741 

> <ROCS_FitTverskyCombo>
1.990 

> <ROCS_ColorScore>
-3.077

> <ROCS_Overlap>
637.791

> <ROCS_Rank>
464                 

$$$$
untitled-dbase-35321_19
  -OEChem-10092318153D

 33 34  0     0  0  0  0  0  0999 V2000
   -8.8386   -0.1669  -11.8677 C   0  0  0  0  0  0  0  0  0  0  0  0
   -9.7190    0.5806  -12.8866 C   0  0  0  0  0  0  0  0  0  0  0  0
   -7.9397   -1.2963  -12.4050 C   0  0  0  0  0  0  0  0  0  0  0  0
   -7.7837   -0.7010  -17.7125 C   0  0  0  0  0  0  0  0  0  0  0  0
   -9.7457   -2.4092  -17.3241 C   0  0  0  0  0  0  0  0  0  0  0  0
  -10.2332   -0.2794  -14.0478 C   0  0  0  0  0  0  0  0  0  0  0  0
   -7.3979   -1.0710  -13.8221 C   0  0  0  0  0  0  0  0  0  0  0  0
   -8.3791    0.1370  -16.5719 C   0  0  0  0  0  0  0  0  0  0  0  0
   -9.2031   -2.6202  -15.9030 C   0  0  0  0  0  0  0  0  0  0  0  0
   -8.7533   -1.7495  -18.3127 C   0  0  0  0  0  0  0  0  0  0  0  0
   -7.9523   -2.7802  -18.9823 N   0  0  0  0  0  0  0  0  0  0  0  0
   -8.8029   -0.9579  -15.0834 Si  0  0  0  0  0  0  0  0  0  0  0  0
   -8.2126    0.5688  -11.3128 H   0  0  0  0  0  0  0  0  0  0  0  0
   -9.5083   -0.6025  -11.0932 H   0  0  0  0  0  0  0  0  0  0  0  0
  -10.5697    1.0392  -12.3555 H   0  0  0  0  0  0  0  0  0  0  0  0
   -9.1389    1.4190  -13.3040 H   0  0  0  0  0  0  0  0  0  0  0  0
   -7.0853   -1.4199  -11.7205 H   0  0  0  0  0  0  0  0  0  0  0  0
   -8.4974   -2.2472  -12.3646 H   0  0  0  0  0  0  0  0  0  0  0  0
   -7.4528   -0.0364  -18.5176 H   0  0  0  0  0  0  0  0  0  0  0  0
   -6.8879   -1.2083  -17.3410 H   0  0  0  0  0  0  0  0  0  0  0  0
  -10.0620   -3.3808  -17.7228 H   0  0  0  0  0  0  0  0  0  0  0  0
  -10.6509   -1.7903  -17.2790 H   0  0  0  0  0  0  0  0  0  0  0  0
  -10.8307   -1.1040  -13.6657 H   0  0  0  0  0  0  0  0  0  0  0  0
  -10.8644    0.3281  -14.6947 H   0  0  0  0  0  0  0  0  0  0  0  0
   -6.8400   -0.1380  -13.8506 H   0  0  0  0  0  0  0  0  0  0  0  0
   -6.7267   -1.8791  -14.0981 H   0  0  0  0  0  0  0  0  0  0  0  0
   -7.6660    0.8880  -16.2508 H   0  0  0  0  0  0  0  0  0  0  0  0
   -9.2774    0.6398  -16.9105 H   0  0  0  0  0  0  0  0  0  0  0  0
   -9.9345   -3.1497  -15.3010 H   0  0  0  0  0  0  0  0  0  0  0  0
   -8.2942   -3.2133  -15.9364 H   0  0  0  0  0  0  0  0  0  0  0  0
   -9.3355   -1.2495  -19.0958 H   0  0  0  0  0  0  0  0  0  0  0  0
   -8.5736   -3.4083  -19.4323 H   0  0  0  0  0  0  0  0  0  0  0  0
   -7.3644   -2.3312  -19.6425 H   0  0  0  0  0  0  0  0  0  0  0  0
  1  2  1  0  0  0  0
  1  3  1  0  0  0  0
  2  6  1  0  0  0  0
  3  7  1  0  0  0  0
  4  8  1  0  0  0  0
  4 10  1  0  0  0  0
  5  9  1  0  0  0  0
  5 10  1  0  0  0  0
  6 12  1  0  0  0  0
  7 12  1  0  0  0  0
  8 12  1  0  0  0  0
  9 12  1  0  0  0  0
 10 11  1  0  0  0  0
  1 13  1  0  0  0  0
  1 14  1  0  0  0  0
  2 15  1  0  0  0  0
  2 16  1  0  0  0  0
  3 17  1  0  0  0  0
  3 18  1  0  0  0  0
  4 19  1  0  0  0  0
  4 20  1  0  0  0  0
  5 21  1  0  0  0  0
  5 22  1  0  0  0  0
  6 23  1  0  0  0  0
  6 24  1  0  0  0  0
  7 25  1  0  0  0  0
  7 26  1  0  0  0  0
  8 27  1  0  0  0  0
  8 28  1  0  0  0  0
  9 29  1  0  0  0  0
  9 30  1  0  0  0  0
 10 31  1  0  0  0  0
 11 32  1  0  0  0  0
 11 33  1  0  0  0  0
M  END
> <id>
EN300-6745717

> <smiles>
Cl.NC1CC[Si]2(CCCCC2)CC1

> <MDLNUMBER>
MFCD24644652

> <IUPAC Name>
6-silaspiro[5.5]undecan-3-amine hydrochloride

> <CAS>
1330166-70-5

> <Purity>
95

> <URL>
https://www.enaminestore.com/catalog/EN300-6745717

> <Saltdate>
Cl

> <ROCS_ShapeQuery>
amalgated

> <ROCS_TanimotoCombo>
0.813 

> <ROCS_ShapeTanimoto>
0.425 

> <ROCS_ColorTanimoto>
0.388 

> <ROCS_RefTversky>
0.392 

> <ROCS_RefColorTversky>
0.449 

> <ROCS_RefTverskyCombo>
0.841 

> <ROCS_FitTversky>
1.248 

> <ROCS_FitColorTversky>
0.741 

> <ROCS_FitTverskyCombo>
1.990 

> <ROCS_ColorScore>
-3.077

> <ROCS_Overlap>
637.791

> <ROCS_Rank>
465                 

$$$$
untitled-dbase-18842_6
  -OEChem-10092318153D

 50 54  0     1  0  0  0  0  0999 V2000
   -8.9653   -2.9264  -14.7318 C   0  0  0  0  0  0  0  0  0  0  0  0
   -9.2257   -2.1011  -15.7583 C   0  0  0  0  0  0  0  0  0  0  0  0
   -8.5459   -2.4668  -13.3706 C   0  0  0  0  0  0  0  0  0  0  0  0
   -9.4324   -2.6496  -17.1514 C   0  0  0  0  0  0  0  0  0  0  0  0
  -10.3290    0.0194  -13.3379 C   0  0  0  0  0  0  0  0  0  0  0  0
   -7.0361   -1.3980  -10.9899 C   0  0  0  0  0  0  0  0  0  0  0  0
   -7.4530   -1.0855  -17.5481 C   0  0  0  0  0  0  0  0  0  0  0  0
   -7.9370   -0.0999  -16.4722 C   0  0  0  0  0  0  0  0  0  0  0  0
  -10.0908    0.6800  -11.9823 C   0  0  0  0  0  0  0  0  0  0  0  0
   -8.1615   -2.0981  -10.2145 C   0  0  0  0  0  0  0  0  0  0  0  0
   -8.0436   -1.0075  -13.3480 C   0  0  1  0  0  0  0  0  0  0  0  0
   -9.0137   -0.0956  -14.1389 C   0  0  1  0  0  0  0  0  0  0  0  0
   -7.7394   -0.4099  -11.9429 C   0  0  1  0  0  0  0  0  0  0  0  0
   -8.5784   -1.8991  -18.1873 C   0  0  1  0  0  0  0  0  0  0  0  0
   -9.1692   -0.5826  -15.6356 C   0  0  2  0  0  0  0  0  0  0  0  0
   -8.9746    0.0696  -11.1201 C   0  0  2  0  0  0  0  0  0  0  0  0
   -9.3398   -1.1830  -10.3573 C   0  0  0  0  0  0  0  0  0  0  0  0
  -10.4419    0.0504  -16.2553 C   0  0  0  0  0  0  0  0  0  0  0  0
   -8.5422    1.1490  -10.0927 C   0  0  0  0  0  0  0  0  0  0  0  0
  -10.3526   -1.1539   -9.3127 N   0  0  0  0  0  0  0  0  0  0  0  0
  -10.6853   -1.7311  -10.3594 N   0  0  0  0  0  0  0  0  0  0  0  0
   -7.9907   -2.8337  -19.0905 O   0  0  0  0  0  0  0  0  0  0  0  0
   -8.9735   -4.0030  -14.8897 H   0  0  0  0  0  0  0  0  0  0  0  0
   -9.3862   -2.6301  -12.6883 H   0  0  0  0  0  0  0  0  0  0  0  0
   -7.7359   -3.1308  -13.0425 H   0  0  0  0  0  0  0  0  0  0  0  0
   -9.1765   -3.7235  -17.1875 H   0  0  0  0  0  0  0  0  0  0  0  0
  -10.4993   -2.5905  -17.4227 H   0  0  0  0  0  0  0  0  0  0  0  0
  -10.8111   -0.9536  -13.2103 H   0  0  0  0  0  0  0  0  0  0  0  0
  -11.0483    0.6546  -13.8631 H   0  0  0  0  0  0  0  0  0  0  0  0
   -6.4073   -0.8403  -10.2843 H   0  0  0  0  0  0  0  0  0  0  0  0
   -6.3741   -2.1056  -11.4986 H   0  0  0  0  0  0  0  0  0  0  0  0
   -6.9092   -0.5380  -18.3310 H   0  0  0  0  0  0  0  0  0  0  0  0
   -6.7188   -1.7628  -17.0861 H   0  0  0  0  0  0  0  0  0  0  0  0
   -7.0894    0.1124  -15.8007 H   0  0  0  0  0  0  0  0  0  0  0  0
   -8.1746    0.8603  -16.9588 H   0  0  0  0  0  0  0  0  0  0  0  0
   -9.8406    1.7305  -12.1887 H   0  0  0  0  0  0  0  0  0  0  0  0
  -11.0367    0.7093  -11.4273 H   0  0  0  0  0  0  0  0  0  0  0  0
   -8.3741   -3.0866  -10.6334 H   0  0  0  0  0  0  0  0  0  0  0  0
   -7.8747   -2.2344   -9.1662 H   0  0  0  0  0  0  0  0  0  0  0  0
   -7.0782   -1.0094  -13.8735 H   0  0  0  0  0  0  0  0  0  0  0  0
   -8.5786    0.9117  -14.1724 H   0  0  0  0  0  0  0  0  0  0  0  0
   -7.0733    0.4466  -12.1191 H   0  0  0  0  0  0  0  0  0  0  0  0
   -9.2165   -1.2385  -18.7781 H   0  0  0  0  0  0  0  0  0  0  0  0
  -10.3784    1.1255  -16.1563 H   0  0  0  0  0  0  0  0  0  0  0  0
  -11.3082   -0.3229  -15.7262 H   0  0  0  0  0  0  0  0  0  0  0  0
  -10.4940   -0.2263  -17.2996 H   0  0  0  0  0  0  0  0  0  0  0  0
   -7.7558    0.7407   -9.4739 H   0  0  0  0  0  0  0  0  0  0  0  0
   -9.3983    1.4112   -9.4873 H   0  0  0  0  0  0  0  0  0  0  0  0
   -8.1844    2.0146  -10.6320 H   0  0  0  0  0  0  0  0  0  0  0  0
   -8.7252   -3.2982  -19.5185 H   0  0  0  0  0  0  0  0  0  0  0  0
  1  2  2  0  0  0  0
  1  3  1  0  0  0  0
  2  4  1  0  0  0  0
  2 15  1  0  0  0  0
  3 11  1  1  0  0  0
  4 14  1  0  0  0  0
  5  9  1  0  0  0  0
  5 12  1  1  0  0  0
  6 10  1  0  0  0  0
  6 13  1  1  0  0  0
  7  8  1  0  0  0  0
  7 14  1  0  0  0  0
  8 15  1  0  0  0  0
  9 16  1  0  0  0  0
 10 17  1  0  0  0  0
 11 12  1  0  0  0  0
 11 13  1  0  0  0  0
 12 15  1  0  0  0  0
 13 16  1  0  0  0  0
 14 22  1  0  0  0  0
 15 18  1  1  0  0  0
 16 17  1  0  0  0  0
 16 19  1  6  0  0  0
 17 20  1  0  0  0  0
 17 21  1  0  0  0  0
 20 21  2  0  0  0  0
  1 23  1  0  0  0  0
  3 24  1  0  0  0  0
  3 25  1  0  0  0  0
  4 26  1  0  0  0  0
  4 27  1  0  0  0  0
  5 28  1  0  0  0  0
  5 29  1  0  0  0  0
  6 30  1  0  0  0  0
  6 31  1  0  0  0  0
  7 32  1  0  0  0  0
  7 33  1  0  0  0  0
  8 34  1  0  0  0  0
  8 35  1  0  0  0  0
  9 36  1  0  0  0  0
  9 37  1  0  0  0  0
 10 38  1  0  0  0  0
 10 39  1  0  0  0  0
 11 40  1  0  0  0  0
 12 41  1  0  0  0  0
 13 42  1  0  0  0  0
 14 43  1  0  0  0  0
 18 44  1  0  0  0  0
 18 45  1  0  0  0  0
 18 46  1  0  0  0  0
 19 47  1  0  0  0  0
 19 48  1  0  0  0  0
 19 49  1  0  0  0  0
 22 50  1  0  0  0  0
M  END
> <id>
EN300-1693332

> <smiles>
C[C@]12CC[C@H]3[C@H](CC=C4CC(O)CC[C@]34C)[C@@H]2CCC51N=N5

> <IUPAC Name>
(3aS,3bS,9aR,9bS,11aR)-9a,11a-dimethyl-2,3,3a,3b,4,6,7,8,9,9a,9b,10,11,11a-tetradecahydrospiro[cyclopenta[a]phenanthrene-1,2'-diazirin]-7-ol

> <URL>
https://www.enaminestore.com/catalog/EN300-1693332

> <ROCS_ShapeQuery>
amalgated

> <ROCS_TanimotoCombo>
0.813 

> <ROCS_ShapeTanimoto>
0.548 

> <ROCS_ColorTanimoto>
0.265 

> <ROCS_RefTversky>
0.573 

> <ROCS_RefColorTversky>
0.393 

> <ROCS_RefTverskyCombo>
0.966 

> <ROCS_FitTversky>
0.927 

> <ROCS_FitColorTversky>
0.449 

> <ROCS_FitTverskyCombo>
1.376 

> <ROCS_ColorScore>
-2.733

> <ROCS_Overlap>
948.214

> <ROCS_Rank>
466                 

$$$$
untitled-dbase-10256_115
  -OEChem-10092318153D

 35 35  0     1  0  0  0  0  0999 V2000
   -8.2814   -0.3951  -14.6486 C   0  0  0  0  0  0  0  0  0  0  0  0
   -8.7974   -0.5906  -18.2576 C   0  0  0  0  0  0  0  0  0  0  0  0
   -7.8332   -0.3822  -17.0881 C   0  0  0  0  0  0  0  0  0  0  0  0
   -8.6379   -2.4836  -16.0236 C   0  0  0  0  0  0  0  0  0  0  0  0
   -9.1248   -2.0710  -18.4905 C   0  0  2  0  0  0  0  0  0  0  0  0
   -9.6191   -2.6973  -17.1761 C   0  0  1  0  0  0  0  0  0  0  0  0
   -9.5534    1.3047  -12.7291 C   0  0  0  0  0  0  0  0  0  0  0  0
  -10.4818   -0.8118  -11.7453 C   0  0  0  0  0  0  0  0  0  0  0  0
   -7.9983   -0.4398  -11.7946 C   0  0  0  0  0  0  0  0  0  0  0  0
   -9.3206   -0.1908  -12.5188 C   0  0  0  0  0  0  0  0  0  0  0  0
   -8.2930   -1.0653  -15.8770 N   0  0  0  0  0  0  0  0  0  0  0  0
   -7.9404   -2.7712  -18.9974 N   0  0  0  0  0  0  0  0  0  0  0  0
   -7.4799    0.4882  -14.3487 O   0  0  0  0  0  0  0  0  0  0  0  0
   -9.8529   -4.0931  -17.3368 O   0  0  0  0  0  0  0  0  0  0  0  0
   -9.2659   -0.8281  -13.8002 O   0  0  0  0  0  0  0  0  0  0  0  0
   -9.7249   -0.0262  -18.0608 H   0  0  0  0  0  0  0  0  0  0  0  0
   -8.3596   -0.1443  -19.1682 H   0  0  0  0  0  0  0  0  0  0  0  0
   -6.8312   -0.7135  -17.3814 H   0  0  0  0  0  0  0  0  0  0  0  0
   -7.7592    0.6863  -16.8451 H   0  0  0  0  0  0  0  0  0  0  0  0
   -9.0839   -2.8043  -15.0762 H   0  0  0  0  0  0  0  0  0  0  0  0
   -7.7307   -3.0721  -16.1882 H   0  0  0  0  0  0  0  0  0  0  0  0
   -9.9176   -2.1415  -19.2328 H   0  0  0  0  0  0  0  0  0  0  0  0
  -10.5982   -2.2448  -16.8975 H   0  0  0  0  0  0  0  0  0  0  0  0
   -8.7221    1.7542  -13.2839 H   0  0  0  0  0  0  0  0  0  0  0  0
  -10.4813    1.4952  -13.2781 H   0  0  0  0  0  0  0  0  0  0  0  0
   -9.6049    1.8312  -11.7692 H   0  0  0  0  0  0  0  0  0  0  0  0
  -10.3190   -1.8848  -11.5921 H   0  0  0  0  0  0  0  0  0  0  0  0
  -11.4186   -0.7188  -12.3064 H   0  0  0  0  0  0  0  0  0  0  0  0
  -10.6149   -0.3382  -10.7672 H   0  0  0  0  0  0  0  0  0  0  0  0
   -7.8312   -1.5125  -11.6437 H   0  0  0  0  0  0  0  0  0  0  0  0
   -7.1495   -0.0331  -12.3538 H   0  0  0  0  0  0  0  0  0  0  0  0
   -8.0085    0.0149  -10.7975 H   0  0  0  0  0  0  0  0  0  0  0  0
   -8.1856   -3.7195  -19.1546 H   0  0  0  0  0  0  0  0  0  0  0  0
   -7.6626   -2.3346  -19.8438 H   0  0  0  0  0  0  0  0  0  0  0  0
   -8.9924   -4.4941  -17.5314 H   0  0  0  0  0  0  0  0  0  0  0  0
  1 11  1  0  0  0  0
  1 13  2  0  0  0  0
  1 15  1  0  0  0  0
  2  3  1  0  0  0  0
  2  5  1  0  0  0  0
  3 11  1  0  0  0  0
  4  6  1  0  0  0  0
  4 11  1  0  0  0  0
  5  6  1  0  0  0  0
  5 12  1  1  0  0  0
  6 14  1  1  0  0  0
  7 10  1  0  0  0  0
  8 10  1  0  0  0  0
  9 10  1  0  0  0  0
 10 15  1  0  0  0  0
  2 16  1  0  0  0  0
  2 17  1  0  0  0  0
  3 18  1  0  0  0  0
  3 19  1  0  0  0  0
  4 20  1  0  0  0  0
  4 21  1  0  0  0  0
  5 22  1  0  0  0  0
  6 23  1  0  0  0  0
  7 24  1  0  0  0  0
  7 25  1  0  0  0  0
  7 26  1  0  0  0  0
  8 27  1  0  0  0  0
  8 28  1  0  0  0  0
  8 29  1  0  0  0  0
  9 30  1  0  0  0  0
  9 31  1  0  0  0  0
  9 32  1  0  0  0  0
 12 33  1  0  0  0  0
 12 34  1  0  0  0  0
 14 35  1  0  0  0  0
M  END
> <id>
EN300-344853

> <smiles>
CC(C)(C)OC(=O)N1CC[C@@H](N)[C@@H](O)C1 |&1:10,12,r|

> <MDLNUMBER>
MFCD20922915

> <IUPAC Name>
rac-tert-butyl (3R,4S)-4-amino-3-hydroxypiperidine-1-carboxylate

> <CAS>
1331777-74-2

> <URL>
https://www.enaminestore.com/catalog/EN300-344853

> <ROCS_ShapeQuery>
amalgated

> <ROCS_TanimotoCombo>
0.813 

> <ROCS_ShapeTanimoto>
0.543 

> <ROCS_ColorTanimoto>
0.271 

> <ROCS_RefTversky>
0.501 

> <ROCS_RefColorTversky>
0.426 

> <ROCS_RefTverskyCombo>
0.926 

> <ROCS_FitTversky>
1.183 

> <ROCS_FitColorTversky>
0.426 

> <ROCS_FitTverskyCombo>
1.609 

> <ROCS_ColorScore>
-2.981

> <ROCS_Overlap>
819.672

> <ROCS_Rank>
467                 

$$$$
untitled-dbase-37811_0
  -OEChem-10092318153D

 34 36  0     1  0  0  0  0  0999 V2000
   -7.2407    0.9945  -16.4685 C   0  0  0  0  0  0  0  0  0  0  0  0
   -7.0775    1.5249  -18.8137 C   0  0  0  0  0  0  0  0  0  0  0  0
   -7.9079   -0.2172  -16.7436 C   0  0  0  0  0  0  0  0  0  0  0  0
   -8.1801   -0.5296  -18.0959 C   0  0  0  0  0  0  0  0  0  0  0  0
   -6.8244    1.8508  -17.4892 C   0  0  0  0  0  0  0  0  0  0  0  0
   -7.7529    0.3461  -19.1146 C   0  0  0  0  0  0  0  0  0  0  0  0
   -8.0347   -1.0574  -13.1620 C   0  0  0  0  0  0  0  0  0  0  0  0
   -9.0311    0.0303  -13.5092 C   0  0  0  0  0  0  0  0  0  0  0  0
   -9.7126   -2.3883  -17.3518 C   0  0  0  0  0  0  0  0  0  0  0  0
   -7.3239   -1.3335  -14.4816 C   0  0  0  0  0  0  0  0  0  0  0  0
   -9.5788   -0.4133  -14.8600 C   0  0  0  0  0  0  0  0  0  0  0  0
   -8.8424   -2.5050  -16.1070 C   0  0  0  0  0  0  0  0  0  0  0  0
   -8.9093   -1.7926  -18.5114 C   0  0  2  0  0  0  0  0  0  0  0  0
   -8.3939   -1.1129  -15.5944 C   0  0  0  0  0  0  0  0  0  0  0  0
   -7.9643   -2.7879  -19.0325 N   0  0  0  0  0  0  0  0  0  0  0  0
   -6.1886    2.9904  -17.1883 F   0  0  0  0  0  0  0  0  0  0  0  0
   -7.9978    0.0523  -20.4007 F   0  0  0  0  0  0  0  0  0  0  0  0
   -7.0427    1.3003  -15.4448 H   0  0  0  0  0  0  0  0  0  0  0  0
   -6.7571    2.1886  -19.6108 H   0  0  0  0  0  0  0  0  0  0  0  0
   -7.3402   -0.7503  -12.3748 H   0  0  0  0  0  0  0  0  0  0  0  0
   -8.5592   -1.9582  -12.8215 H   0  0  0  0  0  0  0  0  0  0  0  0
   -9.8195    0.1249  -12.7568 H   0  0  0  0  0  0  0  0  0  0  0  0
   -8.5284    0.9997  -13.5954 H   0  0  0  0  0  0  0  0  0  0  0  0
  -10.1091   -3.3744  -17.6244 H   0  0  0  0  0  0  0  0  0  0  0  0
  -10.5843   -1.7559  -17.1407 H   0  0  0  0  0  0  0  0  0  0  0  0
   -6.4667   -0.6589  -14.5767 H   0  0  0  0  0  0  0  0  0  0  0  0
   -6.9064   -2.3468  -14.4842 H   0  0  0  0  0  0  0  0  0  0  0  0
  -10.4022   -1.1168  -14.6827 H   0  0  0  0  0  0  0  0  0  0  0  0
  -10.0023    0.4337  -15.4113 H   0  0  0  0  0  0  0  0  0  0  0  0
   -9.3900   -3.0445  -15.3240 H   0  0  0  0  0  0  0  0  0  0  0  0
   -7.9649   -3.1230  -16.3396 H   0  0  0  0  0  0  0  0  0  0  0  0
   -9.6223   -1.5468  -19.3086 H   0  0  0  0  0  0  0  0  0  0  0  0
   -8.4835   -3.5871  -19.3013 H   0  0  0  0  0  0  0  0  0  0  0  0
   -7.5002   -2.3866  -19.8096 H   0  0  0  0  0  0  0  0  0  0  0  0
  1  3  2  0  0  0  0
  1  5  1  0  0  0  0
  2  5  2  0  0  0  0
  2  6  1  0  0  0  0
  3  4  1  0  0  0  0
  3 14  1  0  0  0  0
  4  6  2  0  0  0  0
  4 13  1  0  0  0  0
  5 16  1  0  0  0  0
  6 17  1  0  0  0  0
  7  8  1  0  0  0  0
  7 10  1  0  0  0  0
  8 11  1  0  0  0  0
  9 12  1  0  0  0  0
  9 13  1  0  0  0  0
 10 14  1  0  0  0  0
 11 14  1  0  0  0  0
 12 14  1  0  0  0  0
 13 15  1  0  0  0  0
  1 18  1  0  0  0  0
  2 19  1  0  0  0  0
  7 20  1  0  0  0  0
  7 21  1  0  0  0  0
  8 22  1  0  0  0  0
  8 23  1  0  0  0  0
  9 24  1  0  0  0  0
  9 25  1  0  0  0  0
 10 26  1  0  0  0  0
 10 27  1  0  0  0  0
 11 28  1  0  0  0  0
 11 29  1  0  0  0  0
 12 30  1  0  0  0  0
 12 31  1  0  0  0  0
 13 32  1  0  0  0  0
 15 33  1  0  0  0  0
 15 34  1  0  0  0  0
M  END
> <id>
EN300-1458069

> <smiles>
NC1CCC2(CCCC2)C=3C=C(F)C=C(F)C13

> <IUPAC Name>
5',7'-difluoro-3',4'-dihydro-2'H-spiro[cyclopentane-1,1'-naphthalene]-4'-amine

> <CAS>
2172508-22-2

> <URL>
https://www.enaminestore.com/catalog/EN300-1458069

> <ROCS_ShapeQuery>
amalgated

> <ROCS_TanimotoCombo>
0.813 

> <ROCS_ShapeTanimoto>
0.477 

> <ROCS_ColorTanimoto>
0.336 

> <ROCS_RefTversky>
0.482 

> <ROCS_RefColorTversky>
0.438 

> <ROCS_RefTverskyCombo>
0.919 

> <ROCS_FitTversky>
0.980 

> <ROCS_FitColorTversky>
0.591 

> <ROCS_FitTverskyCombo>
1.572 

> <ROCS_ColorScore>
-3.019

> <ROCS_Overlap>
791.662

> <ROCS_Rank>
468                 

$$$$
untitled-dbase-45679_85
  -OEChem-10092318153D

 41 43  0     0  0  0  0  0  0999 V2000
   -8.8534   -1.5374  -18.5507 C   0  0  0  0  0  0  0  0  0  0  0  0
   -8.9508   -2.7951  -17.9680 C   0  0  0  0  0  0  0  0  0  0  0  0
   -8.4758   -1.8147  -15.8038 C   0  0  0  0  0  0  0  0  0  0  0  0
   -8.4306   -0.5285  -16.3585 C   0  0  0  0  0  0  0  0  0  0  0  0
   -8.5673   -0.4287  -17.7511 C   0  0  0  0  0  0  0  0  0  0  0  0
   -8.7447   -2.9355  -16.5991 C   0  0  0  0  0  0  0  0  0  0  0  0
   -8.2690    0.7606  -14.1803 C   0  0  0  0  0  0  0  0  0  0  0  0
   -5.9208    2.2573  -19.0700 C   0  0  0  0  0  0  0  0  0  0  0  0
   -7.1618    2.9677  -18.5011 C   0  0  0  0  0  0  0  0  0  0  0  0
   -5.9590    1.3281  -17.8439 C   0  0  0  0  0  0  0  0  0  0  0  0
   -7.9879    1.9244  -16.3070 C   0  0  0  0  0  0  0  0  0  0  0  0
   -7.4796    1.6623  -17.7117 C   0  0  0  0  0  0  0  0  0  0  0  0
  -10.6120    0.3677  -12.6045 C   0  0  0  0  0  0  0  0  0  0  0  0
   -9.4212   -1.6294  -11.6544 C   0  0  0  0  0  0  0  0  0  0  0  0
   -8.4619    0.6692  -11.3313 C   0  0  0  0  0  0  0  0  0  0  0  0
   -9.2515   -0.2421  -12.2699 C   0  0  0  0  0  0  0  0  0  0  0  0
   -8.2009    0.6619  -15.5877 N   0  0  0  0  0  0  0  0  0  0  0  0
   -8.1610    1.8205  -13.5624 O   0  0  0  0  0  0  0  0  0  0  0  0
   -8.3885    0.7685  -18.3977 O   0  0  0  0  0  0  0  0  0  0  0  0
   -8.5080   -0.3975  -13.4889 O   0  0  0  0  0  0  0  0  0  0  0  0
   -8.8469   -4.6508  -15.8074 Br  0  0  0  0  0  0  0  0  0  0  0  0
   -8.9919   -1.4267  -19.6210 H   0  0  0  0  0  0  0  0  0  0  0  0
   -9.1916   -3.6522  -18.5911 H   0  0  0  0  0  0  0  0  0  0  0  0
   -8.3448   -1.9792  -14.7402 H   0  0  0  0  0  0  0  0  0  0  0  0
   -6.0568    1.7694  -20.0374 H   0  0  0  0  0  0  0  0  0  0  0  0
   -5.0302    2.8924  -19.1135 H   0  0  0  0  0  0  0  0  0  0  0  0
   -6.9536    3.8585  -17.9057 H   0  0  0  0  0  0  0  0  0  0  0  0
   -7.9092    3.2180  -19.2603 H   0  0  0  0  0  0  0  0  0  0  0  0
   -5.7570    0.2797  -18.0820 H   0  0  0  0  0  0  0  0  0  0  0  0
   -5.3174    1.6324  -17.0158 H   0  0  0  0  0  0  0  0  0  0  0  0
   -7.2853    2.5780  -15.7552 H   0  0  0  0  0  0  0  0  0  0  0  0
   -8.9556    2.4665  -16.3224 H   0  0  0  0  0  0  0  0  0  0  0  0
  -10.4945    1.3636  -13.0465 H   0  0  0  0  0  0  0  0  0  0  0  0
  -11.1739   -0.2593  -13.3044 H   0  0  0  0  0  0  0  0  0  0  0  0
  -11.2144    0.5007  -11.6986 H   0  0  0  0  0  0  0  0  0  0  0  0
   -8.4475   -2.0707  -11.4127 H   0  0  0  0  0  0  0  0  0  0  0  0
   -9.9033   -2.3139  -12.3617 H   0  0  0  0  0  0  0  0  0  0  0  0
  -10.0227   -1.5950  -10.7403 H   0  0  0  0  0  0  0  0  0  0  0  0
   -7.4860    0.2320  -11.0911 H   0  0  0  0  0  0  0  0  0  0  0  0
   -8.2986    1.6580  -11.7722 H   0  0  0  0  0  0  0  0  0  0  0  0
   -8.9872    0.7956  -10.3777 H   0  0  0  0  0  0  0  0  0  0  0  0
  1  2  1  0  0  0  0
  1  5  2  0  0  0  0
  2  6  2  0  0  0  0
  3  4  2  0  0  0  0
  3  6  1  0  0  0  0
  4  5  1  0  0  0  0
  4 17  1  0  0  0  0
  5 19  1  0  0  0  0
  6 21  1  0  0  0  0
  7 17  1  0  0  0  0
  7 18  2  0  0  0  0
  7 20  1  0  0  0  0
  8  9  1  0  0  0  0
  8 10  1  0  0  0  0
  9 12  1  0  0  0  0
 10 12  1  0  0  0  0
 11 12  1  0  0  0  0
 11 17  1  0  0  0  0
 12 19  1  0  0  0  0
 13 16  1  0  0  0  0
 14 16  1  0  0  0  0
 15 16  1  0  0  0  0
 16 20  1  0  0  0  0
  1 22  1  0  0  0  0
  2 23  1  0  0  0  0
  3 24  1  0  0  0  0
  8 25  1  0  0  0  0
  8 26  1  0  0  0  0
  9 27  1  0  0  0  0
  9 28  1  0  0  0  0
 10 29  1  0  0  0  0
 10 30  1  0  0  0  0
 11 31  1  0  0  0  0
 11 32  1  0  0  0  0
 13 33  1  0  0  0  0
 13 34  1  0  0  0  0
 13 35  1  0  0  0  0
 14 36  1  0  0  0  0
 14 37  1  0  0  0  0
 14 38  1  0  0  0  0
 15 39  1  0  0  0  0
 15 40  1  0  0  0  0
 15 41  1  0  0  0  0
M  END
> <id>
EN300-28298988

> <smiles>
CC(C)(C)OC(=O)N1CC2(CCC2)OC=3C=CC(Br)=CC13

> <IUPAC Name>
tert-butyl 6-bromo-3,4-dihydrospiro[1,4-benzoxazine-2,1'-cyclobutane]-4-carboxylate

> <CAS>
2680795-22-4

> <URL>
https://www.enaminestore.com/catalog/EN300-28298988

> <ROCS_ShapeQuery>
amalgated

> <ROCS_TanimotoCombo>
0.813 

> <ROCS_ShapeTanimoto>
0.647 

> <ROCS_ColorTanimoto>
0.166 

> <ROCS_RefTversky>
0.625 

> <ROCS_RefColorTversky>
0.285 

> <ROCS_RefTverskyCombo>
0.911 

> <ROCS_FitTversky>
1.055 

> <ROCS_FitColorTversky>
0.285 

> <ROCS_FitTverskyCombo>
1.340 

> <ROCS_ColorScore>
-1.998

> <ROCS_Overlap>
1033.734

> <ROCS_Rank>
469                 

$$$$
untitled-dbase-11418_7
  -OEChem-10092318153D

 39 40  0     1  0  0  0  0  0999 V2000
   -8.6765   -0.4471  -13.4069 C   0  0  0  0  0  0  0  0  0  0  0  0
   -9.4376   -1.9881  -17.0321 C   0  0  0  0  0  0  0  0  0  0  0  0
   -9.3221   -2.9580  -18.2055 C   0  0  0  0  0  0  0  0  0  0  0  0
   -8.8410    0.9596  -15.4794 C   0  0  0  0  0  0  0  0  0  0  0  0
   -7.1661   -2.1888  -17.7881 C   0  0  0  0  0  0  0  0  0  0  0  0
   -7.5523   -1.1582  -15.5060 C   0  0  0  0  0  0  0  0  0  0  0  0
   -8.0805    1.1290  -16.7843 C   0  0  0  0  0  0  0  0  0  0  0  0
   -8.0699   -1.2923  -16.9425 C   0  0  2  0  0  0  0  0  0  0  0  0
   -8.5637    0.3362  -10.6582 C   0  0  0  0  0  0  0  0  0  0  0  0
  -10.6970    1.5806  -11.1161 C   0  0  0  0  0  0  0  0  0  0  0  0
  -10.6292   -0.9181  -11.3619 C   0  0  0  0  0  0  0  0  0  0  0  0
   -9.8359    0.3803  -11.5033 C   0  0  0  0  0  0  0  0  0  0  0  0
   -8.0575   -2.6351  -18.8590 N   0  0  0  0  0  0  0  0  0  0  0  0
   -8.3690   -0.2145  -14.7478 N   0  0  0  0  0  0  0  0  0  0  0  0
   -8.2945   -1.4240  -12.7660 O   0  0  0  0  0  0  0  0  0  0  0  0
   -8.1691   -0.0243  -17.6177 O   0  0  0  0  0  0  0  0  0  0  0  0
   -9.4651    0.5407  -12.8772 O   0  0  0  0  0  0  0  0  0  0  0  0
  -10.2690   -1.2876  -17.1864 H   0  0  0  0  0  0  0  0  0  0  0  0
   -9.6514   -2.5655  -16.1202 H   0  0  0  0  0  0  0  0  0  0  0  0
   -9.3509   -4.0113  -17.8706 H   0  0  0  0  0  0  0  0  0  0  0  0
  -10.1638   -2.8260  -18.9125 H   0  0  0  0  0  0  0  0  0  0  0  0
   -8.7611    1.8656  -14.8648 H   0  0  0  0  0  0  0  0  0  0  0  0
   -9.9081    0.7889  -15.6822 H   0  0  0  0  0  0  0  0  0  0  0  0
   -6.3337   -1.6400  -18.2267 H   0  0  0  0  0  0  0  0  0  0  0  0
   -6.7701   -3.0422  -17.2427 H   0  0  0  0  0  0  0  0  0  0  0  0
   -7.6411   -2.1183  -14.9804 H   0  0  0  0  0  0  0  0  0  0  0  0
   -6.4945   -0.8759  -15.4950 H   0  0  0  0  0  0  0  0  0  0  0  0
   -8.5017    1.9746  -17.3484 H   0  0  0  0  0  0  0  0  0  0  0  0
   -7.0240    1.3778  -16.5963 H   0  0  0  0  0  0  0  0  0  0  0  0
   -7.9428   -0.5240  -10.9331 H   0  0  0  0  0  0  0  0  0  0  0  0
   -7.9682    1.2472  -10.7778 H   0  0  0  0  0  0  0  0  0  0  0  0
   -8.8041    0.2169   -9.5956 H   0  0  0  0  0  0  0  0  0  0  0  0
  -11.6110    1.6161  -11.7199 H   0  0  0  0  0  0  0  0  0  0  0  0
  -10.1651    2.5199  -11.3056 H   0  0  0  0  0  0  0  0  0  0  0  0
  -10.9808    1.5500  -10.0591 H   0  0  0  0  0  0  0  0  0  0  0  0
  -11.5418   -0.8867  -11.9680 H   0  0  0  0  0  0  0  0  0  0  0  0
  -10.0390   -1.7869  -11.6707 H   0  0  0  0  0  0  0  0  0  0  0  0
  -10.9516   -1.0667  -10.3250 H   0  0  0  0  0  0  0  0  0  0  0  0
   -7.6735   -3.4909  -19.2672 H   0  0  0  0  0  0  0  0  0  0  0  0
  1 14  1  0  0  0  0
  1 15  2  0  0  0  0
  1 17  1  0  0  0  0
  2  3  1  0  0  0  0
  2  8  1  0  0  0  0
  3 13  1  0  0  0  0
  4  7  1  0  0  0  0
  4 14  1  0  0  0  0
  5  8  1  0  0  0  0
  5 13  1  0  0  0  0
  6  8  1  0  0  0  0
  6 14  1  0  0  0  0
  7 16  1  0  0  0  0
  8 16  1  0  0  0  0
  9 12  1  0  0  0  0
 10 12  1  0  0  0  0
 11 12  1  0  0  0  0
 12 17  1  0  0  0  0
  2 18  1  0  0  0  0
  2 19  1  0  0  0  0
  3 20  1  0  0  0  0
  3 21  1  0  0  0  0
  4 22  1  0  0  0  0
  4 23  1  0  0  0  0
  5 24  1  0  0  0  0
  5 25  1  0  0  0  0
  6 26  1  0  0  0  0
  6 27  1  0  0  0  0
  7 28  1  0  0  0  0
  7 29  1  0  0  0  0
  9 30  1  0  0  0  0
  9 31  1  0  0  0  0
  9 32  1  0  0  0  0
 10 33  1  0  0  0  0
 10 34  1  0  0  0  0
 10 35  1  0  0  0  0
 11 36  1  0  0  0  0
 11 37  1  0  0  0  0
 11 38  1  0  0  0  0
 13 39  1  0  0  0  0
M  END
> <id>
EN300-395780

> <smiles>
CC(C)(C)OC(=O)N1CCOC2(CCNC2)C1

> <MDLNUMBER>
MFCD18792931

> <IUPAC Name>
tert-butyl 6-oxa-2,9-diazaspiro[4.5]decane-9-carboxylate

> <CAS>
637039-01-1

> <Purity>
95

> <URL>
https://www.enaminestore.com/catalog/EN300-395780

> <ROCS_ShapeQuery>
amalgated

> <ROCS_TanimotoCombo>
0.813 

> <ROCS_ShapeTanimoto>
0.603 

> <ROCS_ColorTanimoto>
0.210 

> <ROCS_RefTversky>
0.559 

> <ROCS_RefColorTversky>
0.347 

> <ROCS_RefTverskyCombo>
0.906 

> <ROCS_FitTversky>
1.151 

> <ROCS_FitColorTversky>
0.347 

> <ROCS_FitTverskyCombo>
1.498 

> <ROCS_ColorScore>
-2.430

> <ROCS_Overlap>
918.250

> <ROCS_Rank>
470                 

$$$$
untitled-dbase-25560_31
  -OEChem-10092318153D

 42 43  0     1  0  0  0  0  0999 V2000
   -8.4523    0.4100  -15.2683 C   0  0  0  0  0  0  0  0  0  0  0  0
   -6.0094    1.2434  -17.1735 C   0  0  0  0  0  0  0  0  0  0  0  0
   -8.2558    1.7900  -18.1932 C   0  0  0  0  0  0  0  0  0  0  0  0
   -7.1348   -0.4522  -18.6678 C   0  0  0  0  0  0  0  0  0  0  0  0
   -8.3816   -1.4384  -16.9075 C   0  0  0  0  0  0  0  0  0  0  0  0
   -5.3104    1.9633  -18.3318 C   0  0  0  0  0  0  0  0  0  0  0  0
   -7.4289    2.9672  -18.7140 C   0  0  0  0  0  0  0  0  0  0  0  0
   -8.2811   -1.4321  -18.4230 C   0  0  2  0  0  0  0  0  0  0  0  0
   -7.3681    0.6644  -17.6061 C   0  0  0  0  0  0  0  0  0  0  0  0
   -9.4690    0.9385  -12.6466 C   0  0  0  0  0  0  0  0  0  0  0  0
   -9.7462   -1.5507  -12.4560 C   0  0  0  0  0  0  0  0  0  0  0  0
   -7.4557   -0.5672  -12.7636 C   0  0  0  0  0  0  0  0  0  0  0  0
   -8.9400   -0.4226  -13.0962 C   0  0  0  0  0  0  0  0  0  0  0  0
   -8.0710   -0.0676  -16.5188 N   0  0  0  0  0  0  0  0  0  0  0  0
   -8.0224   -2.7495  -18.9755 N   0  0  0  0  0  0  0  0  0  0  0  0
   -8.2246    1.5523  -14.8733 O   0  0  0  0  0  0  0  0  0  0  0  0
   -6.2148    2.5075  -19.2946 O   0  0  0  0  0  0  0  0  0  0  0  0
   -9.1017   -0.5283  -14.5151 O   0  0  0  0  0  0  0  0  0  0  0  0
   -5.3517    0.4620  -16.7723 H   0  0  0  0  0  0  0  0  0  0  0  0
   -6.1521    1.9827  -16.3761 H   0  0  0  0  0  0  0  0  0  0  0  0
   -8.9132    2.1773  -17.4052 H   0  0  0  0  0  0  0  0  0  0  0  0
   -8.9020    1.4118  -18.9935 H   0  0  0  0  0  0  0  0  0  0  0  0
   -6.1722   -0.9512  -18.4944 H   0  0  0  0  0  0  0  0  0  0  0  0
   -7.1371   -0.0896  -19.6994 H   0  0  0  0  0  0  0  0  0  0  0  0
   -9.3733   -1.7400  -16.5543 H   0  0  0  0  0  0  0  0  0  0  0  0
   -7.6301   -2.0862  -16.4391 H   0  0  0  0  0  0  0  0  0  0  0  0
   -4.7115    2.8038  -17.9323 H   0  0  0  0  0  0  0  0  0  0  0  0
   -4.5864    1.2986  -18.8455 H   0  0  0  0  0  0  0  0  0  0  0  0
   -7.9816    3.5647  -19.4434 H   0  0  0  0  0  0  0  0  0  0  0  0
   -7.1711    3.6267  -17.8815 H   0  0  0  0  0  0  0  0  0  0  0  0
   -9.2065   -1.0338  -18.8546 H   0  0  0  0  0  0  0  0  0  0  0  0
   -8.8929    1.7509  -13.1039 H   0  0  0  0  0  0  0  0  0  0  0  0
  -10.5236    1.0687  -12.9105 H   0  0  0  0  0  0  0  0  0  0  0  0
   -9.3662    1.0592  -11.5621 H   0  0  0  0  0  0  0  0  0  0  0  0
   -9.3700   -2.5291  -12.7759 H   0  0  0  0  0  0  0  0  0  0  0  0
  -10.7957   -1.5063  -12.7685 H   0  0  0  0  0  0  0  0  0  0  0  0
   -9.7076   -1.5048  -11.3629 H   0  0  0  0  0  0  0  0  0  0  0  0
   -7.0759   -1.5435  -13.0860 H   0  0  0  0  0  0  0  0  0  0  0  0
   -6.8567    0.2126  -13.2449 H   0  0  0  0  0  0  0  0  0  0  0  0
   -7.2919   -0.5139  -11.6812 H   0  0  0  0  0  0  0  0  0  0  0  0
   -8.7867   -3.3456  -18.7501 H   0  0  0  0  0  0  0  0  0  0  0  0
   -7.9286   -2.6678  -19.9628 H   0  0  0  0  0  0  0  0  0  0  0  0
  1 14  1  0  0  0  0
  1 16  2  0  0  0  0
  1 18  1  0  0  0  0
  2  6  1  0  0  0  0
  2  9  1  0  0  0  0
  3  7  1  0  0  0  0
  3  9  1  0  0  0  0
  4  8  1  0  0  0  0
  4  9  1  0  0  0  0
  5  8  1  0  0  0  0
  5 14  1  0  0  0  0
  6 17  1  0  0  0  0
  7 17  1  0  0  0  0
  8 15  1  0  0  0  0
  9 14  1  0  0  0  0
 10 13  1  0  0  0  0
 11 13  1  0  0  0  0
 12 13  1  0  0  0  0
 13 18  1  0  0  0  0
  2 19  1  0  0  0  0
  2 20  1  0  0  0  0
  3 21  1  0  0  0  0
  3 22  1  0  0  0  0
  4 23  1  0  0  0  0
  4 24  1  0  0  0  0
  5 25  1  0  0  0  0
  5 26  1  0  0  0  0
  6 27  1  0  0  0  0
  6 28  1  0  0  0  0
  7 29  1  0  0  0  0
  7 30  1  0  0  0  0
  8 31  1  0  0  0  0
 10 32  1  0  0  0  0
 10 33  1  0  0  0  0
 10 34  1  0  0  0  0
 11 35  1  0  0  0  0
 11 36  1  0  0  0  0
 11 37  1  0  0  0  0
 12 38  1  0  0  0  0
 12 39  1  0  0  0  0
 12 40  1  0  0  0  0
 15 41  1  0  0  0  0
 15 42  1  0  0  0  0
M  END
> <id>
EN300-6504621

> <smiles>
Cl.CC(C)(C)OC(=O)N1CC(N)CC21CCOCC2

> <MDLNUMBER>
MFCD31719916

> <IUPAC Name>
tert-butyl 3-amino-8-oxa-1-azaspiro[4.5]decane-1-carboxylate hydrochloride

> <CAS>
2253639-36-8

> <Purity>
95

> <URL>
https://www.enaminestore.com/catalog/EN300-6504621

> <Saltdate>
Cl

> <ROCS_ShapeQuery>
amalgated

> <ROCS_TanimotoCombo>
0.813 

> <ROCS_ShapeTanimoto>
0.528 

> <ROCS_ColorTanimoto>
0.285 

> <ROCS_RefTversky>
0.521 

> <ROCS_RefColorTversky>
0.443 

> <ROCS_RefTverskyCombo>
0.964 

> <ROCS_FitTversky>
1.028 

> <ROCS_FitColorTversky>
0.443 

> <ROCS_FitTverskyCombo>
1.471 

> <ROCS_ColorScore>
-3.104

> <ROCS_Overlap>
856.288

> <ROCS_Rank>
471                 

$$$$
untitled-dbase-27275_31
  -OEChem-10092318153D

 42 43  0     1  0  0  0  0  0999 V2000
   -8.4523    0.4100  -15.2683 C   0  0  0  0  0  0  0  0  0  0  0  0
   -6.0094    1.2434  -17.1735 C   0  0  0  0  0  0  0  0  0  0  0  0
   -8.2558    1.7900  -18.1932 C   0  0  0  0  0  0  0  0  0  0  0  0
   -7.1348   -0.4522  -18.6678 C   0  0  0  0  0  0  0  0  0  0  0  0
   -8.3816   -1.4384  -16.9075 C   0  0  0  0  0  0  0  0  0  0  0  0
   -5.3104    1.9633  -18.3318 C   0  0  0  0  0  0  0  0  0  0  0  0
   -7.4289    2.9672  -18.7140 C   0  0  0  0  0  0  0  0  0  0  0  0
   -8.2811   -1.4321  -18.4230 C   0  0  2  0  0  0  0  0  0  0  0  0
   -7.3681    0.6644  -17.6061 C   0  0  0  0  0  0  0  0  0  0  0  0
   -9.4690    0.9385  -12.6466 C   0  0  0  0  0  0  0  0  0  0  0  0
   -9.7462   -1.5507  -12.4560 C   0  0  0  0  0  0  0  0  0  0  0  0
   -7.4557   -0.5672  -12.7636 C   0  0  0  0  0  0  0  0  0  0  0  0
   -8.9400   -0.4226  -13.0962 C   0  0  0  0  0  0  0  0  0  0  0  0
   -8.0710   -0.0676  -16.5188 N   0  0  0  0  0  0  0  0  0  0  0  0
   -8.0224   -2.7495  -18.9755 N   0  0  0  0  0  0  0  0  0  0  0  0
   -8.2246    1.5523  -14.8733 O   0  0  0  0  0  0  0  0  0  0  0  0
   -6.2148    2.5075  -19.2946 O   0  0  0  0  0  0  0  0  0  0  0  0
   -9.1017   -0.5283  -14.5151 O   0  0  0  0  0  0  0  0  0  0  0  0
   -5.3517    0.4620  -16.7723 H   0  0  0  0  0  0  0  0  0  0  0  0
   -6.1521    1.9827  -16.3761 H   0  0  0  0  0  0  0  0  0  0  0  0
   -8.9132    2.1773  -17.4052 H   0  0  0  0  0  0  0  0  0  0  0  0
   -8.9020    1.4118  -18.9935 H   0  0  0  0  0  0  0  0  0  0  0  0
   -6.1722   -0.9512  -18.4944 H   0  0  0  0  0  0  0  0  0  0  0  0
   -7.1371   -0.0896  -19.6994 H   0  0  0  0  0  0  0  0  0  0  0  0
   -9.3733   -1.7400  -16.5543 H   0  0  0  0  0  0  0  0  0  0  0  0
   -7.6301   -2.0862  -16.4391 H   0  0  0  0  0  0  0  0  0  0  0  0
   -4.7115    2.8038  -17.9323 H   0  0  0  0  0  0  0  0  0  0  0  0
   -4.5864    1.2986  -18.8455 H   0  0  0  0  0  0  0  0  0  0  0  0
   -7.9816    3.5647  -19.4434 H   0  0  0  0  0  0  0  0  0  0  0  0
   -7.1711    3.6267  -17.8815 H   0  0  0  0  0  0  0  0  0  0  0  0
   -9.2065   -1.0338  -18.8546 H   0  0  0  0  0  0  0  0  0  0  0  0
   -8.8929    1.7509  -13.1039 H   0  0  0  0  0  0  0  0  0  0  0  0
  -10.5236    1.0687  -12.9105 H   0  0  0  0  0  0  0  0  0  0  0  0
   -9.3662    1.0592  -11.5621 H   0  0  0  0  0  0  0  0  0  0  0  0
   -9.3700   -2.5291  -12.7759 H   0  0  0  0  0  0  0  0  0  0  0  0
  -10.7957   -1.5063  -12.7685 H   0  0  0  0  0  0  0  0  0  0  0  0
   -9.7076   -1.5048  -11.3629 H   0  0  0  0  0  0  0  0  0  0  0  0
   -7.0759   -1.5435  -13.0860 H   0  0  0  0  0  0  0  0  0  0  0  0
   -6.8567    0.2126  -13.2449 H   0  0  0  0  0  0  0  0  0  0  0  0
   -7.2919   -0.5139  -11.6812 H   0  0  0  0  0  0  0  0  0  0  0  0
   -8.7867   -3.3456  -18.7501 H   0  0  0  0  0  0  0  0  0  0  0  0
   -7.9286   -2.6678  -19.9628 H   0  0  0  0  0  0  0  0  0  0  0  0
  1 14  1  0  0  0  0
  1 16  2  0  0  0  0
  1 18  1  0  0  0  0
  2  6  1  0  0  0  0
  2  9  1  0  0  0  0
  3  7  1  0  0  0  0
  3  9  1  0  0  0  0
  4  8  1  0  0  0  0
  4  9  1  0  0  0  0
  5  8  1  0  0  0  0
  5 14  1  0  0  0  0
  6 17  1  0  0  0  0
  7 17  1  0  0  0  0
  8 15  1  0  0  0  0
  9 14  1  0  0  0  0
 10 13  1  0  0  0  0
 11 13  1  0  0  0  0
 12 13  1  0  0  0  0
 13 18  1  0  0  0  0
  2 19  1  0  0  0  0
  2 20  1  0  0  0  0
  3 21  1  0  0  0  0
  3 22  1  0  0  0  0
  4 23  1  0  0  0  0
  4 24  1  0  0  0  0
  5 25  1  0  0  0  0
  5 26  1  0  0  0  0
  6 27  1  0  0  0  0
  6 28  1  0  0  0  0
  7 29  1  0  0  0  0
  7 30  1  0  0  0  0
  8 31  1  0  0  0  0
 10 32  1  0  0  0  0
 10 33  1  0  0  0  0
 10 34  1  0  0  0  0
 11 35  1  0  0  0  0
 11 36  1  0  0  0  0
 11 37  1  0  0  0  0
 12 38  1  0  0  0  0
 12 39  1  0  0  0  0
 12 40  1  0  0  0  0
 15 41  1  0  0  0  0
 15 42  1  0  0  0  0
M  END
> <id>
EN300-6494929

> <smiles>
CC(C)(C)OC(=O)N1CC(N)CC21CCOCC2

> <MDLNUMBER>
MFCD31720054

> <IUPAC Name>
tert-butyl 3-amino-8-oxa-1-azaspiro[4.5]decane-1-carboxylate

> <CAS>
2253631-93-3

> <URL>
https://www.enaminestore.com/catalog/EN300-6494929

> <ROCS_ShapeQuery>
amalgated

> <ROCS_TanimotoCombo>
0.813 

> <ROCS_ShapeTanimoto>
0.528 

> <ROCS_ColorTanimoto>
0.285 

> <ROCS_RefTversky>
0.521 

> <ROCS_RefColorTversky>
0.443 

> <ROCS_RefTverskyCombo>
0.964 

> <ROCS_FitTversky>
1.028 

> <ROCS_FitColorTversky>
0.443 

> <ROCS_FitTverskyCombo>
1.471 

> <ROCS_ColorScore>
-3.104

> <ROCS_Overlap>
856.288

> <ROCS_Rank>
472                 

$$$$
untitled-dbase-34618_235
  -OEChem-10092318153D

 44 45  0     0  0  0  0  0  0999 V2000
   -8.6523    0.3433  -13.0940 C   0  0  0  0  0  0  0  0  0  0  0  0
   -9.9957   -2.7376  -17.3960 C   0  0  0  0  0  0  0  0  0  0  0  0
   -9.6973   -1.3286  -16.8844 C   0  0  0  0  0  0  0  0  0  0  0  0
   -7.9816    0.5293  -16.6512 C   0  0  0  0  0  0  0  0  0  0  0  0
   -7.3577   -1.8199  -15.9446 C   0  0  0  0  0  0  0  0  0  0  0  0
   -9.4047   -2.9576  -18.7860 C   0  0  0  0  0  0  0  0  0  0  0  0
   -7.4934    0.8310  -15.2319 C   0  0  0  0  0  0  0  0  0  0  0  0
   -7.7436   -1.5287  -14.4942 C   0  0  0  0  0  0  0  0  0  0  0  0
   -7.7068   -1.2795  -18.4044 C   0  0  0  0  0  0  0  0  0  0  0  0
   -8.1839   -0.9845  -16.9580 C   0  0  0  0  0  0  0  0  0  0  0  0
  -10.0583    0.7473  -10.6352 C   0  0  0  0  0  0  0  0  0  0  0  0
   -9.6053   -1.6830  -10.1904 C   0  0  0  0  0  0  0  0  0  0  0  0
   -7.6892   -0.0764  -10.4262 C   0  0  0  0  0  0  0  0  0  0  0  0
   -9.1049   -0.4198  -10.8876 C   0  0  0  0  0  0  0  0  0  0  0  0
   -7.9737   -2.6594  -18.8196 N   0  0  0  0  0  0  0  0  0  0  0  0
   -8.0175   -0.1115  -14.2532 N   0  0  0  0  0  0  0  0  0  0  0  0
   -8.8176    1.5278  -12.8097 O   0  0  0  0  0  0  0  0  0  0  0  0
   -9.0738   -0.6869  -12.2942 O   0  0  0  0  0  0  0  0  0  0  0  0
   -9.5965   -3.4824  -16.6984 H   0  0  0  0  0  0  0  0  0  0  0  0
  -11.0799   -2.8909  -17.4311 H   0  0  0  0  0  0  0  0  0  0  0  0
  -10.2627   -0.6119  -17.4934 H   0  0  0  0  0  0  0  0  0  0  0  0
  -10.0680   -1.2258  -15.8583 H   0  0  0  0  0  0  0  0  0  0  0  0
   -8.9347    1.0609  -16.8075 H   0  0  0  0  0  0  0  0  0  0  0  0
   -7.2744    0.9679  -17.3728 H   0  0  0  0  0  0  0  0  0  0  0  0
   -6.2850   -1.6634  -16.0619 H   0  0  0  0  0  0  0  0  0  0  0  0
   -7.5339   -2.8844  -16.1314 H   0  0  0  0  0  0  0  0  0  0  0  0
   -9.5586   -3.9999  -19.0880 H   0  0  0  0  0  0  0  0  0  0  0  0
   -9.9302   -2.3390  -19.5246 H   0  0  0  0  0  0  0  0  0  0  0  0
   -6.3959    0.7857  -15.1784 H   0  0  0  0  0  0  0  0  0  0  0  0
   -7.7730    1.8603  -14.9649 H   0  0  0  0  0  0  0  0  0  0  0  0
   -8.6108   -2.1496  -14.2254 H   0  0  0  0  0  0  0  0  0  0  0  0
   -6.9352   -1.8239  -13.8069 H   0  0  0  0  0  0  0  0  0  0  0  0
   -8.1929   -0.5941  -19.1122 H   0  0  0  0  0  0  0  0  0  0  0  0
   -6.6317   -1.1005  -18.5110 H   0  0  0  0  0  0  0  0  0  0  0  0
   -9.7025    1.6559  -11.1340 H   0  0  0  0  0  0  0  0  0  0  0  0
  -11.0692    0.5270  -10.9935 H   0  0  0  0  0  0  0  0  0  0  0  0
  -10.1136    0.9829   -9.5663 H   0  0  0  0  0  0  0  0  0  0  0  0
   -8.9243   -2.5230  -10.3688 H   0  0  0  0  0  0  0  0  0  0  0  0
  -10.5809   -1.9871  -10.5868 H   0  0  0  0  0  0  0  0  0  0  0  0
   -9.7004   -1.5372   -9.1095 H   0  0  0  0  0  0  0  0  0  0  0  0
   -7.0051   -0.9134  -10.6071 H   0  0  0  0  0  0  0  0  0  0  0  0
   -7.2995    0.8064  -10.9433 H   0  0  0  0  0  0  0  0  0  0  0  0
   -7.6665    0.1138   -9.3470 H   0  0  0  0  0  0  0  0  0  0  0  0
   -7.4756   -3.3074  -18.2112 H   0  0  0  0  0  0  0  0  0  0  0  0
  1 16  1  0  0  0  0
  1 17  2  0  0  0  0
  1 18  1  0  0  0  0
  2  3  1  0  0  0  0
  2  6  1  0  0  0  0
  3 10  1  0  0  0  0
  4  7  1  0  0  0  0
  4 10  1  0  0  0  0
  5  8  1  0  0  0  0
  5 10  1  0  0  0  0
  6 15  1  0  0  0  0
  7 16  1  0  0  0  0
  8 16  1  0  0  0  0
  9 10  1  0  0  0  0
  9 15  1  0  0  0  0
 11 14  1  0  0  0  0
 12 14  1  0  0  0  0
 13 14  1  0  0  0  0
 14 18  1  0  0  0  0
  2 19  1  0  0  0  0
  2 20  1  0  0  0  0
  3 21  1  0  0  0  0
  3 22  1  0  0  0  0
  4 23  1  0  0  0  0
  4 24  1  0  0  0  0
  5 25  1  0  0  0  0
  5 26  1  0  0  0  0
  6 27  1  0  0  0  0
  6 28  1  0  0  0  0
  7 29  1  0  0  0  0
  7 30  1  0  0  0  0
  8 31  1  0  0  0  0
  8 32  1  0  0  0  0
  9 33  1  0  0  0  0
  9 34  1  0  0  0  0
 11 35  1  0  0  0  0
 11 36  1  0  0  0  0
 11 37  1  0  0  0  0
 12 38  1  0  0  0  0
 12 39  1  0  0  0  0
 12 40  1  0  0  0  0
 13 41  1  0  0  0  0
 13 42  1  0  0  0  0
 13 43  1  0  0  0  0
 15 44  1  0  0  0  0
M  END
> <id>
EN300-154325

> <smiles>
CC(C)(C)OC(=O)N1CCC2(CCCNC2)CC1

> <MDLNUMBER>
MFCD10700117

> <IUPAC Name>
tert-butyl 2,9-diazaspiro[5.5]undecane-9-carboxylate

> <CAS>
1023595-19-8

> <Purity>
95

> <URL>
https://www.enaminestore.com/catalog/EN300-154325

> <ROCS_ShapeQuery>
amalgated

> <ROCS_TanimotoCombo>
0.813 

> <ROCS_ShapeTanimoto>
0.581 

> <ROCS_ColorTanimoto>
0.232 

> <ROCS_RefTversky>
0.551 

> <ROCS_RefColorTversky>
0.352 

> <ROCS_RefTverskyCombo>
0.903 

> <ROCS_FitTversky>
1.102 

> <ROCS_FitColorTversky>
0.404 

> <ROCS_FitTverskyCombo>
1.506 

> <ROCS_ColorScore>
-2.444

> <ROCS_Overlap>
906.742

> <ROCS_Rank>
473                 

$$$$
untitled-dbase-37805_12
  -OEChem-10092318153D

 37 39  0     1  0  0  0  0  0999 V2000
   -6.7965    1.3264  -18.6843 C   0  0  0  0  0  0  0  0  0  0  0  0
   -7.1687    2.0449  -17.5579 C   0  0  0  0  0  0  0  0  0  0  0  0
   -7.0956   -0.0314  -18.7699 C   0  0  0  0  0  0  0  0  0  0  0  0
   -7.8423    1.4081  -16.5152 C   0  0  0  0  0  0  0  0  0  0  0  0
   -7.7895   -0.6892  -17.7372 C   0  0  0  0  0  0  0  0  0  0  0  0
   -8.1701    0.0414  -16.5808 C   0  0  0  0  0  0  0  0  0  0  0  0
   -8.5806   -0.4595  -12.3769 C   0  0  0  0  0  0  0  0  0  0  0  0
   -8.3579   -1.7506  -13.1602 C   0  0  0  0  0  0  0  0  0  0  0  0
   -8.9596    0.7239  -13.2642 C   0  0  0  0  0  0  0  0  0  0  0  0
   -9.4284   -2.5476  -17.2027 C   0  0  0  0  0  0  0  0  0  0  0  0
   -7.8758   -1.4821  -14.5843 C   0  0  0  0  0  0  0  0  0  0  0  0
   -9.7327    0.2724  -14.5027 C   0  0  0  0  0  0  0  0  0  0  0  0
   -9.9487   -1.6231  -16.0984 C   0  0  0  0  0  0  0  0  0  0  0  0
   -8.0547   -2.1831  -17.7801 C   0  0  1  0  0  0  0  0  0  0  0  0
   -8.9082   -0.6814  -15.4349 C   0  0  0  0  0  0  0  0  0  0  0  0
   -7.9501   -2.8190  -19.0987 N   0  0  0  0  0  0  0  0  0  0  0  0
   -6.2664    1.8187  -19.4960 H   0  0  0  0  0  0  0  0  0  0  0  0
   -6.9304    3.1025  -17.4840 H   0  0  0  0  0  0  0  0  0  0  0  0
   -6.7783   -0.5808  -19.6531 H   0  0  0  0  0  0  0  0  0  0  0  0
   -8.0893    2.0036  -15.6428 H   0  0  0  0  0  0  0  0  0  0  0  0
   -9.3643   -0.6187  -11.6215 H   0  0  0  0  0  0  0  0  0  0  0  0
   -7.6627   -0.2132  -11.8204 H   0  0  0  0  0  0  0  0  0  0  0  0
   -7.6150   -2.3645  -12.6364 H   0  0  0  0  0  0  0  0  0  0  0  0
   -9.2823   -2.3389  -13.1731 H   0  0  0  0  0  0  0  0  0  0  0  0
   -9.5470    1.4483  -12.6876 H   0  0  0  0  0  0  0  0  0  0  0  0
   -8.0472    1.2470  -13.5764 H   0  0  0  0  0  0  0  0  0  0  0  0
   -9.3990   -3.5957  -16.8210 H   0  0  0  0  0  0  0  0  0  0  0  0
  -10.1833   -2.5954  -18.0243 H   0  0  0  0  0  0  0  0  0  0  0  0
   -6.9396   -0.9215  -14.5117 H   0  0  0  0  0  0  0  0  0  0  0  0
   -7.6252   -2.4290  -15.0655 H   0  0  0  0  0  0  0  0  0  0  0  0
  -10.6653   -0.2170  -14.1963 H   0  0  0  0  0  0  0  0  0  0  0  0
  -10.0341    1.1784  -15.0386 H   0  0  0  0  0  0  0  0  0  0  0  0
  -10.7857   -1.0185  -16.5192 H   0  0  0  0  0  0  0  0  0  0  0  0
  -10.4577   -2.2594  -15.3414 H   0  0  0  0  0  0  0  0  0  0  0  0
   -7.3201   -2.6945  -17.1209 H   0  0  0  0  0  0  0  0  0  0  0  0
   -7.0221   -2.6962  -19.4218 H   0  0  0  0  0  0  0  0  0  0  0  0
   -8.1651   -3.7794  -18.9895 H   0  0  0  0  0  0  0  0  0  0  0  0
  1  2  2  0  0  0  0
  1  3  1  0  0  0  0
  2  4  1  0  0  0  0
  3  5  2  0  0  0  0
  4  6  2  0  0  0  0
  5  6  1  0  0  0  0
  5 14  1  0  0  0  0
  6 15  1  0  0  0  0
  7  8  1  0  0  0  0
  7  9  1  0  0  0  0
  8 11  1  0  0  0  0
  9 12  1  0  0  0  0
 10 13  1  0  0  0  0
 10 14  1  0  0  0  0
 11 15  1  0  0  0  0
 12 15  1  0  0  0  0
 13 15  1  0  0  0  0
 14 16  1  0  0  0  0
  1 17  1  0  0  0  0
  2 18  1  0  0  0  0
  3 19  1  0  0  0  0
  4 20  1  0  0  0  0
  7 21  1  0  0  0  0
  7 22  1  0  0  0  0
  8 23  1  0  0  0  0
  8 24  1  0  0  0  0
  9 25  1  0  0  0  0
  9 26  1  0  0  0  0
 10 27  1  0  0  0  0
 10 28  1  0  0  0  0
 11 29  1  0  0  0  0
 11 30  1  0  0  0  0
 12 31  1  0  0  0  0
 12 32  1  0  0  0  0
 13 33  1  0  0  0  0
 13 34  1  0  0  0  0
 14 35  1  0  0  0  0
 16 36  1  0  0  0  0
 16 37  1  0  0  0  0
M  END
> <id>
EN300-1458039

> <smiles>
NC1CCC2(CCCCC2)C=3C=CC=CC13

> <IUPAC Name>
3',4'-dihydro-2'H-spiro[cyclohexane-1,1'-naphthalene]-4'-amine

> <CAS>
2168974-28-3

> <URL>
https://www.enaminestore.com/catalog/EN300-1458039

> <ROCS_ShapeQuery>
amalgated

> <ROCS_TanimotoCombo>
0.812 

> <ROCS_ShapeTanimoto>
0.499 

> <ROCS_ColorTanimoto>
0.313 

> <ROCS_RefTversky>
0.486 

> <ROCS_RefColorTversky>
0.415 

> <ROCS_RefTverskyCombo>
0.900 

> <ROCS_FitTversky>
1.061 

> <ROCS_FitColorTversky>
0.561 

> <ROCS_FitTverskyCombo>
1.621 

> <ROCS_ColorScore>
-2.861

> <ROCS_Overlap>
796.642

> <ROCS_Rank>
474                 

$$$$
untitled-dbase-51444_0
  -OEChem-10092318153D

 25 27  0     0  0  0  0  0  0999 V2000
   -9.0226   -2.6263  -15.8305 C   0  0  0  0  0  0  0  0  0  0  0  0
   -9.2786   -1.5739  -12.9883 C   0  0  0  0  0  0  0  0  0  0  0  0
   -8.8826   -3.0640  -17.1509 C   0  0  0  0  0  0  0  0  0  0  0  0
   -9.3661   -1.0263  -11.7016 C   0  0  0  0  0  0  0  0  0  0  0  0
   -7.8988   -0.9527  -17.7428 C   0  0  0  0  0  0  0  0  0  0  0  0
   -8.3648    1.0108  -12.4908 C   0  0  0  0  0  0  0  0  0  0  0  0
   -8.6048   -1.3425  -15.4320 C   0  0  0  0  0  0  0  0  0  0  0  0
   -8.7329   -0.8438  -14.0570 C   0  0  0  0  0  0  0  0  0  0  0  0
   -8.0392   -0.5133  -16.4166 C   0  0  0  0  0  0  0  0  0  0  0  0
   -8.2861    0.4475  -13.7672 C   0  0  0  0  0  0  0  0  0  0  0  0
   -8.3209   -2.2275  -18.1065 C   0  0  0  0  0  0  0  0  0  0  0  0
   -8.9096    0.2651  -11.4532 C   0  0  0  0  0  0  0  0  0  0  0  0
   -7.5706    0.8551  -16.0908 C   0  0  0  0  0  0  0  0  0  0  0  0
   -7.0755    1.5925  -16.9334 O   0  0  0  0  0  0  0  0  0  0  0  0
   -7.7220    1.2620  -14.7722 O   0  0  0  0  0  0  0  0  0  0  0  0
   -8.1848   -2.6519  -19.3916 O   0  0  0  0  0  0  0  0  0  0  0  0
   -8.9965    0.7924  -10.2025 O   0  0  0  0  0  0  0  0  0  0  0  0
   -9.4678   -3.3223  -15.1248 H   0  0  0  0  0  0  0  0  0  0  0  0
   -9.6508   -2.5857  -13.1223 H   0  0  0  0  0  0  0  0  0  0  0  0
   -9.2168   -4.0619  -17.4224 H   0  0  0  0  0  0  0  0  0  0  0  0
   -9.7941   -1.6191  -10.8974 H   0  0  0  0  0  0  0  0  0  0  0  0
   -7.4603   -0.3089  -18.5018 H   0  0  0  0  0  0  0  0  0  0  0  0
   -8.0045    2.0198  -12.3119 H   0  0  0  0  0  0  0  0  0  0  0  0
   -8.5240   -3.5567  -19.4857 H   0  0  0  0  0  0  0  0  0  0  0  0
   -9.3973    0.1515   -9.5934 H   0  0  0  0  0  0  0  0  0  0  0  0
  1  3  1  0  0  0  0
  1  7  2  0  0  0  0
  2  4  1  0  0  0  0
  2  8  2  0  0  0  0
  3 11  2  0  0  0  0
  4 12  2  0  0  0  0
  5  9  2  0  0  0  0
  5 11  1  0  0  0  0
  6 10  2  0  0  0  0
  6 12  1  0  0  0  0
  7  8  1  0  0  0  0
  7  9  1  0  0  0  0
  8 10  1  0  0  0  0
  9 13  1  0  0  0  0
 10 15  1  0  0  0  0
 11 16  1  0  0  0  0
 12 17  1  0  0  0  0
 13 14  2  0  0  0  0
 13 15  1  0  0  0  0
  1 18  1  0  0  0  0
  2 19  1  0  0  0  0
  3 20  1  0  0  0  0
  4 21  1  0  0  0  0
  5 22  1  0  0  0  0
  6 23  1  0  0  0  0
 16 24  1  0  0  0  0
 17 25  1  0  0  0  0
M  END
> <id>
EN300-7415486

> <smiles>
OC=1C=CC2=C(C1)OC(=O)C=3C=C(O)C=CC32

> <MDLNUMBER>
MFCD20275235

> <IUPAC Name>
3,8-dihydroxy-6H-benzo[c]chromen-6-one

> <CAS>
1143-70-0

> <Purity>
95

> <URL>
https://www.enaminestore.com/catalog/EN300-7415486

> <MP>
360-362

> <ROCS_ShapeQuery>
amalgated

> <ROCS_TanimotoCombo>
0.812 

> <ROCS_ShapeTanimoto>
0.569 

> <ROCS_ColorTanimoto>
0.243 

> <ROCS_RefTversky>
0.548 

> <ROCS_RefColorTversky>
0.417 

> <ROCS_RefTverskyCombo>
0.964 

> <ROCS_FitTversky>
1.073 

> <ROCS_FitColorTversky>
0.369 

> <ROCS_FitTverskyCombo>
1.442 

> <ROCS_ColorScore>
-2.939

> <ROCS_Overlap>
901.083

> <ROCS_Rank>
475                 

$$$$
untitled-dbase-51335_168
  -OEChem-10092318153D

 50 51  0     0  0  0  0  0  0999 V2000
   -8.1007    0.4590  -13.0947 C   0  0  0  0  0  0  0  0  0  0  0  0
   -9.5083   -1.3743  -16.6718 C   0  0  0  0  0  0  0  0  0  0  0  0
   -9.7625   -2.8239  -17.0888 C   0  0  0  0  0  0  0  0  0  0  0  0
   -7.0318   -1.6758  -16.0576 C   0  0  0  0  0  0  0  0  0  0  0  0
   -7.9158    0.6012  -16.7149 C   0  0  0  0  0  0  0  0  0  0  0  0
   -7.2393   -1.3751  -14.5731 C   0  0  0  0  0  0  0  0  0  0  0  0
   -7.2760    0.9769  -15.3754 C   0  0  0  0  0  0  0  0  0  0  0  0
   -7.7558   -1.2346  -18.4517 C   0  0  0  0  0  0  0  0  0  0  0  0
   -8.0498   -0.9310  -16.9615 C   0  0  0  0  0  0  0  0  0  0  0  0
   -9.3509   -3.1100  -18.5492 C   0  0  0  0  0  0  0  0  0  0  0  0
  -10.3528   -2.4902  -19.5425 C   0  0  0  0  0  0  0  0  0  0  0  0
   -9.3446   -4.6340  -18.7702 C   0  0  0  0  0  0  0  0  0  0  0  0
  -10.3261    1.0221  -11.3872 C   0  0  0  0  0  0  0  0  0  0  0  0
  -10.1332   -1.3724  -10.6534 C   0  0  0  0  0  0  0  0  0  0  0  0
   -8.2344    0.2189  -10.2408 C   0  0  0  0  0  0  0  0  0  0  0  0
   -9.3759   -0.1572  -11.1843 C   0  0  0  0  0  0  0  0  0  0  0  0
   -7.9821   -2.6355  -18.8110 N   0  0  0  0  0  0  0  0  0  0  0  0
   -7.5910    0.0230  -14.3210 N   0  0  0  0  0  0  0  0  0  0  0  0
   -7.9299    1.5844  -12.6304 O   0  0  0  0  0  0  0  0  0  0  0  0
   -8.8185   -0.5169  -12.4536 O   0  0  0  0  0  0  0  0  0  0  0  0
  -10.2172   -0.7200  -17.1925 H   0  0  0  0  0  0  0  0  0  0  0  0
   -9.7223   -1.2650  -15.6020 H   0  0  0  0  0  0  0  0  0  0  0  0
   -9.2208   -3.4912  -16.4072 H   0  0  0  0  0  0  0  0  0  0  0  0
  -10.8270   -3.0499  -16.9481 H   0  0  0  0  0  0  0  0  0  0  0  0
   -6.0097   -1.4099  -16.3380 H   0  0  0  0  0  0  0  0  0  0  0  0
   -7.1314   -2.7551  -16.2078 H   0  0  0  0  0  0  0  0  0  0  0  0
   -8.9201    1.0551  -16.7461 H   0  0  0  0  0  0  0  0  0  0  0  0
   -7.3519    1.0924  -17.5204 H   0  0  0  0  0  0  0  0  0  0  0  0
   -8.0174   -2.0430  -14.1721 H   0  0  0  0  0  0  0  0  0  0  0  0
   -6.3256   -1.5898  -13.9967 H   0  0  0  0  0  0  0  0  0  0  0  0
   -6.1802    1.0167  -15.4652 H   0  0  0  0  0  0  0  0  0  0  0  0
   -7.5960    1.9924  -15.1035 H   0  0  0  0  0  0  0  0  0  0  0  0
   -8.3842   -0.6219  -19.1070 H   0  0  0  0  0  0  0  0  0  0  0  0
   -6.7262   -0.9512  -18.7027 H   0  0  0  0  0  0  0  0  0  0  0  0
  -10.0328   -2.7105  -20.5549 H   0  0  0  0  0  0  0  0  0  0  0  0
  -10.3842   -1.4167  -19.3931 H   0  0  0  0  0  0  0  0  0  0  0  0
  -11.3356   -2.9141  -19.3678 H   0  0  0  0  0  0  0  0  0  0  0  0
   -9.0563   -4.8443  -19.7943 H   0  0  0  0  0  0  0  0  0  0  0  0
  -10.3382   -5.0254  -18.5813 H   0  0  0  0  0  0  0  0  0  0  0  0
   -8.6350   -5.0898  -18.0884 H   0  0  0  0  0  0  0  0  0  0  0  0
   -9.7862    1.8964  -11.7682 H   0  0  0  0  0  0  0  0  0  0  0  0
  -11.1297    0.7766  -12.0890 H   0  0  0  0  0  0  0  0  0  0  0  0
  -10.7781    1.3280  -10.4367 H   0  0  0  0  0  0  0  0  0  0  0  0
   -9.4553   -2.2209  -10.5063 H   0  0  0  0  0  0  0  0  0  0  0  0
  -10.8917   -1.7040  -11.3717 H   0  0  0  0  0  0  0  0  0  0  0  0
  -10.6287   -1.1554   -9.7015 H   0  0  0  0  0  0  0  0  0  0  0  0
   -7.5527   -0.6268  -10.0951 H   0  0  0  0  0  0  0  0  0  0  0  0
   -7.6568    1.0663  -10.6242 H   0  0  0  0  0  0  0  0  0  0  0  0
   -8.6192    0.4803   -9.2484 H   0  0  0  0  0  0  0  0  0  0  0  0
   -7.7585   -2.7680  -19.7968 H   0  0  0  0  0  0  0  0  0  0  0  0
  1 18  1  0  0  0  0
  1 19  2  0  0  0  0
  1 20  1  0  0  0  0
  2  3  1  0  0  0  0
  2  9  1  0  0  0  0
  3 10  1  0  0  0  0
  4  6  1  0  0  0  0
  4  9  1  0  0  0  0
  5  7  1  0  0  0  0
  5  9  1  0  0  0  0
  6 18  1  0  0  0  0
  7 18  1  0  0  0  0
  8  9  1  0  0  0  0
  8 17  1  0  0  0  0
 10 11  1  0  0  0  0
 10 12  1  0  0  0  0
 10 17  1  0  0  0  0
 13 16  1  0  0  0  0
 14 16  1  0  0  0  0
 15 16  1  0  0  0  0
 16 20  1  0  0  0  0
  2 21  1  0  0  0  0
  2 22  1  0  0  0  0
  3 23  1  0  0  0  0
  3 24  1  0  0  0  0
  4 25  1  0  0  0  0
  4 26  1  0  0  0  0
  5 27  1  0  0  0  0
  5 28  1  0  0  0  0
  6 29  1  0  0  0  0
  6 30  1  0  0  0  0
  7 31  1  0  0  0  0
  7 32  1  0  0  0  0
  8 33  1  0  0  0  0
  8 34  1  0  0  0  0
 11 35  1  0  0  0  0
 11 36  1  0  0  0  0
 11 37  1  0  0  0  0
 12 38  1  0  0  0  0
 12 39  1  0  0  0  0
 12 40  1  0  0  0  0
 13 41  1  0  0  0  0
 13 42  1  0  0  0  0
 13 43  1  0  0  0  0
 14 44  1  0  0  0  0
 14 45  1  0  0  0  0
 14 46  1  0  0  0  0
 15 47  1  0  0  0  0
 15 48  1  0  0  0  0
 15 49  1  0  0  0  0
 17 50  1  0  0  0  0
M  END
> <id>
EN300-43351002

> <smiles>
CC(C)(C)OC(=O)N1CCC2(CC1)CCC(C)(C)NC2

> <IUPAC Name>
tert-butyl 3,3-dimethyl-2,9-diazaspiro[5.5]undecane-9-carboxylate

> <URL>
https://www.enaminestore.com/catalog/EN300-43351002

> <ROCS_ShapeQuery>
amalgated

> <ROCS_TanimotoCombo>
0.812 

> <ROCS_ShapeTanimoto>
0.594 

> <ROCS_ColorTanimoto>
0.219 

> <ROCS_RefTversky>
0.577 

> <ROCS_RefColorTversky>
0.359 

> <ROCS_RefTverskyCombo>
0.936 

> <ROCS_FitTversky>
1.052 

> <ROCS_FitColorTversky>
0.359 

> <ROCS_FitTverskyCombo>
1.411 

> <ROCS_ColorScore>
-2.512

> <ROCS_Overlap>
950.954

> <ROCS_Rank>
476                 

$$$$
untitled-dbase-46201_5012
  -OEChem-10092318153D

 55 56  0     1  0  0  0  0  0999 V2000
   -8.4531   -0.3380  -12.3090 C   0  0  0  0  0  0  0  0  0  0  0  0
   -7.5496    1.0224  -16.5759 C   0  0  0  0  0  0  0  0  0  0  0  0
   -9.9311   -1.9984  -16.2548 C   0  0  0  0  0  0  0  0  0  0  0  0
   -8.2347   -0.8016  -18.0752 C   0  0  0  0  0  0  0  0  0  0  0  0
   -9.6874   -0.1589  -14.5487 C   0  0  0  0  0  0  0  0  0  0  0  0
   -8.0149   -1.5283  -14.5561 C   0  0  0  0  0  0  0  0  0  0  0  0
   -9.2602   -2.9478  -17.2516 C   0  0  2  0  0  0  0  0  0  0  0  0
   -8.0612   -2.3089  -17.9556 C   0  0  1  0  0  0  0  0  0  0  0  0
   -8.9616   -0.9744  -15.6457 C   0  0  0  0  0  0  0  0  0  0  0  0
   -8.3828    0.7015   -9.6511 C   0  0  0  0  0  0  0  0  0  0  0  0
  -10.6678    1.6189  -10.1471 C   0  0  0  0  0  0  0  0  0  0  0  0
  -10.2837   -0.8630  -10.1740 C   0  0  0  0  0  0  0  0  0  0  0  0
   -5.1294    2.5568  -16.6145 C   0  0  0  0  0  0  0  0  0  0  0  0
   -5.6741    3.0019  -19.0258 C   0  0  0  0  0  0  0  0  0  0  0  0
   -7.2301    3.8020  -17.2239 C   0  0  0  0  0  0  0  0  0  0  0  0
   -9.6676    0.5068  -10.4550 C   0  0  0  0  0  0  0  0  0  0  0  0
   -6.2499    2.7071  -17.6425 C   0  0  0  0  0  0  0  0  0  0  0  0
   -8.6846   -0.6448  -13.6214 N   0  0  0  0  0  0  0  0  0  0  0  0
   -8.2545   -0.1870  -16.7390 N   0  0  0  0  0  0  0  0  0  0  0  0
   -7.5552   -0.8319  -11.6328 O   0  0  0  0  0  0  0  0  0  0  0  0
   -7.4832    1.6421  -15.5148 O   0  0  0  0  0  0  0  0  0  0  0  0
  -10.2402   -3.3229  -18.2219 O   0  0  0  0  0  0  0  0  0  0  0  0
   -7.8487   -2.8740  -19.2427 O   0  0  0  0  0  0  0  0  0  0  0  0
   -9.3495    0.5863  -11.8487 O   0  0  0  0  0  0  0  0  0  0  0  0
   -6.9607    1.4666  -17.7264 O   0  0  0  0  0  0  0  0  0  0  0  0
  -10.7782   -1.4725  -16.7468 H   0  0  0  0  0  0  0  0  0  0  0  0
  -10.4225   -2.5993  -15.4593 H   0  0  0  0  0  0  0  0  0  0  0  0
   -7.4021   -0.3558  -18.6398 H   0  0  0  0  0  0  0  0  0  0  0  0
   -9.1570   -0.5728  -18.6264 H   0  0  0  0  0  0  0  0  0  0  0  0
   -9.6507    0.9365  -14.6092 H   0  0  0  0  0  0  0  0  0  0  0  0
  -10.7091   -0.4801  -14.3110 H   0  0  0  0  0  0  0  0  0  0  0  0
   -8.1158   -2.5908  -14.2992 H   0  0  0  0  0  0  0  0  0  0  0  0
   -6.9478   -1.2817  -14.6586 H   0  0  0  0  0  0  0  0  0  0  0  0
   -8.9446   -3.8542  -16.7408 H   0  0  0  0  0  0  0  0  0  0  0  0
   -7.1385   -2.5250  -17.3678 H   0  0  0  0  0  0  0  0  0  0  0  0
   -7.6622   -0.0948   -9.8693 H   0  0  0  0  0  0  0  0  0  0  0  0
   -7.9123    1.6657   -9.8699 H   0  0  0  0  0  0  0  0  0  0  0  0
   -8.5833    0.6505   -8.5748 H   0  0  0  0  0  0  0  0  0  0  0  0
  -11.5912    1.4832  -10.7217 H   0  0  0  0  0  0  0  0  0  0  0  0
  -10.2655    2.5966  -10.4359 H   0  0  0  0  0  0  0  0  0  0  0  0
  -10.9231    1.6496   -9.0829 H   0  0  0  0  0  0  0  0  0  0  0  0
  -11.2053   -1.0029  -10.7504 H   0  0  0  0  0  0  0  0  0  0  0  0
   -9.5931   -1.6749  -10.4241 H   0  0  0  0  0  0  0  0  0  0  0  0
  -10.5624   -0.9557   -9.1181 H   0  0  0  0  0  0  0  0  0  0  0  0
   -5.5387    2.3451  -15.6202 H   0  0  0  0  0  0  0  0  0  0  0  0
   -4.4391    1.7513  -16.8851 H   0  0  0  0  0  0  0  0  0  0  0  0
   -4.5568    3.4867  -16.5215 H   0  0  0  0  0  0  0  0  0  0  0  0
   -6.4745    3.1105  -19.7666 H   0  0  0  0  0  0  0  0  0  0  0  0
   -5.0443    2.1740  -19.3710 H   0  0  0  0  0  0  0  0  0  0  0  0
   -5.0741    3.9177  -19.0269 H   0  0  0  0  0  0  0  0  0  0  0  0
   -8.0339    3.9100  -17.9611 H   0  0  0  0  0  0  0  0  0  0  0  0
   -7.6813    3.5885  -16.2495 H   0  0  0  0  0  0  0  0  0  0  0  0
   -6.7278    4.7746  -17.1695 H   0  0  0  0  0  0  0  0  0  0  0  0
   -9.7993   -3.9227  -18.8439 H   0  0  0  0  0  0  0  0  0  0  0  0
   -7.0450   -2.4616  -19.5932 H   0  0  0  0  0  0  0  0  0  0  0  0
  1 18  1  0  0  0  0
  1 20  2  0  0  0  0
  1 24  1  0  0  0  0
  2 19  1  0  0  0  0
  2 21  2  0  0  0  0
  2 25  1  0  0  0  0
  3  7  1  0  0  0  0
  3  9  1  0  0  0  0
  4  8  1  0  0  0  0
  4 19  1  0  0  0  0
  5  9  1  0  0  0  0
  5 18  1  0  0  0  0
  6  9  1  0  0  0  0
  6 18  1  0  0  0  0
  7  8  1  0  0  0  0
  7 22  1  1  0  0  0
  8 23  1  1  0  0  0
  9 19  1  0  0  0  0
 10 16  1  0  0  0  0
 11 16  1  0  0  0  0
 12 16  1  0  0  0  0
 13 17  1  0  0  0  0
 14 17  1  0  0  0  0
 15 17  1  0  0  0  0
 16 24  1  0  0  0  0
 17 25  1  0  0  0  0
  3 26  1  0  0  0  0
  3 27  1  0  0  0  0
  4 28  1  0  0  0  0
  4 29  1  0  0  0  0
  5 30  1  0  0  0  0
  5 31  1  0  0  0  0
  6 32  1  0  0  0  0
  6 33  1  0  0  0  0
  7 34  1  0  0  0  0
  8 35  1  0  0  0  0
 10 36  1  0  0  0  0
 10 37  1  0  0  0  0
 10 38  1  0  0  0  0
 11 39  1  0  0  0  0
 11 40  1  0  0  0  0
 11 41  1  0  0  0  0
 12 42  1  0  0  0  0
 12 43  1  0  0  0  0
 12 44  1  0  0  0  0
 13 45  1  0  0  0  0
 13 46  1  0  0  0  0
 13 47  1  0  0  0  0
 14 48  1  0  0  0  0
 14 49  1  0  0  0  0
 14 50  1  0  0  0  0
 15 51  1  0  0  0  0
 15 52  1  0  0  0  0
 15 53  1  0  0  0  0
 22 54  1  0  0  0  0
 23 55  1  0  0  0  0
M  END
> <id>
EN300-28299552

> <smiles>
CC(C)(C)OC(=O)N1CC2(C1)C[C@@H](O)[C@@H](O)CN2C(=O)OC(C)(C)C |&1:12,14,r|

> <IUPAC Name>
rac-2,5-di-tert-butyl (7R,8S)-7,8-dihydroxy-2,5-diazaspiro[3.5]nonane-2,5-dicarboxylate

> <CAS>
2679940-20-4

> <URL>
https://www.enaminestore.com/catalog/EN300-28299552

> <ROCS_ShapeQuery>
amalgated

> <ROCS_TanimotoCombo>
0.812 

> <ROCS_ShapeTanimoto>
0.690 

> <ROCS_ColorTanimoto>
0.122 

> <ROCS_RefTversky>
0.688 

> <ROCS_RefColorTversky>
0.258 

> <ROCS_RefTverskyCombo>
0.946 

> <ROCS_FitTversky>
1.000 

> <ROCS_FitColorTversky>
0.187 

> <ROCS_FitTverskyCombo>
1.187 

> <ROCS_ColorScore>
-1.847

> <ROCS_Overlap>
1142.447

> <ROCS_Rank>
477                 

$$$$
untitled-dbase-34311_66
  -OEChem-10092318153D

 35 36  0     1  0  0  0  0  0999 V2000
   -7.9721   -0.6720  -14.5983 C   0  0  0  0  0  0  0  0  0  0  0  0
   -9.7851   -3.3866  -17.5664 C   0  0  0  0  0  0  0  0  0  0  0  0
   -8.5911   -3.9172  -18.3520 C   0  0  0  0  0  0  0  0  0  0  0  0
   -9.7215   -1.1405  -16.3107 C   0  0  0  0  0  0  0  0  0  0  0  0
   -7.4113   -1.4843  -16.9230 C   0  0  0  0  0  0  0  0  0  0  0  0
   -9.6861   -1.8657  -17.6478 C   0  0  1  0  0  0  0  0  0  0  0  0
   -8.2790   -1.6081  -18.1757 C   0  0  2  0  0  0  0  0  0  0  0  0
   -9.3375    1.3052  -13.0508 C   0  0  0  0  0  0  0  0  0  0  0  0
  -10.1446   -0.6155  -11.6476 C   0  0  0  0  0  0  0  0  0  0  0  0
   -7.6861   -0.1252  -11.8014 C   0  0  0  0  0  0  0  0  0  0  0  0
   -9.0208   -0.1014  -12.5449 C   0  0  0  0  0  0  0  0  0  0  0  0
   -7.9703   -2.7635  -19.0166 N   0  0  0  0  0  0  0  0  0  0  0  0
   -8.3353   -1.0725  -15.8734 N   0  0  0  0  0  0  0  0  0  0  0  0
   -6.9161   -0.1047  -14.3275 O   0  0  0  0  0  0  0  0  0  0  0  0
   -8.9311   -0.9813  -13.6710 O   0  0  0  0  0  0  0  0  0  0  0  0
  -10.7184   -3.7362  -18.0256 H   0  0  0  0  0  0  0  0  0  0  0  0
   -9.7781   -3.7405  -16.5281 H   0  0  0  0  0  0  0  0  0  0  0  0
   -7.8701   -4.4371  -17.7033 H   0  0  0  0  0  0  0  0  0  0  0  0
   -8.9212   -4.6435  -19.1118 H   0  0  0  0  0  0  0  0  0  0  0  0
  -10.1408   -0.1294  -16.3889 H   0  0  0  0  0  0  0  0  0  0  0  0
  -10.2852   -1.6779  -15.5357 H   0  0  0  0  0  0  0  0  0  0  0  0
   -6.8945   -2.4056  -16.6497 H   0  0  0  0  0  0  0  0  0  0  0  0
   -6.6725   -0.6879  -17.0394 H   0  0  0  0  0  0  0  0  0  0  0  0
  -10.4454   -1.4462  -18.3300 H   0  0  0  0  0  0  0  0  0  0  0  0
   -8.2281   -0.6747  -18.7842 H   0  0  0  0  0  0  0  0  0  0  0  0
   -8.5333    1.6778  -13.6953 H   0  0  0  0  0  0  0  0  0  0  0  0
  -10.2751    1.3290  -13.6158 H   0  0  0  0  0  0  0  0  0  0  0  0
   -9.4179    2.0118  -12.2169 H   0  0  0  0  0  0  0  0  0  0  0  0
   -9.9215   -1.6244  -11.2823 H   0  0  0  0  0  0  0  0  0  0  0  0
  -11.0856   -0.6899  -12.2046 H   0  0  0  0  0  0  0  0  0  0  0  0
  -10.3035    0.0386  -10.7842 H   0  0  0  0  0  0  0  0  0  0  0  0
   -7.4586   -1.1341  -11.4383 H   0  0  0  0  0  0  0  0  0  0  0  0
   -6.8618    0.2056  -12.4415 H   0  0  0  0  0  0  0  0  0  0  0  0
   -7.7211    0.5211  -10.9169 H   0  0  0  0  0  0  0  0  0  0  0  0
   -6.9588   -2.9081  -19.0404 H   0  0  0  0  0  0  0  0  0  0  0  0
  1 13  1  0  0  0  0
  1 14  2  0  0  0  0
  1 15  1  0  0  0  0
  2  3  1  0  0  0  0
  2  6  1  0  0  0  0
  3 12  1  0  0  0  0
  4  6  1  6  0  0  0
  4 13  1  0  0  0  0
  5  7  1  6  0  0  0
  5 13  1  0  0  0  0
  6  7  1  0  0  0  0
  7 12  1  0  0  0  0
  8 11  1  0  0  0  0
  9 11  1  0  0  0  0
 10 11  1  0  0  0  0
 11 15  1  0  0  0  0
  2 16  1  0  0  0  0
  2 17  1  0  0  0  0
  3 18  1  0  0  0  0
  3 19  1  0  0  0  0
  4 20  1  0  0  0  0
  4 21  1  0  0  0  0
  5 22  1  0  0  0  0
  5 23  1  0  0  0  0
  6 24  1  0  0  0  0
  7 25  1  0  0  0  0
  8 26  1  0  0  0  0
  8 27  1  0  0  0  0
  8 28  1  0  0  0  0
  9 29  1  0  0  0  0
  9 30  1  0  0  0  0
  9 31  1  0  0  0  0
 10 32  1  0  0  0  0
 10 33  1  0  0  0  0
 10 34  1  0  0  0  0
 12 35  1  0  0  0  0
M  END
> <id>
EN300-248736

> <smiles>
CC(C)(C)OC(=O)N1C[C@@H]2CCN[C@@H]2C1 |&1:9,13,r|

> <MDLNUMBER>
MFCD11045908

> <IUPAC Name>
rac-tert-butyl (3aR,6aR)-octahydropyrrolo[3,4-b]pyrrole-5-carboxylate

> <CAS>
180975-51-3

> <Purity>
95

> <URL>
https://www.enaminestore.com/catalog/EN300-248736

> <ROCS_ShapeQuery>
amalgated

> <ROCS_TanimotoCombo>
0.812 

> <ROCS_ShapeTanimoto>
0.510 

> <ROCS_ColorTanimoto>
0.303 

> <ROCS_RefTversky>
0.485 

> <ROCS_RefColorTversky>
0.437 

> <ROCS_RefTverskyCombo>
0.922 

> <ROCS_FitTversky>
1.112 

> <ROCS_FitColorTversky>
0.496 

> <ROCS_FitTverskyCombo>
1.608 

> <ROCS_ColorScore>
-3.039

> <ROCS_Overlap>
794.519

> <ROCS_Rank>
478                 

$$$$
untitled-dbase-43187_66
  -OEChem-10092318153D

 35 36  0     1  0  0  0  0  0999 V2000
   -7.9721   -0.6720  -14.5983 C   0  0  0  0  0  0  0  0  0  0  0  0
   -9.7851   -3.3866  -17.5664 C   0  0  0  0  0  0  0  0  0  0  0  0
   -8.5911   -3.9172  -18.3520 C   0  0  0  0  0  0  0  0  0  0  0  0
   -9.7215   -1.1405  -16.3107 C   0  0  0  0  0  0  0  0  0  0  0  0
   -7.4113   -1.4843  -16.9230 C   0  0  0  0  0  0  0  0  0  0  0  0
   -9.6861   -1.8657  -17.6478 C   0  0  1  0  0  0  0  0  0  0  0  0
   -8.2790   -1.6081  -18.1757 C   0  0  2  0  0  0  0  0  0  0  0  0
   -9.3375    1.3052  -13.0508 C   0  0  0  0  0  0  0  0  0  0  0  0
  -10.1446   -0.6155  -11.6476 C   0  0  0  0  0  0  0  0  0  0  0  0
   -7.6861   -0.1252  -11.8014 C   0  0  0  0  0  0  0  0  0  0  0  0
   -9.0208   -0.1014  -12.5449 C   0  0  0  0  0  0  0  0  0  0  0  0
   -7.9703   -2.7635  -19.0166 N   0  0  0  0  0  0  0  0  0  0  0  0
   -8.3353   -1.0725  -15.8734 N   0  0  0  0  0  0  0  0  0  0  0  0
   -6.9161   -0.1047  -14.3275 O   0  0  0  0  0  0  0  0  0  0  0  0
   -8.9311   -0.9813  -13.6710 O   0  0  0  0  0  0  0  0  0  0  0  0
  -10.7184   -3.7362  -18.0256 H   0  0  0  0  0  0  0  0  0  0  0  0
   -9.7781   -3.7405  -16.5281 H   0  0  0  0  0  0  0  0  0  0  0  0
   -7.8701   -4.4371  -17.7033 H   0  0  0  0  0  0  0  0  0  0  0  0
   -8.9212   -4.6435  -19.1118 H   0  0  0  0  0  0  0  0  0  0  0  0
  -10.1408   -0.1294  -16.3889 H   0  0  0  0  0  0  0  0  0  0  0  0
  -10.2852   -1.6779  -15.5357 H   0  0  0  0  0  0  0  0  0  0  0  0
   -6.8945   -2.4056  -16.6497 H   0  0  0  0  0  0  0  0  0  0  0  0
   -6.6725   -0.6879  -17.0394 H   0  0  0  0  0  0  0  0  0  0  0  0
  -10.4454   -1.4462  -18.3300 H   0  0  0  0  0  0  0  0  0  0  0  0
   -8.2281   -0.6747  -18.7842 H   0  0  0  0  0  0  0  0  0  0  0  0
   -8.5333    1.6778  -13.6953 H   0  0  0  0  0  0  0  0  0  0  0  0
  -10.2751    1.3290  -13.6158 H   0  0  0  0  0  0  0  0  0  0  0  0
   -9.4179    2.0118  -12.2169 H   0  0  0  0  0  0  0  0  0  0  0  0
   -9.9215   -1.6244  -11.2823 H   0  0  0  0  0  0  0  0  0  0  0  0
  -11.0856   -0.6899  -12.2046 H   0  0  0  0  0  0  0  0  0  0  0  0
  -10.3035    0.0386  -10.7842 H   0  0  0  0  0  0  0  0  0  0  0  0
   -7.4586   -1.1341  -11.4383 H   0  0  0  0  0  0  0  0  0  0  0  0
   -6.8618    0.2056  -12.4415 H   0  0  0  0  0  0  0  0  0  0  0  0
   -7.7211    0.5211  -10.9169 H   0  0  0  0  0  0  0  0  0  0  0  0
   -6.9588   -2.9081  -19.0404 H   0  0  0  0  0  0  0  0  0  0  0  0
  1 13  1  0  0  0  0
  1 14  2  0  0  0  0
  1 15  1  0  0  0  0
  2  3  1  0  0  0  0
  2  6  1  0  0  0  0
  3 12  1  0  0  0  0
  4  6  1  6  0  0  0
  4 13  1  0  0  0  0
  5  7  1  6  0  0  0
  5 13  1  0  0  0  0
  6  7  1  0  0  0  0
  7 12  1  0  0  0  0
  8 11  1  0  0  0  0
  9 11  1  0  0  0  0
 10 11  1  0  0  0  0
 11 15  1  0  0  0  0
  2 16  1  0  0  0  0
  2 17  1  0  0  0  0
  3 18  1  0  0  0  0
  3 19  1  0  0  0  0
  4 20  1  0  0  0  0
  4 21  1  0  0  0  0
  5 22  1  0  0  0  0
  5 23  1  0  0  0  0
  6 24  1  0  0  0  0
  7 25  1  0  0  0  0
  8 26  1  0  0  0  0
  8 27  1  0  0  0  0
  8 28  1  0  0  0  0
  9 29  1  0  0  0  0
  9 30  1  0  0  0  0
  9 31  1  0  0  0  0
 10 32  1  0  0  0  0
 10 33  1  0  0  0  0
 10 34  1  0  0  0  0
 12 35  1  0  0  0  0
M  END
> <id>
EN300-26877

> <smiles>
CC(C)(C)OC(=O)N1C[C@@H]2CCN[C@@H]2C1

> <MDLNUMBER>
MFCD09040441

> <IUPAC Name>
tert-butyl (3aS,6aS)-octahydropyrrolo[3,4-b]pyrrole-5-carboxylate

> <CAS>
370882-55-6

> <URL>
https://www.enaminestore.com/catalog/EN300-26877

> <ROCS_ShapeQuery>
amalgated

> <ROCS_TanimotoCombo>
0.812 

> <ROCS_ShapeTanimoto>
0.510 

> <ROCS_ColorTanimoto>
0.303 

> <ROCS_RefTversky>
0.485 

> <ROCS_RefColorTversky>
0.437 

> <ROCS_RefTverskyCombo>
0.922 

> <ROCS_FitTversky>
1.112 

> <ROCS_FitColorTversky>
0.496 

> <ROCS_FitTverskyCombo>
1.608 

> <ROCS_ColorScore>
-3.039

> <ROCS_Overlap>
794.519

> <ROCS_Rank>
479                 

$$$$
untitled-dbase-34836_22
  -OEChem-10092318153D

 32 33  0     1  0  0  0  0  0999 V2000
   -8.7954   -1.6294  -14.4318 C   0  0  0  0  0  0  0  0  0  0  0  0
   -7.6828   -0.0245  -17.5220 C   0  0  0  0  0  0  0  0  0  0  0  0
   -8.5954   -2.7827  -16.6560 C   0  0  0  0  0  0  0  0  0  0  0  0
   -8.8337   -0.8216  -18.0778 C   0  0  2  0  0  0  0  0  0  0  0  0
   -8.8293   -0.4111  -16.6297 C   0  0  1  0  0  0  0  0  0  0  0  0
   -8.8819   -2.3276  -18.1019 C   0  0  1  0  0  0  0  0  0  0  0  0
   -7.7850    0.4374  -12.7361 C   0  0  0  0  0  0  0  0  0  0  0  0
  -10.1919    0.9352  -12.2181 C   0  0  0  0  0  0  0  0  0  0  0  0
   -9.2203   -1.3019  -11.6184 C   0  0  0  0  0  0  0  0  0  0  0  0
   -9.1919   -0.1472  -12.6187 C   0  0  0  0  0  0  0  0  0  0  0  0
   -8.7828   -1.5951  -15.8147 N   0  0  0  0  0  0  0  0  0  0  0  0
   -7.9283   -2.8770  -19.0506 N   0  0  0  0  0  0  0  0  0  0  0  0
   -8.1685   -2.4431  -13.7571 O   0  0  0  0  0  0  0  0  0  0  0  0
   -9.5867   -0.6457  -13.9017 O   0  0  0  0  0  0  0  0  0  0  0  0
   -6.7284   -0.5176  -17.3835 H   0  0  0  0  0  0  0  0  0  0  0  0
   -7.6046    1.0153  -17.8163 H   0  0  0  0  0  0  0  0  0  0  0  0
   -9.2609   -3.5883  -16.3292 H   0  0  0  0  0  0  0  0  0  0  0  0
   -7.5614   -3.1188  -16.5117 H   0  0  0  0  0  0  0  0  0  0  0  0
   -9.5197   -0.3408  -18.7608 H   0  0  0  0  0  0  0  0  0  0  0  0
   -9.5463    0.3415  -16.3277 H   0  0  0  0  0  0  0  0  0  0  0  0
   -9.8887   -2.6400  -18.3814 H   0  0  0  0  0  0  0  0  0  0  0  0
   -7.0642   -0.3364  -13.0236 H   0  0  0  0  0  0  0  0  0  0  0  0
   -7.7436    1.2433  -13.4761 H   0  0  0  0  0  0  0  0  0  0  0  0
   -7.4448    0.8342  -11.7728 H   0  0  0  0  0  0  0  0  0  0  0  0
  -11.2027    0.5202  -12.1326 H   0  0  0  0  0  0  0  0  0  0  0  0
  -10.2440    1.7202  -12.9812 H   0  0  0  0  0  0  0  0  0  0  0  0
   -9.9252    1.3979  -11.2624 H   0  0  0  0  0  0  0  0  0  0  0  0
  -10.2293   -1.7214  -11.5339 H   0  0  0  0  0  0  0  0  0  0  0  0
   -8.5354   -2.1048  -11.9097 H   0  0  0  0  0  0  0  0  0  0  0  0
   -8.9445   -0.9556  -10.6157 H   0  0  0  0  0  0  0  0  0  0  0  0
   -7.9949   -3.8693  -19.0296 H   0  0  0  0  0  0  0  0  0  0  0  0
   -8.1506   -2.5349  -19.9579 H   0  0  0  0  0  0  0  0  0  0  0  0
  1 11  1  0  0  0  0
  1 13  2  0  0  0  0
  1 14  1  0  0  0  0
  2  4  1  0  0  0  0
  2  5  1  0  0  0  0
  3  6  1  0  0  0  0
  3 11  1  0  0  0  0
  4  5  1  0  0  0  0
  4  6  1  0  0  0  0
  5 11  1  0  0  0  0
  6 12  1  0  0  0  0
  7 10  1  0  0  0  0
  8 10  1  0  0  0  0
  9 10  1  0  0  0  0
 10 14  1  0  0  0  0
  2 15  1  0  0  0  0
  2 16  1  0  0  0  0
  3 17  1  0  0  0  0
  3 18  1  0  0  0  0
  4 19  1  0  0  0  0
  5 20  1  0  0  0  0
  6 21  1  0  0  0  0
  7 22  1  0  0  0  0
  7 23  1  0  0  0  0
  7 24  1  0  0  0  0
  8 25  1  0  0  0  0
  8 26  1  0  0  0  0
  8 27  1  0  0  0  0
  9 28  1  0  0  0  0
  9 29  1  0  0  0  0
  9 30  1  0  0  0  0
 12 31  1  0  0  0  0
 12 32  1  0  0  0  0
M  END
> <id>
EN300-7432098

> <smiles>
CC(C)(C)OC(=O)N1CC(N)C2CC21

> <MDLNUMBER>
MFCD32197633

> <IUPAC Name>
tert-butyl 4-amino-2-azabicyclo[3.1.0]hexane-2-carboxylate

> <CAS>
2344685-22-7

> <Purity>
95

> <URL>
https://www.enaminestore.com/catalog/EN300-7432098

> <ROCS_ShapeQuery>
amalgated

> <ROCS_TanimotoCombo>
0.812 

> <ROCS_ShapeTanimoto>
0.462 

> <ROCS_ColorTanimoto>
0.350 

> <ROCS_RefTversky>
0.445 

> <ROCS_RefColorTversky>
0.545 

> <ROCS_RefTverskyCombo>
0.990 

> <ROCS_FitTversky>
1.091 

> <ROCS_FitColorTversky>
0.495 

> <ROCS_FitTverskyCombo>
1.586 

> <ROCS_ColorScore>
-3.836

> <ROCS_Overlap>
727.997

> <ROCS_Rank>
480                 

$$$$
untitled-dbase-34229_191
  -OEChem-10092318153D

 45 46  0     1  0  0  0  0  0999 V2000
   -8.5247    0.1682  -13.0111 C   0  0  0  0  0  0  0  0  0  0  0  0
   -7.1433   -1.8532  -15.9302 C   0  0  0  0  0  0  0  0  0  0  0  0
   -7.8665    0.4789  -16.5749 C   0  0  0  0  0  0  0  0  0  0  0  0
   -7.5284   -1.6143  -14.4677 C   0  0  0  0  0  0  0  0  0  0  0  0
   -7.4128    0.7767  -15.1422 C   0  0  0  0  0  0  0  0  0  0  0  0
   -9.2305   -3.1527  -18.2397 C   0  0  0  0  0  0  0  0  0  0  0  0
   -7.6743   -1.2861  -18.3691 C   0  0  0  0  0  0  0  0  0  0  0  0
  -10.0974   -2.0374  -17.6559 C   0  0  1  0  0  0  0  0  0  0  0  0
   -8.0275   -1.0298  -16.8890 C   0  0  0  0  0  0  0  0  0  0  0  0
  -11.3852   -2.5952  -17.0638 C   0  0  0  0  0  0  0  0  0  0  0  0
  -10.7838    0.0496  -11.2596 C   0  0  0  0  0  0  0  0  0  0  0  0
   -9.6149   -1.8958  -10.1833 C   0  0  0  0  0  0  0  0  0  0  0  0
   -8.5479    0.3777  -10.1517 C   0  0  0  0  0  0  0  0  0  0  0  0
   -9.4300   -0.5852  -10.9451 C   0  0  0  0  0  0  0  0  0  0  0  0
   -7.9841   -2.6432  -18.8169 N   0  0  0  0  0  0  0  0  0  0  0  0
   -7.8790   -0.2206  -14.1885 N   0  0  0  0  0  0  0  0  0  0  0  0
   -8.8365    1.3254  -12.7377 O   0  0  0  0  0  0  0  0  0  0  0  0
   -9.4023   -1.3624  -16.6051 O   0  0  0  0  0  0  0  0  0  0  0  0
   -8.7732   -0.8929  -12.1799 O   0  0  0  0  0  0  0  0  0  0  0  0
   -6.0900   -1.5937  -16.0701 H   0  0  0  0  0  0  0  0  0  0  0  0
   -7.2558   -2.9207  -16.1400 H   0  0  0  0  0  0  0  0  0  0  0  0
   -8.8065    1.0300  -16.7546 H   0  0  0  0  0  0  0  0  0  0  0  0
   -7.1339    0.9237  -17.2762 H   0  0  0  0  0  0  0  0  0  0  0  0
   -8.4056   -2.2254  -14.1958 H   0  0  0  0  0  0  0  0  0  0  0  0
   -6.7065   -1.9558  -13.8197 H   0  0  0  0  0  0  0  0  0  0  0  0
   -6.3147    0.8526  -15.1167 H   0  0  0  0  0  0  0  0  0  0  0  0
   -7.7996    1.7539  -14.8109 H   0  0  0  0  0  0  0  0  0  0  0  0
   -8.9867   -3.9006  -17.4620 H   0  0  0  0  0  0  0  0  0  0  0  0
   -9.7918   -3.6935  -19.0219 H   0  0  0  0  0  0  0  0  0  0  0  0
   -8.2095   -0.5665  -19.0154 H   0  0  0  0  0  0  0  0  0  0  0  0
   -6.5966   -1.0973  -18.5393 H   0  0  0  0  0  0  0  0  0  0  0  0
  -10.3714   -1.3142  -18.4334 H   0  0  0  0  0  0  0  0  0  0  0  0
  -11.1531   -3.3207  -16.2842 H   0  0  0  0  0  0  0  0  0  0  0  0
  -11.9705   -3.0862  -17.8412 H   0  0  0  0  0  0  0  0  0  0  0  0
  -11.9767   -1.7882  -16.6317 H   0  0  0  0  0  0  0  0  0  0  0  0
  -10.6554    0.9906  -11.8064 H   0  0  0  0  0  0  0  0  0  0  0  0
  -11.4128   -0.6174  -11.8581 H   0  0  0  0  0  0  0  0  0  0  0  0
  -11.3224    0.2986  -10.3381 H   0  0  0  0  0  0  0  0  0  0  0  0
   -8.6460   -2.3547   -9.9555 H   0  0  0  0  0  0  0  0  0  0  0  0
  -10.1670   -2.6242  -10.7880 H   0  0  0  0  0  0  0  0  0  0  0  0
  -10.1560   -1.7440   -9.2437 H   0  0  0  0  0  0  0  0  0  0  0  0
   -7.5767   -0.0774   -9.9260 H   0  0  0  0  0  0  0  0  0  0  0  0
   -8.3739    1.3096  -10.6993 H   0  0  0  0  0  0  0  0  0  0  0  0
   -9.0069    0.6214   -9.1867 H   0  0  0  0  0  0  0  0  0  0  0  0
   -7.2100   -3.2718  -18.5515 H   0  0  0  0  0  0  0  0  0  0  0  0
  1 16  1  0  0  0  0
  1 17  2  0  0  0  0
  1 19  1  0  0  0  0
  2  4  1  0  0  0  0
  2  9  1  0  0  0  0
  3  5  1  0  0  0  0
  3  9  1  0  0  0  0
  4 16  1  0  0  0  0
  5 16  1  0  0  0  0
  6  8  1  0  0  0  0
  6 15  1  0  0  0  0
  7  9  1  0  0  0  0
  7 15  1  0  0  0  0
  8 10  1  0  0  0  0
  8 18  1  0  0  0  0
  9 18  1  0  0  0  0
 11 14  1  0  0  0  0
 12 14  1  0  0  0  0
 13 14  1  0  0  0  0
 14 19  1  0  0  0  0
  2 20  1  0  0  0  0
  2 21  1  0  0  0  0
  3 22  1  0  0  0  0
  3 23  1  0  0  0  0
  4 24  1  0  0  0  0
  4 25  1  0  0  0  0
  5 26  1  0  0  0  0
  5 27  1  0  0  0  0
  6 28  1  0  0  0  0
  6 29  1  0  0  0  0
  7 30  1  0  0  0  0
  7 31  1  0  0  0  0
  8 32  1  0  0  0  0
 10 33  1  0  0  0  0
 10 34  1  0  0  0  0
 10 35  1  0  0  0  0
 11 36  1  0  0  0  0
 11 37  1  0  0  0  0
 11 38  1  0  0  0  0
 12 39  1  0  0  0  0
 12 40  1  0  0  0  0
 12 41  1  0  0  0  0
 13 42  1  0  0  0  0
 13 43  1  0  0  0  0
 13 44  1  0  0  0  0
 15 45  1  0  0  0  0
M  END
> <id>
EN300-755333

> <smiles>
CC1CNCC2(CCN(CC2)C(=O)OC(C)(C)C)O1

> <MDLNUMBER>
MFCD31457128

> <IUPAC Name>
tert-butyl 2-methyl-1-oxa-4,9-diazaspiro[5.5]undecane-9-carboxylate

> <CAS>
1839098-01-9

> <Purity>
95

> <URL>
https://www.enaminestore.com/catalog/EN300-755333

> <ROCS_ShapeQuery>
amalgated

> <ROCS_TanimotoCombo>
0.812 

> <ROCS_ShapeTanimoto>
0.588 

> <ROCS_ColorTanimoto>
0.224 

> <ROCS_RefTversky>
0.567 

> <ROCS_RefColorTversky>
0.366 

> <ROCS_RefTverskyCombo>
0.932 

> <ROCS_FitTversky>
1.069 

> <ROCS_FitColorTversky>
0.366 

> <ROCS_FitTverskyCombo>
1.435 

> <ROCS_ColorScore>
-2.561

> <ROCS_Overlap>
933.234

> <ROCS_Rank>
481                 

$$$$
untitled-dbase-14803_1
  -OEChem-10092318153D

 30 33  0     1  0  0  0  0  0999 V2000
   -9.2586   -1.3786  -14.6998 C   0  0  0  0  0  0  0  0  0  0  0  0
   -8.2435    1.2541  -14.5208 C   0  0  0  0  0  0  0  0  0  0  0  0
   -8.8856   -0.6867  -15.8450 C   0  0  0  0  0  0  0  0  0  0  0  0
   -8.3718    0.6167  -15.7441 C   0  0  0  0  0  0  0  0  0  0  0  0
   -9.1282   -0.7477  -13.4595 C   0  0  0  0  0  0  0  0  0  0  0  0
   -8.6057    0.5529  -13.3693 C   0  0  0  0  0  0  0  0  0  0  0  0
  -10.0841   -1.7953  -17.8963 C   0  0  0  0  0  0  0  0  0  0  0  0
   -8.3170    0.1424  -18.0293 C   0  0  0  0  0  0  0  0  0  0  0  0
   -9.6903   -0.6272  -11.2092 C   0  0  0  0  0  0  0  0  0  0  0  0
   -8.5003    0.3002  -11.0633 C   0  0  0  0  0  0  0  0  0  0  0  0
   -8.7451   -2.4751  -17.7843 C   0  0  2  0  0  0  0  0  0  0  0  0
   -8.9168   -1.0560  -17.2910 C   0  0  1  0  0  0  0  0  0  0  0  0
   -8.0997    1.1638  -17.0007 N   0  0  0  0  0  0  0  0  0  0  0  0
   -7.9832   -2.7925  -18.9973 N   0  0  0  0  0  0  0  0  0  0  0  0
   -9.5288   -1.4618  -12.3588 O   0  0  0  0  0  0  0  0  0  0  0  0
   -8.4370    1.2008  -12.1721 O   0  0  0  0  0  0  0  0  0  0  0  0
   -9.6385   -2.3935  -14.7664 H   0  0  0  0  0  0  0  0  0  0  0  0
   -7.8812    2.2756  -14.4606 H   0  0  0  0  0  0  0  0  0  0  0  0
  -10.4300   -1.4965  -18.8791 H   0  0  0  0  0  0  0  0  0  0  0  0
  -10.8776   -2.1436  -17.2453 H   0  0  0  0  0  0  0  0  0  0  0  0
   -7.3570   -0.1125  -18.4902 H   0  0  0  0  0  0  0  0  0  0  0  0
   -8.9955    0.5285  -18.7970 H   0  0  0  0  0  0  0  0  0  0  0  0
   -9.8162   -1.2663  -10.3264 H   0  0  0  0  0  0  0  0  0  0  0  0
  -10.6089   -0.0479  -11.3454 H   0  0  0  0  0  0  0  0  0  0  0  0
   -8.5555    0.8866  -10.1379 H   0  0  0  0  0  0  0  0  0  0  0  0
   -7.5695   -0.2751  -11.0485 H   0  0  0  0  0  0  0  0  0  0  0  0
   -8.6710   -3.2557  -17.0261 H   0  0  0  0  0  0  0  0  0  0  0  0
   -7.5416    1.9938  -17.1362 H   0  0  0  0  0  0  0  0  0  0  0  0
   -8.6179   -2.8189  -19.7574 H   0  0  0  0  0  0  0  0  0  0  0  0
   -7.3052   -2.0817  -19.1251 H   0  0  0  0  0  0  0  0  0  0  0  0
  1  3  2  0  0  0  0
  1  5  1  0  0  0  0
  2  4  2  0  0  0  0
  2  6  1  0  0  0  0
  3  4  1  0  0  0  0
  3 12  1  0  0  0  0
  4 13  1  0  0  0  0
  5  6  2  0  0  0  0
  5 15  1  0  0  0  0
  6 16  1  0  0  0  0
  7 11  1  0  0  0  0
  7 12  1  0  0  0  0
  8 12  1  0  0  0  0
  8 13  1  0  0  0  0
  9 10  1  0  0  0  0
  9 15  1  0  0  0  0
 10 16  1  0  0  0  0
 11 12  1  0  0  0  0
 11 14  1  0  0  0  0
  1 17  1  0  0  0  0
  2 18  1  0  0  0  0
  7 19  1  0  0  0  0
  7 20  1  0  0  0  0
  8 21  1  0  0  0  0
  8 22  1  0  0  0  0
  9 23  1  0  0  0  0
  9 24  1  0  0  0  0
 10 25  1  0  0  0  0
 10 26  1  0  0  0  0
 11 27  1  0  0  0  0
 13 28  1  0  0  0  0
 14 29  1  0  0  0  0
 14 30  1  0  0  0  0
M  END
> <id>
EN300-1105179

> <smiles>
NC1CC21CNC=3C=C4OCCOC4=CC32

> <IUPAC Name>
2,3,6,7-tetrahydrospiro[[1,4]dioxino[2,3-f]indole-8,1'-cyclopropane]-3'-amine

> <CAS>
2138273-77-3

> <URL>
https://www.enaminestore.com/catalog/EN300-1105179

> <ROCS_ShapeQuery>
amalgated

> <ROCS_TanimotoCombo>
0.812 

> <ROCS_ShapeTanimoto>
0.556 

> <ROCS_ColorTanimoto>
0.255 

> <ROCS_RefTversky>
0.530 

> <ROCS_RefColorTversky>
0.433 

> <ROCS_RefTverskyCombo>
0.964 

> <ROCS_FitTversky>
1.098 

> <ROCS_FitColorTversky>
0.383 

> <ROCS_FitTverskyCombo>
1.481 

> <ROCS_ColorScore>
-3.056

> <ROCS_Overlap>
870.934

> <ROCS_Rank>
482                 

$$$$
untitled-dbase-41215_1
  -OEChem-10092318153D

 36 36  0     1  0  0  0  0  0999 V2000
   -8.3450   -0.4379  -14.6039 C   0  0  0  0  0  0  0  0  0  0  0  0
   -8.6306   -0.5446  -18.2217 C   0  0  0  0  0  0  0  0  0  0  0  0
   -7.7140   -0.4585  -17.0019 C   0  0  0  0  0  0  0  0  0  0  0  0
   -8.7787   -2.4848  -16.0266 C   0  0  0  0  0  0  0  0  0  0  0  0
   -9.0939   -1.9808  -18.5104 C   0  0  2  0  0  0  0  0  0  0  0  0
   -9.7214   -2.5860  -17.2347 C   0  0  1  0  0  0  0  0  0  0  0  0
   -9.8093    0.7318  -12.4404 C   0  0  0  0  0  0  0  0  0  0  0  0
   -9.7093   -1.5457  -11.3857 C   0  0  0  0  0  0  0  0  0  0  0  0
   -7.5858   -0.2844  -11.8419 C   0  0  0  0  0  0  0  0  0  0  0  0
   -9.0088   -0.5645  -12.3231 C   0  0  0  0  0  0  0  0  0  0  0  0
   -8.3164   -1.1033  -15.8346 N   0  0  0  0  0  0  0  0  0  0  0  0
   -7.9619   -2.7756  -18.9976 N   0  0  0  0  0  0  0  0  0  0  0  0
  -10.1275   -3.9800  -17.4249 N   0  0  0  0  0  0  0  0  0  0  0  0
   -7.8880    0.6880  -14.4141 O   0  0  0  0  0  0  0  0  0  0  0  0
   -8.9408   -1.1767  -13.6161 O   0  0  0  0  0  0  0  0  0  0  0  0
   -9.5125    0.0860  -18.0479 H   0  0  0  0  0  0  0  0  0  0  0  0
   -8.1191   -0.1229  -19.0957 H   0  0  0  0  0  0  0  0  0  0  0  0
   -6.7596   -0.9623  -17.1939 H   0  0  0  0  0  0  0  0  0  0  0  0
   -7.4867    0.5908  -16.7876 H   0  0  0  0  0  0  0  0  0  0  0  0
   -9.2849   -2.8552  -15.1297 H   0  0  0  0  0  0  0  0  0  0  0  0
   -7.8821   -3.1021  -16.1647 H   0  0  0  0  0  0  0  0  0  0  0  0
   -9.8491   -1.9510  -19.3060 H   0  0  0  0  0  0  0  0  0  0  0  0
  -10.6313   -2.0177  -17.0011 H   0  0  0  0  0  0  0  0  0  0  0  0
   -9.3097    1.4388  -13.1124 H   0  0  0  0  0  0  0  0  0  0  0  0
  -10.8206    0.5486  -12.8178 H   0  0  0  0  0  0  0  0  0  0  0  0
   -9.8879    1.2321  -11.4684 H   0  0  0  0  0  0  0  0  0  0  0  0
   -9.1384   -2.4772  -11.2985 H   0  0  0  0  0  0  0  0  0  0  0  0
  -10.6949   -1.8231  -11.7767 H   0  0  0  0  0  0  0  0  0  0  0  0
   -9.8400   -1.1241  -10.3838 H   0  0  0  0  0  0  0  0  0  0  0  0
   -7.0114   -1.2141  -11.7577 H   0  0  0  0  0  0  0  0  0  0  0  0
   -7.0552    0.3892  -12.5226 H   0  0  0  0  0  0  0  0  0  0  0  0
   -7.5939    0.1657  -10.8426 H   0  0  0  0  0  0  0  0  0  0  0  0
   -8.2955   -3.6846  -19.2065 H   0  0  0  0  0  0  0  0  0  0  0  0
   -7.6063   -2.3325  -19.8091 H   0  0  0  0  0  0  0  0  0  0  0  0
  -10.5455   -4.2951  -16.5831 H   0  0  0  0  0  0  0  0  0  0  0  0
  -10.7754   -4.0104  -18.1744 H   0  0  0  0  0  0  0  0  0  0  0  0
  1 11  1  0  0  0  0
  1 14  2  0  0  0  0
  1 15  1  0  0  0  0
  2  3  1  0  0  0  0
  2  5  1  0  0  0  0
  3 11  1  0  0  0  0
  4  6  1  0  0  0  0
  4 11  1  0  0  0  0
  5  6  1  0  0  0  0
  5 12  1  1  0  0  0
  6 13  1  1  0  0  0
  7 10  1  0  0  0  0
  8 10  1  0  0  0  0
  9 10  1  0  0  0  0
 10 15  1  0  0  0  0
  2 16  1  0  0  0  0
  2 17  1  0  0  0  0
  3 18  1  0  0  0  0
  3 19  1  0  0  0  0
  4 20  1  0  0  0  0
  4 21  1  0  0  0  0
  5 22  1  0  0  0  0
  6 23  1  0  0  0  0
  7 24  1  0  0  0  0
  7 25  1  0  0  0  0
  7 26  1  0  0  0  0
  8 27  1  0  0  0  0
  8 28  1  0  0  0  0
  8 29  1  0  0  0  0
  9 30  1  0  0  0  0
  9 31  1  0  0  0  0
  9 32  1  0  0  0  0
 12 33  1  0  0  0  0
 12 34  1  0  0  0  0
 13 35  1  0  0  0  0
 13 36  1  0  0  0  0
M  END
> <id>
EN300-7332207

> <smiles>
CC(C)(C)OC(=O)N1CC[C@@H](N)[C@@H](N)C1 |&1:10,12,r|

> <MDLNUMBER>
MFCD28501306

> <IUPAC Name>
rac-tert-butyl (3R,4S)-3,4-diaminopiperidine-1-carboxylate

> <CAS>
480450-36-0

> <Purity>
95

> <URL>
https://www.enaminestore.com/catalog/EN300-7332207

> <ROCS_ShapeQuery>
amalgated

> <ROCS_TanimotoCombo>
0.812 

> <ROCS_ShapeTanimoto>
0.541 

> <ROCS_ColorTanimoto>
0.271 

> <ROCS_RefTversky>
0.499 

> <ROCS_RefColorTversky>
0.426 

> <ROCS_RefTverskyCombo>
0.925 

> <ROCS_FitTversky>
1.184 

> <ROCS_FitColorTversky>
0.426 

> <ROCS_FitTverskyCombo>
1.610 

> <ROCS_ColorScore>
-2.982

> <ROCS_Overlap>
817.332

> <ROCS_Rank>
483                 

$$$$
untitled-dbase-46737_20
  -OEChem-10092318153D

 31 31  0     1  0  0  0  0  0999 V2000
   -8.1047    0.3034  -15.2526 C   0  0  0  0  0  0  0  0  0  0  0  0
   -7.6710   -1.0102  -17.3732 C   0  0  0  0  0  0  0  0  0  0  0  0
   -9.6324   -1.5010  -16.0535 C   0  0  0  0  0  0  0  0  0  0  0  0
   -8.6303   -1.8659  -18.1945 C   0  0  2  0  0  0  0  0  0  0  0  0
   -9.4435   -2.5685  -17.1137 C   0  0  0  0  0  0  0  0  0  0  0  0
   -7.4476    1.1726  -12.6105 C   0  0  0  0  0  0  0  0  0  0  0  0
   -9.7144    0.3076  -11.9608 C   0  0  0  0  0  0  0  0  0  0  0  0
   -7.9844   -1.2732  -12.8644 C   0  0  0  0  0  0  0  0  0  0  0  0
   -8.5388    0.1496  -12.9226 C   0  0  0  0  0  0  0  0  0  0  0  0
   -8.4430   -0.6669  -16.1801 N   0  0  0  0  0  0  0  0  0  0  0  0
   -7.9382   -2.7861  -19.0788 N   0  0  0  0  0  0  0  0  0  0  0  0
   -7.0973    1.0039  -15.3232 O   0  0  0  0  0  0  0  0  0  0  0  0
   -9.0280    0.3945  -14.2459 O   0  0  0  0  0  0  0  0  0  0  0  0
   -8.7669   -3.6161  -16.5899 F   0  0  0  0  0  0  0  0  0  0  0  0
  -10.6189   -3.0234  -17.5844 F   0  0  0  0  0  0  0  0  0  0  0  0
   -6.7866   -1.5658  -17.0393 H   0  0  0  0  0  0  0  0  0  0  0  0
   -7.3428   -0.1089  -17.9002 H   0  0  0  0  0  0  0  0  0  0  0  0
  -10.5103   -0.8760  -16.2466 H   0  0  0  0  0  0  0  0  0  0  0  0
   -9.6953   -1.9083  -15.0402 H   0  0  0  0  0  0  0  0  0  0  0  0
   -9.2912   -1.2217  -18.7882 H   0  0  0  0  0  0  0  0  0  0  0  0
   -6.6018    1.0625  -13.2987 H   0  0  0  0  0  0  0  0  0  0  0  0
   -7.8236    2.1983  -12.6831 H   0  0  0  0  0  0  0  0  0  0  0  0
   -7.0468    1.0215  -11.6017 H   0  0  0  0  0  0  0  0  0  0  0  0
  -10.4998   -0.4245  -12.1811 H   0  0  0  0  0  0  0  0  0  0  0  0
  -10.1755    1.2962  -12.0671 H   0  0  0  0  0  0  0  0  0  0  0  0
   -9.4040    0.1800  -10.9188 H   0  0  0  0  0  0  0  0  0  0  0  0
   -8.7670   -2.0072  -13.0882 H   0  0  0  0  0  0  0  0  0  0  0  0
   -7.1637   -1.4156  -13.5748 H   0  0  0  0  0  0  0  0  0  0  0  0
   -7.6188   -1.5080  -11.8582 H   0  0  0  0  0  0  0  0  0  0  0  0
   -8.6140   -3.3395  -19.5558 H   0  0  0  0  0  0  0  0  0  0  0  0
   -7.4023   -2.2590  -19.7310 H   0  0  0  0  0  0  0  0  0  0  0  0
  1 10  1  0  0  0  0
  1 12  2  0  0  0  0
  1 13  1  0  0  0  0
  2  4  1  0  0  0  0
  2 10  1  0  0  0  0
  3  5  1  0  0  0  0
  3 10  1  0  0  0  0
  4  5  1  0  0  0  0
  4 11  1  1  0  0  0
  5 14  1  0  0  0  0
  5 15  1  0  0  0  0
  6  9  1  0  0  0  0
  7  9  1  0  0  0  0
  8  9  1  0  0  0  0
  9 13  1  0  0  0  0
  2 16  1  0  0  0  0
  2 17  1  0  0  0  0
  3 18  1  0  0  0  0
  3 19  1  0  0  0  0
  4 20  1  0  0  0  0
  6 21  1  0  0  0  0
  6 22  1  0  0  0  0
  6 23  1  0  0  0  0
  7 24  1  0  0  0  0
  7 25  1  0  0  0  0
  7 26  1  0  0  0  0
  8 27  1  0  0  0  0
  8 28  1  0  0  0  0
  8 29  1  0  0  0  0
 11 30  1  0  0  0  0
 11 31  1  0  0  0  0
M  END
> <id>
EN300-33036588

> <smiles>
CC(C)(C)OC(=O)N1C[C@@H](N)C(F)(F)C1

> <MDLNUMBER>
MFCD34550981

> <IUPAC Name>
tert-butyl (4R)-4-amino-3,3-difluoropyrrolidine-1-carboxylate

> <CAS>
2199214-47-4

> <URL>
https://www.enaminestore.com/catalog/EN300-33036588

> <ROCS_ShapeQuery>
amalgated

> <ROCS_TanimotoCombo>
0.812 

> <ROCS_ShapeTanimoto>
0.491 

> <ROCS_ColorTanimoto>
0.321 

> <ROCS_RefTversky>
0.472 

> <ROCS_RefColorTversky>
0.422 

> <ROCS_RefTverskyCombo>
0.895 

> <ROCS_FitTversky>
1.088 

> <ROCS_FitColorTversky>
0.571 

> <ROCS_FitTverskyCombo>
1.659 

> <ROCS_ColorScore>
-2.915

> <ROCS_Overlap>
773.955

> <ROCS_Rank>
484                 

$$$$
untitled-dbase-46736_20
  -OEChem-10092318153D

 31 31  0     1  0  0  0  0  0999 V2000
   -8.1047    0.3034  -15.2526 C   0  0  0  0  0  0  0  0  0  0  0  0
   -7.6710   -1.0102  -17.3732 C   0  0  0  0  0  0  0  0  0  0  0  0
   -9.6324   -1.5010  -16.0535 C   0  0  0  0  0  0  0  0  0  0  0  0
   -8.6303   -1.8659  -18.1945 C   0  0  2  0  0  0  0  0  0  0  0  0
   -9.4435   -2.5685  -17.1137 C   0  0  0  0  0  0  0  0  0  0  0  0
   -7.4476    1.1726  -12.6105 C   0  0  0  0  0  0  0  0  0  0  0  0
   -9.7144    0.3076  -11.9608 C   0  0  0  0  0  0  0  0  0  0  0  0
   -7.9844   -1.2732  -12.8644 C   0  0  0  0  0  0  0  0  0  0  0  0
   -8.5388    0.1496  -12.9226 C   0  0  0  0  0  0  0  0  0  0  0  0
   -8.4430   -0.6669  -16.1801 N   0  0  0  0  0  0  0  0  0  0  0  0
   -7.9382   -2.7861  -19.0788 N   0  0  0  0  0  0  0  0  0  0  0  0
   -7.0973    1.0039  -15.3232 O   0  0  0  0  0  0  0  0  0  0  0  0
   -9.0280    0.3945  -14.2459 O   0  0  0  0  0  0  0  0  0  0  0  0
   -8.7669   -3.6161  -16.5899 F   0  0  0  0  0  0  0  0  0  0  0  0
  -10.6189   -3.0234  -17.5844 F   0  0  0  0  0  0  0  0  0  0  0  0
   -6.7866   -1.5658  -17.0393 H   0  0  0  0  0  0  0  0  0  0  0  0
   -7.3428   -0.1089  -17.9002 H   0  0  0  0  0  0  0  0  0  0  0  0
  -10.5103   -0.8760  -16.2466 H   0  0  0  0  0  0  0  0  0  0  0  0
   -9.6953   -1.9083  -15.0402 H   0  0  0  0  0  0  0  0  0  0  0  0
   -9.2912   -1.2217  -18.7882 H   0  0  0  0  0  0  0  0  0  0  0  0
   -6.6018    1.0625  -13.2987 H   0  0  0  0  0  0  0  0  0  0  0  0
   -7.8236    2.1983  -12.6831 H   0  0  0  0  0  0  0  0  0  0  0  0
   -7.0468    1.0215  -11.6017 H   0  0  0  0  0  0  0  0  0  0  0  0
  -10.4998   -0.4245  -12.1811 H   0  0  0  0  0  0  0  0  0  0  0  0
  -10.1755    1.2962  -12.0671 H   0  0  0  0  0  0  0  0  0  0  0  0
   -9.4040    0.1800  -10.9188 H   0  0  0  0  0  0  0  0  0  0  0  0
   -8.7670   -2.0072  -13.0882 H   0  0  0  0  0  0  0  0  0  0  0  0
   -7.1637   -1.4156  -13.5748 H   0  0  0  0  0  0  0  0  0  0  0  0
   -7.6188   -1.5080  -11.8582 H   0  0  0  0  0  0  0  0  0  0  0  0
   -8.6140   -3.3395  -19.5558 H   0  0  0  0  0  0  0  0  0  0  0  0
   -7.4023   -2.2590  -19.7310 H   0  0  0  0  0  0  0  0  0  0  0  0
  1 10  1  0  0  0  0
  1 12  2  0  0  0  0
  1 13  1  0  0  0  0
  2  4  1  0  0  0  0
  2 10  1  0  0  0  0
  3  5  1  0  0  0  0
  3 10  1  0  0  0  0
  4  5  1  0  0  0  0
  4 11  1  1  0  0  0
  5 14  1  0  0  0  0
  5 15  1  0  0  0  0
  6  9  1  0  0  0  0
  7  9  1  0  0  0  0
  8  9  1  0  0  0  0
  9 13  1  0  0  0  0
  2 16  1  0  0  0  0
  2 17  1  0  0  0  0
  3 18  1  0  0  0  0
  3 19  1  0  0  0  0
  4 20  1  0  0  0  0
  6 21  1  0  0  0  0
  6 22  1  0  0  0  0
  6 23  1  0  0  0  0
  7 24  1  0  0  0  0
  7 25  1  0  0  0  0
  7 26  1  0  0  0  0
  8 27  1  0  0  0  0
  8 28  1  0  0  0  0
  8 29  1  0  0  0  0
 11 30  1  0  0  0  0
 11 31  1  0  0  0  0
M  END
> <id>
EN300-33036587

> <smiles>
CC(C)(C)OC(=O)N1C[C@@H](N)C(F)(F)C1.CS(=O)(=O)O

> <MDLNUMBER>
MFCD34550980

> <IUPAC Name>
methanesulfonic acid; tert-butyl (4R)-4-amino-3,3-difluoropyrrolidine-1-carboxylate

> <CAS>
2703749-31-7

> <Purity>
95

> <URL>
https://www.enaminestore.com/catalog/EN300-33036587

> <ROCS_ShapeQuery>
amalgated

> <ROCS_TanimotoCombo>
0.812 

> <ROCS_ShapeTanimoto>
0.491 

> <ROCS_ColorTanimoto>
0.321 

> <ROCS_RefTversky>
0.472 

> <ROCS_RefColorTversky>
0.422 

> <ROCS_RefTverskyCombo>
0.895 

> <ROCS_FitTversky>
1.088 

> <ROCS_FitColorTversky>
0.571 

> <ROCS_FitTverskyCombo>
1.659 

> <ROCS_ColorScore>
-2.915

> <ROCS_Overlap>
773.955

> <ROCS_Rank>
485                 

$$$$
untitled-dbase-46594_12
  -OEChem-10092318153D

 36 37  0     0  0  0  0  0  0999 V2000
   -8.8840    0.2707  -14.0031 C   0  0  0  0  0  0  0  0  0  0  0  0
   -7.3922   -1.7361  -18.0148 C   0  0  0  0  0  0  0  0  0  0  0  0
   -7.9390   -1.6513  -15.4794 C   0  0  0  0  0  0  0  0  0  0  0  0
   -8.6709    0.0498  -16.5520 C   0  0  0  0  0  0  0  0  0  0  0  0
   -9.0827   -3.3605  -18.1789 C   0  0  0  0  0  0  0  0  0  0  0  0
   -8.4368   -1.4329  -16.9365 C   0  0  0  0  0  0  0  0  0  0  0  0
   -9.6593   -2.2318  -17.3571 C   0  0  0  0  0  0  0  0  0  0  0  0
   -9.8384   -1.2962  -10.7247 C   0  0  0  0  0  0  0  0  0  0  0  0
   -8.4114    0.7351  -11.0794 C   0  0  0  0  0  0  0  0  0  0  0  0
  -10.8241    0.7596  -11.7624 C   0  0  0  0  0  0  0  0  0  0  0  0
   -9.5620   -0.1029  -11.6465 C   0  0  0  0  0  0  0  0  0  0  0  0
   -8.0254   -2.6896  -18.9370 N   0  0  0  0  0  0  0  0  0  0  0  0
   -8.5552   -0.3761  -15.1703 N   0  0  0  0  0  0  0  0  0  0  0  0
   -9.1928   -0.5867  -12.9556 N   0  0  0  0  0  0  0  0  0  0  0  0
   -8.8991    1.4993  -13.9045 O   0  0  0  0  0  0  0  0  0  0  0  0
  -10.4838   -1.4709  -18.1158 F   0  0  0  0  0  0  0  0  0  0  0  0
  -10.3664   -2.6849  -16.3020 F   0  0  0  0  0  0  0  0  0  0  0  0
   -7.0708   -0.8403  -18.5605 H   0  0  0  0  0  0  0  0  0  0  0  0
   -6.4941   -2.2037  -17.5906 H   0  0  0  0  0  0  0  0  0  0  0  0
   -8.4003   -2.4731  -14.9230 H   0  0  0  0  0  0  0  0  0  0  0  0
   -6.8562   -1.6680  -15.3298 H   0  0  0  0  0  0  0  0  0  0  0  0
   -7.8991    0.7530  -16.8754 H   0  0  0  0  0  0  0  0  0  0  0  0
   -9.6634    0.4538  -16.7764 H   0  0  0  0  0  0  0  0  0  0  0  0
   -8.6588   -4.1461  -17.5438 H   0  0  0  0  0  0  0  0  0  0  0  0
   -9.8246   -3.8112  -18.8440 H   0  0  0  0  0  0  0  0  0  0  0  0
  -10.6593   -1.9125  -11.1096 H   0  0  0  0  0  0  0  0  0  0  0  0
   -8.9550   -1.9366  -10.6255 H   0  0  0  0  0  0  0  0  0  0  0  0
  -10.1274   -0.9617   -9.7215 H   0  0  0  0  0  0  0  0  0  0  0  0
   -8.1948    1.5959  -11.7227 H   0  0  0  0  0  0  0  0  0  0  0  0
   -7.4904    0.1448  -11.0077 H   0  0  0  0  0  0  0  0  0  0  0  0
   -8.6485    1.1130  -10.0787 H   0  0  0  0  0  0  0  0  0  0  0  0
  -10.6544    1.6221  -12.4174 H   0  0  0  0  0  0  0  0  0  0  0  0
  -11.6633    0.1857  -12.1706 H   0  0  0  0  0  0  0  0  0  0  0  0
  -11.1278    1.1505  -10.7843 H   0  0  0  0  0  0  0  0  0  0  0  0
   -8.4625   -2.1579  -19.6941 H   0  0  0  0  0  0  0  0  0  0  0  0
   -9.1578   -1.5846  -13.1153 H   0  0  0  0  0  0  0  0  0  0  0  0
  1 13  1  0  0  0  0
  1 14  1  0  0  0  0
  1 15  2  0  0  0  0
  2  6  1  0  0  0  0
  2 12  1  0  0  0  0
  3  6  1  0  0  0  0
  3 13  1  0  0  0  0
  4  6  1  0  0  0  0
  4 13  1  0  0  0  0
  5  7  1  0  0  0  0
  5 12  1  0  0  0  0
  6  7  1  0  0  0  0
  7 16  1  0  0  0  0
  7 17  1  0  0  0  0
  8 11  1  0  0  0  0
  9 11  1  0  0  0  0
 10 11  1  0  0  0  0
 11 14  1  0  0  0  0
  2 18  1  0  0  0  0
  2 19  1  0  0  0  0
  3 20  1  0  0  0  0
  3 21  1  0  0  0  0
  4 22  1  0  0  0  0
  4 23  1  0  0  0  0
  5 24  1  0  0  0  0
  5 25  1  0  0  0  0
  8 26  1  0  0  0  0
  8 27  1  0  0  0  0
  8 28  1  0  0  0  0
  9 29  1  0  0  0  0
  9 30  1  0  0  0  0
  9 31  1  0  0  0  0
 10 32  1  0  0  0  0
 10 33  1  0  0  0  0
 10 34  1  0  0  0  0
 12 35  1  0  0  0  0
 14 36  1  0  0  0  0
M  END
> <id>
EN300-766990

> <smiles>
CC(C)(C)NC(=O)N1CC2(C1)CNCC2(F)F

> <MDLNUMBER>
MFCD31602696

> <IUPAC Name>
N-tert-butyl-8,8-difluoro-2,6-diazaspiro[3.4]octane-2-carboxamide

> <CAS>
2138244-13-8

> <URL>
https://www.enaminestore.com/catalog/EN300-766990

> <ROCS_ShapeQuery>
amalgated

> <ROCS_TanimotoCombo>
0.812 

> <ROCS_ShapeTanimoto>
0.594 

> <ROCS_ColorTanimoto>
0.218 

> <ROCS_RefTversky>
0.555 

> <ROCS_RefColorTversky>
0.358 

> <ROCS_RefTverskyCombo>
0.913 

> <ROCS_FitTversky>
1.133 

> <ROCS_FitColorTversky>
0.358 

> <ROCS_FitTverskyCombo>
1.491 

> <ROCS_ColorScore>
-2.509

> <ROCS_Overlap>
911.931

> <ROCS_Rank>
486                 

$$$$
untitled-dbase-7495_2
  -OEChem-10092318153D

 33 34  0     0  0  0  0  0  0999 V2000
   -8.2274   -1.0823  -17.3456 C   0  0  0  0  0  0  0  0  0  0  0  0
   -8.7780   -2.1787  -16.8459 C   0  0  0  0  0  0  0  0  0  0  0  0
   -9.2633    0.1537  -14.1120 C   0  0  0  0  0  0  0  0  0  0  0  0
   -7.6898   -1.3116  -18.6929 C   0  0  0  0  0  0  0  0  0  0  0  0
   -8.6909   -3.3050  -17.7842 C   0  0  0  0  0  0  0  0  0  0  0  0
   -8.2867    0.0566  -16.4168 C   0  0  0  0  0  0  0  0  0  0  0  0
   -9.3094   -1.9789  -15.4888 C   0  0  0  0  0  0  0  0  0  0  0  0
  -10.1345    1.1603  -11.5834 C   0  0  0  0  0  0  0  0  0  0  0  0
  -10.4738   -1.2464  -10.9497 C   0  0  0  0  0  0  0  0  0  0  0  0
   -8.1741   -0.4170  -11.5257 C   0  0  0  0  0  0  0  0  0  0  0  0
   -9.6685   -0.2768  -11.8120 C   0  0  0  0  0  0  0  0  0  0  0  0
   -8.0355   -2.7314  -18.9964 N   0  0  0  0  0  0  0  0  0  0  0  0
   -8.9754   -0.5566  -15.2666 N   0  0  0  0  0  0  0  0  0  0  0  0
   -8.9781    1.3368  -13.9408 O   0  0  0  0  0  0  0  0  0  0  0  0
   -9.9044   -0.6199  -13.1821 O   0  0  0  0  0  0  0  0  0  0  0  0
   -8.1515   -0.6463  -19.4289 H   0  0  0  0  0  0  0  0  0  0  0  0
   -6.6036   -1.1837  -18.7204 H   0  0  0  0  0  0  0  0  0  0  0  0
   -8.0765   -4.1163  -17.3835 H   0  0  0  0  0  0  0  0  0  0  0  0
   -9.6815   -3.6932  -18.0401 H   0  0  0  0  0  0  0  0  0  0  0  0
   -7.3013    0.4081  -16.0990 H   0  0  0  0  0  0  0  0  0  0  0  0
   -8.8863    0.8904  -16.7916 H   0  0  0  0  0  0  0  0  0  0  0  0
  -10.3933   -2.1079  -15.4270 H   0  0  0  0  0  0  0  0  0  0  0  0
   -8.8058   -2.5887  -14.7337 H   0  0  0  0  0  0  0  0  0  0  0  0
   -9.5589    1.8594  -12.2006 H   0  0  0  0  0  0  0  0  0  0  0  0
  -11.1968    1.2821  -11.8188 H   0  0  0  0  0  0  0  0  0  0  0  0
   -9.9738    1.4626  -10.5423 H   0  0  0  0  0  0  0  0  0  0  0  0
  -10.1427   -2.2788  -11.1104 H   0  0  0  0  0  0  0  0  0  0  0  0
  -11.5360   -1.2176  -11.2180 H   0  0  0  0  0  0  0  0  0  0  0  0
  -10.3789   -1.0139   -9.8841 H   0  0  0  0  0  0  0  0  0  0  0  0
   -7.8396   -1.4478  -11.6896 H   0  0  0  0  0  0  0  0  0  0  0  0
   -7.5777    0.2451  -12.1618 H   0  0  0  0  0  0  0  0  0  0  0  0
   -7.9546   -0.1836  -10.4776 H   0  0  0  0  0  0  0  0  0  0  0  0
   -8.7006   -2.7499  -19.7701 H   0  0  0  0  0  0  0  0  0  0  0  0
  1  2  2  0  0  0  0
  1  4  1  0  0  0  0
  1  6  1  0  0  0  0
  2  5  1  0  0  0  0
  2  7  1  0  0  0  0
  3 13  1  0  0  0  0
  3 14  2  0  0  0  0
  3 15  1  0  0  0  0
  4 12  1  0  0  0  0
  5 12  1  0  0  0  0
  6 13  1  0  0  0  0
  7 13  1  0  0  0  0
  8 11  1  0  0  0  0
  9 11  1  0  0  0  0
 10 11  1  0  0  0  0
 11 15  1  0  0  0  0
  4 16  1  0  0  0  0
  4 17  1  0  0  0  0
  5 18  1  0  0  0  0
  5 19  1  0  0  0  0
  6 20  1  0  0  0  0
  6 21  1  0  0  0  0
  7 22  1  0  0  0  0
  7 23  1  0  0  0  0
  8 24  1  0  0  0  0
  8 25  1  0  0  0  0
  8 26  1  0  0  0  0
  9 27  1  0  0  0  0
  9 28  1  0  0  0  0
  9 29  1  0  0  0  0
 10 30  1  0  0  0  0
 10 31  1  0  0  0  0
 10 32  1  0  0  0  0
 12 33  1  0  0  0  0
M  END
> <id>
EN300-50905

> <smiles>
CC(C)(C)OC(=O)N1CC2=C(CNC2)C1

> <MDLNUMBER>
MFCD07786110

> <IUPAC Name>
tert-butyl 1H,2H,3H,4H,5H,6H-pyrrolo[3,4-c]pyrrole-2-carboxylate

> <CAS>
169692-94-8

> <URL>
https://www.enaminestore.com/catalog/EN300-50905

> <ROCS_ShapeQuery>
amalgated

> <ROCS_TanimotoCombo>
0.812 

> <ROCS_ShapeTanimoto>
0.546 

> <ROCS_ColorTanimoto>
0.266 

> <ROCS_RefTversky>
0.508 

> <ROCS_RefColorTversky>
0.394 

> <ROCS_RefTverskyCombo>
0.902 

> <ROCS_FitTversky>
1.157 

> <ROCS_FitColorTversky>
0.449 

> <ROCS_FitTverskyCombo>
1.606 

> <ROCS_ColorScore>
-2.737

> <ROCS_Overlap>
833.384

> <ROCS_Rank>
487                 

$$$$
untitled-dbase-822_2
  -OEChem-10092318153D

 33 34  0     0  0  0  0  0  0999 V2000
   -8.2274   -1.0823  -17.3456 C   0  0  0  0  0  0  0  0  0  0  0  0
   -8.7780   -2.1787  -16.8459 C   0  0  0  0  0  0  0  0  0  0  0  0
   -9.2633    0.1537  -14.1120 C   0  0  0  0  0  0  0  0  0  0  0  0
   -7.6898   -1.3116  -18.6929 C   0  0  0  0  0  0  0  0  0  0  0  0
   -8.6909   -3.3050  -17.7842 C   0  0  0  0  0  0  0  0  0  0  0  0
   -8.2867    0.0566  -16.4168 C   0  0  0  0  0  0  0  0  0  0  0  0
   -9.3094   -1.9789  -15.4888 C   0  0  0  0  0  0  0  0  0  0  0  0
  -10.1345    1.1603  -11.5834 C   0  0  0  0  0  0  0  0  0  0  0  0
  -10.4738   -1.2464  -10.9497 C   0  0  0  0  0  0  0  0  0  0  0  0
   -8.1741   -0.4170  -11.5257 C   0  0  0  0  0  0  0  0  0  0  0  0
   -9.6685   -0.2768  -11.8120 C   0  0  0  0  0  0  0  0  0  0  0  0
   -8.0355   -2.7314  -18.9964 N   0  0  0  0  0  0  0  0  0  0  0  0
   -8.9754   -0.5566  -15.2666 N   0  0  0  0  0  0  0  0  0  0  0  0
   -8.9781    1.3368  -13.9408 O   0  0  0  0  0  0  0  0  0  0  0  0
   -9.9044   -0.6199  -13.1821 O   0  0  0  0  0  0  0  0  0  0  0  0
   -8.1515   -0.6463  -19.4289 H   0  0  0  0  0  0  0  0  0  0  0  0
   -6.6036   -1.1837  -18.7204 H   0  0  0  0  0  0  0  0  0  0  0  0
   -8.0765   -4.1163  -17.3835 H   0  0  0  0  0  0  0  0  0  0  0  0
   -9.6815   -3.6932  -18.0401 H   0  0  0  0  0  0  0  0  0  0  0  0
   -7.3013    0.4081  -16.0990 H   0  0  0  0  0  0  0  0  0  0  0  0
   -8.8863    0.8904  -16.7916 H   0  0  0  0  0  0  0  0  0  0  0  0
  -10.3933   -2.1079  -15.4270 H   0  0  0  0  0  0  0  0  0  0  0  0
   -8.8058   -2.5887  -14.7337 H   0  0  0  0  0  0  0  0  0  0  0  0
   -9.5589    1.8594  -12.2006 H   0  0  0  0  0  0  0  0  0  0  0  0
  -11.1968    1.2821  -11.8188 H   0  0  0  0  0  0  0  0  0  0  0  0
   -9.9738    1.4626  -10.5423 H   0  0  0  0  0  0  0  0  0  0  0  0
  -10.1427   -2.2788  -11.1104 H   0  0  0  0  0  0  0  0  0  0  0  0
  -11.5360   -1.2176  -11.2180 H   0  0  0  0  0  0  0  0  0  0  0  0
  -10.3789   -1.0139   -9.8841 H   0  0  0  0  0  0  0  0  0  0  0  0
   -7.8396   -1.4478  -11.6896 H   0  0  0  0  0  0  0  0  0  0  0  0
   -7.5777    0.2451  -12.1618 H   0  0  0  0  0  0  0  0  0  0  0  0
   -7.9546   -0.1836  -10.4776 H   0  0  0  0  0  0  0  0  0  0  0  0
   -8.7006   -2.7499  -19.7701 H   0  0  0  0  0  0  0  0  0  0  0  0
  1  2  2  0  0  0  0
  1  4  1  0  0  0  0
  1  6  1  0  0  0  0
  2  5  1  0  0  0  0
  2  7  1  0  0  0  0
  3 13  1  0  0  0  0
  3 14  2  0  0  0  0
  3 15  1  0  0  0  0
  4 12  1  0  0  0  0
  5 12  1  0  0  0  0
  6 13  1  0  0  0  0
  7 13  1  0  0  0  0
  8 11  1  0  0  0  0
  9 11  1  0  0  0  0
 10 11  1  0  0  0  0
 11 15  1  0  0  0  0
  4 16  1  0  0  0  0
  4 17  1  0  0  0  0
  5 18  1  0  0  0  0
  5 19  1  0  0  0  0
  6 20  1  0  0  0  0
  6 21  1  0  0  0  0
  7 22  1  0  0  0  0
  7 23  1  0  0  0  0
  8 24  1  0  0  0  0
  8 25  1  0  0  0  0
  8 26  1  0  0  0  0
  9 27  1  0  0  0  0
  9 28  1  0  0  0  0
  9 29  1  0  0  0  0
 10 30  1  0  0  0  0
 10 31  1  0  0  0  0
 10 32  1  0  0  0  0
 12 33  1  0  0  0  0
M  END
> <id>
EN300-55192

> <smiles>
Cl.CC(C)(C)OC(=O)N1CC2=C(CNC2)C1

> <MDLNUMBER>
MFCD13196187

> <IUPAC Name>
tert-butyl 1H,2H,3H,4H,5H,6H-pyrrolo[3,4-c]pyrrole-2-carboxylate hydrochloride

> <CAS>
1208929-16-1

> <Purity>
95

> <URL>
https://www.enaminestore.com/catalog/EN300-55192

> <Saltdate>
Cl

> <ROCS_ShapeQuery>
amalgated

> <ROCS_TanimotoCombo>
0.812 

> <ROCS_ShapeTanimoto>
0.546 

> <ROCS_ColorTanimoto>
0.266 

> <ROCS_RefTversky>
0.508 

> <ROCS_RefColorTversky>
0.394 

> <ROCS_RefTverskyCombo>
0.902 

> <ROCS_FitTversky>
1.157 

> <ROCS_FitColorTversky>
0.449 

> <ROCS_FitTverskyCombo>
1.606 

> <ROCS_ColorScore>
-2.737

> <ROCS_Overlap>
833.384

> <ROCS_Rank>
488                 

$$$$
untitled-dbase-27340_28
  -OEChem-10092318153D

 44 46  0     0  0  0  0  0  0999 V2000
   -9.6317   -1.0492  -12.9690 C   0  0  0  0  0  0  0  0  0  0  0  0
   -7.6450    0.3936  -12.6034 C   0  0  0  0  0  0  0  0  0  0  0  0
   -9.6842   -1.3330  -16.2527 C   0  0  0  0  0  0  0  0  0  0  0  0
   -7.2654   -1.5192  -16.7930 C   0  0  0  0  0  0  0  0  0  0  0  0
  -10.2215   -0.4982  -11.6684 C   0  0  0  0  0  0  0  0  0  0  0  0
   -8.2872    0.9092  -11.3164 C   0  0  0  0  0  0  0  0  0  0  0  0
   -8.6781    1.7989  -15.1940 C   0  0  0  0  0  0  0  0  0  0  0  0
   -9.9689   -1.8212  -17.6732 C   0  0  0  0  0  0  0  0  0  0  0  0
   -7.6683   -1.8944  -18.2079 C   0  0  0  0  0  0  0  0  0  0  0  0
   -8.3074   -0.6357  -16.0529 C   0  0  0  0  0  0  0  0  0  0  0  0
   -8.2631    0.9203  -16.4190 C   0  0  0  0  0  0  0  0  0  0  0  0
   -8.6725   -0.0605  -13.6716 C   0  0  0  0  0  0  0  0  0  0  0  0
   -6.8341    1.3857  -16.7979 C   0  0  0  0  0  0  0  0  0  0  0  0
   -9.1752    1.3103  -17.6006 C   0  0  0  0  0  0  0  0  0  0  0  0
   -9.1746   -0.0943  -10.7329 N   0  0  0  0  0  0  0  0  0  0  0  0
   -9.4549    1.0585  -14.2127 N   0  0  0  0  0  0  0  0  0  0  0  0
   -8.9003   -2.6078  -18.1871 O   0  0  0  0  0  0  0  0  0  0  0  0
   -7.9089   -0.7714  -14.6636 O   0  0  0  0  0  0  0  0  0  0  0  0
   -9.0951   -1.9807  -12.7561 H   0  0  0  0  0  0  0  0  0  0  0  0
  -10.4637   -1.3245  -13.6180 H   0  0  0  0  0  0  0  0  0  0  0  0
   -6.9727    1.1569  -13.0148 H   0  0  0  0  0  0  0  0  0  0  0  0
   -6.9876   -0.4521  -12.3579 H   0  0  0  0  0  0  0  0  0  0  0  0
  -10.4906   -0.6156  -15.9934 H   0  0  0  0  0  0  0  0  0  0  0  0
   -9.8227   -2.1771  -15.5539 H   0  0  0  0  0  0  0  0  0  0  0  0
   -7.0914   -2.4613  -16.2420 H   0  0  0  0  0  0  0  0  0  0  0  0
   -6.2965   -0.9884  -16.8333 H   0  0  0  0  0  0  0  0  0  0  0  0
  -10.8864    0.3472  -11.8782 H   0  0  0  0  0  0  0  0  0  0  0  0
  -10.8329   -1.2747  -11.1977 H   0  0  0  0  0  0  0  0  0  0  0  0
   -7.4970    1.1417  -10.5926 H   0  0  0  0  0  0  0  0  0  0  0  0
   -8.8330    1.8437  -11.4978 H   0  0  0  0  0  0  0  0  0  0  0  0
   -7.7771    2.1935  -14.6972 H   0  0  0  0  0  0  0  0  0  0  0  0
   -9.2326    2.6915  -15.5231 H   0  0  0  0  0  0  0  0  0  0  0  0
  -10.9085   -2.3949  -17.7318 H   0  0  0  0  0  0  0  0  0  0  0  0
  -10.0911   -0.9543  -18.3414 H   0  0  0  0  0  0  0  0  0  0  0  0
   -7.8188   -0.9931  -18.8034 H   0  0  0  0  0  0  0  0  0  0  0  0
   -6.9064   -2.4991  -18.7041 H   0  0  0  0  0  0  0  0  0  0  0  0
   -6.4967    0.8063  -17.6454 H   0  0  0  0  0  0  0  0  0  0  0  0
   -6.1836    1.2250  -15.9501 H   0  0  0  0  0  0  0  0  0  0  0  0
   -6.8697    2.4357  -17.0507 H   0  0  0  0  0  0  0  0  0  0  0  0
   -8.9070    0.7140  -18.4640 H   0  0  0  0  0  0  0  0  0  0  0  0
   -9.0366    2.3619  -17.8198 H   0  0  0  0  0  0  0  0  0  0  0  0
  -10.2060    1.1220  -17.3265 H   0  0  0  0  0  0  0  0  0  0  0  0
   -9.6041    0.2846   -9.8884 H   0  0  0  0  0  0  0  0  0  0  0  0
   -9.7333    1.6803  -13.4686 H   0  0  0  0  0  0  0  0  0  0  0  0
  1  5  1  0  0  0  0
  1 12  1  0  0  0  0
  2  6  1  0  0  0  0
  2 12  1  0  0  0  0
  3  8  1  0  0  0  0
  3 10  1  0  0  0  0
  4  9  1  0  0  0  0
  4 10  1  0  0  0  0
  5 15  1  0  0  0  0
  6 15  1  0  0  0  0
  7 11  1  0  0  0  0
  7 16  1  0  0  0  0
  8 17  1  0  0  0  0
  9 17  1  0  0  0  0
 10 11  1  0  0  0  0
 10 18  1  0  0  0  0
 11 13  1  0  0  0  0
 11 14  1  0  0  0  0
 12 16  1  0  0  0  0
 12 18  1  0  0  0  0
  1 19  1  0  0  0  0
  1 20  1  0  0  0  0
  2 21  1  0  0  0  0
  2 22  1  0  0  0  0
  3 23  1  0  0  0  0
  3 24  1  0  0  0  0
  4 25  1  0  0  0  0
  4 26  1  0  0  0  0
  5 27  1  0  0  0  0
  5 28  1  0  0  0  0
  6 29  1  0  0  0  0
  6 30  1  0  0  0  0
  7 31  1  0  0  0  0
  7 32  1  0  0  0  0
  8 33  1  0  0  0  0
  8 34  1  0  0  0  0
  9 35  1  0  0  0  0
  9 36  1  0  0  0  0
 13 37  1  0  0  0  0
 13 38  1  0  0  0  0
 13 39  1  0  0  0  0
 14 40  1  0  0  0  0
 14 41  1  0  0  0  0
 14 42  1  0  0  0  0
 15 43  1  0  0  0  0
 16 44  1  0  0  0  0
M  END
> <id>
EN300-1280257

> <smiles>
CC1(C)CNC2(CCNCC2)OC31CCOCC3

> <IUPAC Name>
16,16-dimethyl-3,7-dioxa-11,14-diazadispiro[5.1.5^{8}.3^{6}]hexadecane

> <CAS>
2171874-82-9

> <URL>
https://www.enaminestore.com/catalog/EN300-1280257

> <ROCS_ShapeQuery>
amalgated

> <ROCS_TanimotoCombo>
0.811 

> <ROCS_ShapeTanimoto>
0.570 

> <ROCS_ColorTanimoto>
0.241 

> <ROCS_RefTversky>
0.548 

> <ROCS_RefColorTversky>
0.462 

> <ROCS_RefTverskyCombo>
1.010 

> <ROCS_FitTversky>
1.076 

> <ROCS_FitColorTversky>
0.336 

> <ROCS_FitTverskyCombo>
1.412 

> <ROCS_ColorScore>
-3.306

> <ROCS_Overlap>
901.515

> <ROCS_Rank>
489                 

$$$$
untitled-dbase-34266_126
  -OEChem-10092318153D

 38 39  0     1  0  0  0  0  0999 V2000
   -7.9345   -0.4772  -14.7524 C   0  0  0  0  0  0  0  0  0  0  0  0
  -10.0788   -3.2651  -18.1072 C   0  0  0  0  0  0  0  0  0  0  0  0
   -9.6699   -1.6185  -16.1822 C   0  0  0  0  0  0  0  0  0  0  0  0
   -7.4597   -1.2829  -17.0544 C   0  0  0  0  0  0  0  0  0  0  0  0
   -9.7651   -1.8337  -17.6901 C   0  0  1  0  0  0  0  0  0  0  0  0
   -8.3616   -1.5607  -18.2516 C   0  0  2  0  0  0  0  0  0  0  0  0
   -8.7099   -3.8724  -18.3851 C   0  0  1  0  0  0  0  0  0  0  0  0
   -8.7753   -5.0835  -19.3024 C   0  0  0  0  0  0  0  0  0  0  0  0
   -9.5933    0.9980  -12.9517 C   0  0  0  0  0  0  0  0  0  0  0  0
   -9.4262   -1.0063  -11.4470 C   0  0  0  0  0  0  0  0  0  0  0  0
   -7.3554    0.2802  -12.0512 C   0  0  0  0  0  0  0  0  0  0  0  0
   -8.7278   -0.1892  -12.5318 C   0  0  0  0  0  0  0  0  0  0  0  0
   -7.9562   -2.7618  -18.9932 N   0  0  0  0  0  0  0  0  0  0  0  0
   -8.3565   -1.0468  -15.9434 N   0  0  0  0  0  0  0  0  0  0  0  0
   -7.1068    0.4280  -14.6752 O   0  0  0  0  0  0  0  0  0  0  0  0
   -8.5458   -1.0442  -13.6660 O   0  0  0  0  0  0  0  0  0  0  0  0
  -10.5669   -3.8095  -17.2905 H   0  0  0  0  0  0  0  0  0  0  0  0
  -10.7547   -3.2889  -18.9669 H   0  0  0  0  0  0  0  0  0  0  0  0
  -10.4135   -0.8839  -15.8419 H   0  0  0  0  0  0  0  0  0  0  0  0
   -9.8077   -2.5399  -15.6002 H   0  0  0  0  0  0  0  0  0  0  0  0
   -6.8205   -2.1404  -16.7887 H   0  0  0  0  0  0  0  0  0  0  0  0
   -6.7966   -0.4188  -17.2122 H   0  0  0  0  0  0  0  0  0  0  0  0
  -10.5178   -1.1490  -18.1436 H   0  0  0  0  0  0  0  0  0  0  0  0
   -8.3633   -0.6852  -18.9194 H   0  0  0  0  0  0  0  0  0  0  0  0
   -8.2358   -4.1505  -17.4463 H   0  0  0  0  0  0  0  0  0  0  0  0
   -9.2494   -4.8092  -20.2436 H   0  0  0  0  0  0  0  0  0  0  0  0
   -9.3547   -5.8748  -18.8291 H   0  0  0  0  0  0  0  0  0  0  0  0
   -7.7696   -5.4496  -19.5035 H   0  0  0  0  0  0  0  0  0  0  0  0
   -9.0955    1.5870  -13.7303 H   0  0  0  0  0  0  0  0  0  0  0  0
  -10.5675    0.6727  -13.3312 H   0  0  0  0  0  0  0  0  0  0  0  0
   -9.7599    1.6781  -12.1086 H   0  0  0  0  0  0  0  0  0  0  0  0
   -8.8087   -1.8591  -11.1427 H   0  0  0  0  0  0  0  0  0  0  0  0
  -10.3684   -1.4246  -11.8192 H   0  0  0  0  0  0  0  0  0  0  0  0
   -9.6418   -0.4006  -10.5609 H   0  0  0  0  0  0  0  0  0  0  0  0
   -6.7344   -0.5712  -11.7499 H   0  0  0  0  0  0  0  0  0  0  0  0
   -6.8241    0.8370  -12.8299 H   0  0  0  0  0  0  0  0  0  0  0  0
   -7.4503    0.9216  -11.1676 H   0  0  0  0  0  0  0  0  0  0  0  0
   -8.2268   -2.6552  -19.9580 H   0  0  0  0  0  0  0  0  0  0  0  0
  1 14  1  0  0  0  0
  1 15  2  0  0  0  0
  1 16  1  0  0  0  0
  2  5  1  1  0  0  0
  2  7  1  0  0  0  0
  3  5  1  0  0  0  0
  3 14  1  0  0  0  0
  4  6  1  1  0  0  0
  4 14  1  0  0  0  0
  5  6  1  0  0  0  0
  6 13  1  0  0  0  0
  7  8  1  6  0  0  0
  7 13  1  0  0  0  0
  9 12  1  0  0  0  0
 10 12  1  0  0  0  0
 11 12  1  0  0  0  0
 12 16  1  0  0  0  0
  2 17  1  0  0  0  0
  2 18  1  0  0  0  0
  3 19  1  0  0  0  0
  3 20  1  0  0  0  0
  4 21  1  0  0  0  0
  4 22  1  0  0  0  0
  5 23  1  0  0  0  0
  6 24  1  0  0  0  0
  7 25  1  0  0  0  0
  8 26  1  0  0  0  0
  8 27  1  0  0  0  0
  8 28  1  0  0  0  0
  9 29  1  0  0  0  0
  9 30  1  0  0  0  0
  9 31  1  0  0  0  0
 10 32  1  0  0  0  0
 10 33  1  0  0  0  0
 10 34  1  0  0  0  0
 11 35  1  0  0  0  0
 11 36  1  0  0  0  0
 11 37  1  0  0  0  0
 13 38  1  0  0  0  0
M  END
> <id>
EN300-367258

> <smiles>
C[C@@H]1C[C@H]2CN(C[C@H]2N1)C(=O)OC(C)(C)C |&1:1,3,7,r|

> <IUPAC Name>
rac-tert-butyl (2R,3aS,6aS)-2-methyl-octahydropyrrolo[2,3-c]pyrrole-5-carboxylate

> <CAS>
2095396-42-0

> <Purity>
95

> <URL>
https://www.enaminestore.com/catalog/EN300-367258

> <ROCS_ShapeQuery>
amalgated

> <ROCS_TanimotoCombo>
0.811 

> <ROCS_ShapeTanimoto>
0.510 

> <ROCS_ColorTanimoto>
0.301 

> <ROCS_RefTversky>
0.493 

> <ROCS_RefColorTversky>
0.436 

> <ROCS_RefTverskyCombo>
0.929 

> <ROCS_FitTversky>
1.074 

> <ROCS_FitColorTversky>
0.494 

> <ROCS_FitTverskyCombo>
1.568 

> <ROCS_ColorScore>
-3.032

> <ROCS_Overlap>
808.665

> <ROCS_Rank>
490                 

$$$$
untitled-dbase-27015_204
  -OEChem-10092318153D

 42 43  0     1  0  0  0  0  0999 V2000
   -9.7103    0.5209  -12.5379 C   0  0  0  0  0  0  0  0  0  0  0  0
   -7.4524   -0.7932  -15.0809 C   0  0  0  0  0  0  0  0  0  0  0  0
   -8.8764    0.9855  -16.1994 C   0  0  0  0  0  0  0  0  0  0  0  0
   -7.7746   -0.8187  -17.6149 C   0  0  0  0  0  0  0  0  0  0  0  0
   -7.6092    0.1601  -13.8917 C   0  0  0  0  0  0  0  0  0  0  0  0
   -9.5934    1.2838  -14.8810 C   0  0  0  0  0  0  0  0  0  0  0  0
   -9.4704   -2.3693  -17.1437 C   0  0  0  0  0  0  0  0  0  0  0  0
   -8.0715   -2.3004  -17.7277 C   0  0  1  0  0  0  0  0  0  0  0  0
   -8.3985   -0.4688  -16.2616 C   0  0  0  0  0  0  0  0  0  0  0  0
  -10.2979   -1.9875  -12.0439 C   0  0  0  0  0  0  0  0  0  0  0  0
   -8.3422   -2.0875  -10.4709 C   0  0  0  0  0  0  0  0  0  0  0  0
  -10.4327   -0.8726   -9.7915 C   0  0  0  0  0  0  0  0  0  0  0  0
   -9.5194   -1.2457  -10.9583 C   0  0  0  0  0  0  0  0  0  0  0  0
   -8.9895    0.6123  -13.7325 N   0  0  0  0  0  0  0  0  0  0  0  0
   -7.9876   -2.8147  -19.0828 N   0  0  0  0  0  0  0  0  0  0  0  0
  -10.8723    0.9020  -12.4055 O   0  0  0  0  0  0  0  0  0  0  0  0
   -9.5534   -1.3367  -16.1473 O   0  0  0  0  0  0  0  0  0  0  0  0
   -8.9853   -0.0425  -11.5221 O   0  0  0  0  0  0  0  0  0  0  0  0
   -6.4055   -0.7617  -15.4261 H   0  0  0  0  0  0  0  0  0  0  0  0
   -7.6327   -1.8167  -14.7160 H   0  0  0  0  0  0  0  0  0  0  0  0
   -9.5735    1.1877  -17.0173 H   0  0  0  0  0  0  0  0  0  0  0  0
   -8.0259    1.6649  -16.3070 H   0  0  0  0  0  0  0  0  0  0  0  0
   -6.7077   -0.5867  -17.6774 H   0  0  0  0  0  0  0  0  0  0  0  0
   -8.2803   -0.2706  -18.4198 H   0  0  0  0  0  0  0  0  0  0  0  0
   -7.3208   -0.3403  -12.9566 H   0  0  0  0  0  0  0  0  0  0  0  0
   -6.9329    1.0157  -14.0159 H   0  0  0  0  0  0  0  0  0  0  0  0
   -9.6330    2.3763  -14.7317 H   0  0  0  0  0  0  0  0  0  0  0  0
  -10.6458    0.9493  -14.9331 H   0  0  0  0  0  0  0  0  0  0  0  0
  -10.2446   -2.1607  -17.8919 H   0  0  0  0  0  0  0  0  0  0  0  0
   -9.6884   -3.3392  -16.6857 H   0  0  0  0  0  0  0  0  0  0  0  0
   -7.3800   -2.8619  -17.0894 H   0  0  0  0  0  0  0  0  0  0  0  0
  -11.1438   -1.3866  -12.3964 H   0  0  0  0  0  0  0  0  0  0  0  0
   -9.6622   -2.2301  -12.9017 H   0  0  0  0  0  0  0  0  0  0  0  0
  -10.7223   -2.9194  -11.6532 H   0  0  0  0  0  0  0  0  0  0  0  0
   -7.7808   -1.5591   -9.6918 H   0  0  0  0  0  0  0  0  0  0  0  0
   -7.6345   -2.2779  -11.2859 H   0  0  0  0  0  0  0  0  0  0  0  0
   -8.6733   -3.0498  -10.0673 H   0  0  0  0  0  0  0  0  0  0  0  0
   -9.8746   -0.3405   -9.0127 H   0  0  0  0  0  0  0  0  0  0  0  0
  -11.2632   -0.2375  -10.1165 H   0  0  0  0  0  0  0  0  0  0  0  0
  -10.8457   -1.7703   -9.3174 H   0  0  0  0  0  0  0  0  0  0  0  0
   -7.0540   -2.7036  -19.4090 H   0  0  0  0  0  0  0  0  0  0  0  0
   -8.2370   -3.7781  -19.0737 H   0  0  0  0  0  0  0  0  0  0  0  0
  1 14  1  0  0  0  0
  1 16  2  0  0  0  0
  1 18  1  0  0  0  0
  2  5  1  0  0  0  0
  2  9  1  0  0  0  0
  3  6  1  0  0  0  0
  3  9  1  0  0  0  0
  4  8  1  0  0  0  0
  4  9  1  0  0  0  0
  5 14  1  0  0  0  0
  6 14  1  0  0  0  0
  7  8  1  0  0  0  0
  7 17  1  0  0  0  0
  8 15  1  0  0  0  0
  9 17  1  0  0  0  0
 10 13  1  0  0  0  0
 11 13  1  0  0  0  0
 12 13  1  0  0  0  0
 13 18  1  0  0  0  0
  2 19  1  0  0  0  0
  2 20  1  0  0  0  0
  3 21  1  0  0  0  0
  3 22  1  0  0  0  0
  4 23  1  0  0  0  0
  4 24  1  0  0  0  0
  5 25  1  0  0  0  0
  5 26  1  0  0  0  0
  6 27  1  0  0  0  0
  6 28  1  0  0  0  0
  7 29  1  0  0  0  0
  7 30  1  0  0  0  0
  8 31  1  0  0  0  0
 10 32  1  0  0  0  0
 10 33  1  0  0  0  0
 10 34  1  0  0  0  0
 11 35  1  0  0  0  0
 11 36  1  0  0  0  0
 11 37  1  0  0  0  0
 12 38  1  0  0  0  0
 12 39  1  0  0  0  0
 12 40  1  0  0  0  0
 15 41  1  0  0  0  0
 15 42  1  0  0  0  0
M  END
> <id>
EN300-7433328

> <smiles>
Cl.CC(C)(C)OC(=O)N1CCC2(CC(N)CO2)CC1

> <MDLNUMBER>
MFCD32066715

> <IUPAC Name>
tert-butyl 3-amino-1-oxa-8-azaspiro[4.5]decane-8-carboxylate hydrochloride

> <CAS>
2361644-23-5

> <Purity>
95

> <URL>
https://www.enaminestore.com/catalog/EN300-7433328

> <Saltdate>
Cl

> <ROCS_ShapeQuery>
amalgated

> <ROCS_TanimotoCombo>
0.811 

> <ROCS_ShapeTanimoto>
0.548 

> <ROCS_ColorTanimoto>
0.263 

> <ROCS_RefTversky>
0.534 

> <ROCS_RefColorTversky>
0.417 

> <ROCS_RefTverskyCombo>
0.950 

> <ROCS_FitTversky>
1.053 

> <ROCS_FitColorTversky>
0.417 

> <ROCS_FitTverskyCombo>
1.470 

> <ROCS_ColorScore>
-2.916

> <ROCS_Overlap>
877.649

> <ROCS_Rank>
491                 

$$$$
untitled-dbase-29844_204
  -OEChem-10092318153D

 42 43  0     1  0  0  0  0  0999 V2000
   -9.7103    0.5209  -12.5379 C   0  0  0  0  0  0  0  0  0  0  0  0
   -7.4524   -0.7932  -15.0809 C   0  0  0  0  0  0  0  0  0  0  0  0
   -8.8764    0.9855  -16.1994 C   0  0  0  0  0  0  0  0  0  0  0  0
   -7.7746   -0.8187  -17.6149 C   0  0  0  0  0  0  0  0  0  0  0  0
   -7.6092    0.1601  -13.8917 C   0  0  0  0  0  0  0  0  0  0  0  0
   -9.5934    1.2838  -14.8810 C   0  0  0  0  0  0  0  0  0  0  0  0
   -9.4704   -2.3693  -17.1437 C   0  0  0  0  0  0  0  0  0  0  0  0
   -8.0715   -2.3004  -17.7277 C   0  0  1  0  0  0  0  0  0  0  0  0
   -8.3985   -0.4688  -16.2616 C   0  0  0  0  0  0  0  0  0  0  0  0
  -10.2979   -1.9875  -12.0439 C   0  0  0  0  0  0  0  0  0  0  0  0
   -8.3422   -2.0875  -10.4709 C   0  0  0  0  0  0  0  0  0  0  0  0
  -10.4327   -0.8726   -9.7915 C   0  0  0  0  0  0  0  0  0  0  0  0
   -9.5194   -1.2457  -10.9583 C   0  0  0  0  0  0  0  0  0  0  0  0
   -8.9895    0.6123  -13.7325 N   0  0  0  0  0  0  0  0  0  0  0  0
   -7.9876   -2.8147  -19.0828 N   0  0  0  0  0  0  0  0  0  0  0  0
  -10.8723    0.9020  -12.4055 O   0  0  0  0  0  0  0  0  0  0  0  0
   -9.5534   -1.3367  -16.1473 O   0  0  0  0  0  0  0  0  0  0  0  0
   -8.9853   -0.0425  -11.5221 O   0  0  0  0  0  0  0  0  0  0  0  0
   -6.4055   -0.7617  -15.4261 H   0  0  0  0  0  0  0  0  0  0  0  0
   -7.6327   -1.8167  -14.7160 H   0  0  0  0  0  0  0  0  0  0  0  0
   -9.5735    1.1877  -17.0173 H   0  0  0  0  0  0  0  0  0  0  0  0
   -8.0259    1.6649  -16.3070 H   0  0  0  0  0  0  0  0  0  0  0  0
   -6.7077   -0.5867  -17.6774 H   0  0  0  0  0  0  0  0  0  0  0  0
   -8.2803   -0.2706  -18.4198 H   0  0  0  0  0  0  0  0  0  0  0  0
   -7.3208   -0.3403  -12.9566 H   0  0  0  0  0  0  0  0  0  0  0  0
   -6.9329    1.0157  -14.0159 H   0  0  0  0  0  0  0  0  0  0  0  0
   -9.6330    2.3763  -14.7317 H   0  0  0  0  0  0  0  0  0  0  0  0
  -10.6458    0.9493  -14.9331 H   0  0  0  0  0  0  0  0  0  0  0  0
  -10.2446   -2.1607  -17.8919 H   0  0  0  0  0  0  0  0  0  0  0  0
   -9.6884   -3.3392  -16.6857 H   0  0  0  0  0  0  0  0  0  0  0  0
   -7.3800   -2.8619  -17.0894 H   0  0  0  0  0  0  0  0  0  0  0  0
  -11.1438   -1.3866  -12.3964 H   0  0  0  0  0  0  0  0  0  0  0  0
   -9.6622   -2.2301  -12.9017 H   0  0  0  0  0  0  0  0  0  0  0  0
  -10.7223   -2.9194  -11.6532 H   0  0  0  0  0  0  0  0  0  0  0  0
   -7.7808   -1.5591   -9.6918 H   0  0  0  0  0  0  0  0  0  0  0  0
   -7.6345   -2.2779  -11.2859 H   0  0  0  0  0  0  0  0  0  0  0  0
   -8.6733   -3.0498  -10.0673 H   0  0  0  0  0  0  0  0  0  0  0  0
   -9.8746   -0.3405   -9.0127 H   0  0  0  0  0  0  0  0  0  0  0  0
  -11.2632   -0.2375  -10.1165 H   0  0  0  0  0  0  0  0  0  0  0  0
  -10.8457   -1.7703   -9.3174 H   0  0  0  0  0  0  0  0  0  0  0  0
   -7.0540   -2.7036  -19.4090 H   0  0  0  0  0  0  0  0  0  0  0  0
   -8.2370   -3.7781  -19.0737 H   0  0  0  0  0  0  0  0  0  0  0  0
  1 14  1  0  0  0  0
  1 16  2  0  0  0  0
  1 18  1  0  0  0  0
  2  5  1  0  0  0  0
  2  9  1  0  0  0  0
  3  6  1  0  0  0  0
  3  9  1  0  0  0  0
  4  8  1  0  0  0  0
  4  9  1  0  0  0  0
  5 14  1  0  0  0  0
  6 14  1  0  0  0  0
  7  8  1  0  0  0  0
  7 17  1  0  0  0  0
  8 15  1  0  0  0  0
  9 17  1  0  0  0  0
 10 13  1  0  0  0  0
 11 13  1  0  0  0  0
 12 13  1  0  0  0  0
 13 18  1  0  0  0  0
  2 19  1  0  0  0  0
  2 20  1  0  0  0  0
  3 21  1  0  0  0  0
  3 22  1  0  0  0  0
  4 23  1  0  0  0  0
  4 24  1  0  0  0  0
  5 25  1  0  0  0  0
  5 26  1  0  0  0  0
  6 27  1  0  0  0  0
  6 28  1  0  0  0  0
  7 29  1  0  0  0  0
  7 30  1  0  0  0  0
  8 31  1  0  0  0  0
 10 32  1  0  0  0  0
 10 33  1  0  0  0  0
 10 34  1  0  0  0  0
 11 35  1  0  0  0  0
 11 36  1  0  0  0  0
 11 37  1  0  0  0  0
 12 38  1  0  0  0  0
 12 39  1  0  0  0  0
 12 40  1  0  0  0  0
 15 41  1  0  0  0  0
 15 42  1  0  0  0  0
M  END
> <id>
EN300-3145078

> <smiles>
CC(C)(C)OC(=O)N1CCC2(CC(N)CO2)CC1

> <MDLNUMBER>
MFCD12198529

> <IUPAC Name>
tert-butyl 3-amino-1-oxa-8-azaspiro[4.5]decane-8-carboxylate

> <CAS>
1160246-91-2

> <URL>
https://www.enaminestore.com/catalog/EN300-3145078

> <ROCS_ShapeQuery>
amalgated

> <ROCS_TanimotoCombo>
0.811 

> <ROCS_ShapeTanimoto>
0.548 

> <ROCS_ColorTanimoto>
0.263 

> <ROCS_RefTversky>
0.534 

> <ROCS_RefColorTversky>
0.417 

> <ROCS_RefTverskyCombo>
0.950 

> <ROCS_FitTversky>
1.053 

> <ROCS_FitColorTversky>
0.417 

> <ROCS_FitTverskyCombo>
1.470 

> <ROCS_ColorScore>
-2.916

> <ROCS_Overlap>
877.649

> <ROCS_Rank>
492                 

$$$$
untitled-dbase-15763_193
  -OEChem-10092318153D

 38 39  0     0  0  0  0  0  0999 V2000
   -8.2462    0.0438  -13.6958 C   0  0  0  0  0  0  0  0  0  0  0  0
  -10.2552   -2.4054  -17.9568 C   0  0  0  0  0  0  0  0  0  0  0  0
   -9.7355   -1.0360  -17.5062 C   0  0  0  0  0  0  0  0  0  0  0  0
   -9.1376   -3.3854  -18.3257 C   0  0  0  0  0  0  0  0  0  0  0  0
   -7.3460   -1.8100  -17.8868 C   0  0  0  0  0  0  0  0  0  0  0  0
   -8.3464   -1.8276  -15.4711 C   0  0  0  0  0  0  0  0  0  0  0  0
   -7.8072    0.1090  -16.2218 C   0  0  0  0  0  0  0  0  0  0  0  0
   -8.3404   -1.1865  -16.8907 C   0  0  0  0  0  0  0  0  0  0  0  0
   -9.7917    1.2975  -11.6486 C   0  0  0  0  0  0  0  0  0  0  0  0
  -10.3724   -1.0338  -10.9160 C   0  0  0  0  0  0  0  0  0  0  0  0
   -7.9818   -0.2654  -10.8637 C   0  0  0  0  0  0  0  0  0  0  0  0
   -9.3213   -0.1551  -11.5906 C   0  0  0  0  0  0  0  0  0  0  0  0
   -7.9936   -2.6764  -18.8819 N   0  0  0  0  0  0  0  0  0  0  0  0
   -8.1599   -0.4890  -14.9517 N   0  0  0  0  0  0  0  0  0  0  0  0
   -7.5909    1.0069  -13.3078 O   0  0  0  0  0  0  0  0  0  0  0  0
   -9.1540   -0.6336  -12.9297 O   0  0  0  0  0  0  0  0  0  0  0  0
  -10.8768   -2.8451  -17.1549 H   0  0  0  0  0  0  0  0  0  0  0  0
  -10.9288   -2.2735  -18.8218 H   0  0  0  0  0  0  0  0  0  0  0  0
   -9.6926   -0.3601  -18.3716 H   0  0  0  0  0  0  0  0  0  0  0  0
  -10.4411   -0.5909  -16.7924 H   0  0  0  0  0  0  0  0  0  0  0  0
   -8.8226   -3.9293  -17.4308 H   0  0  0  0  0  0  0  0  0  0  0  0
   -9.5052   -4.1298  -19.0391 H   0  0  0  0  0  0  0  0  0  0  0  0
   -6.7776   -1.0159  -18.4078 H   0  0  0  0  0  0  0  0  0  0  0  0
   -6.5835   -2.4074  -17.3531 H   0  0  0  0  0  0  0  0  0  0  0  0
   -9.2920   -2.2709  -15.1458 H   0  0  0  0  0  0  0  0  0  0  0  0
   -7.5199   -2.5052  -15.2435 H   0  0  0  0  0  0  0  0  0  0  0  0
   -6.7370    0.3027  -16.3349 H   0  0  0  0  0  0  0  0  0  0  0  0
   -8.3735    1.0241  -16.4209 H   0  0  0  0  0  0  0  0  0  0  0  0
   -9.0399    1.9316  -12.1322 H   0  0  0  0  0  0  0  0  0  0  0  0
  -10.7339    1.3948  -12.1978 H   0  0  0  0  0  0  0  0  0  0  0  0
   -9.9353    1.7026  -10.6404 H   0  0  0  0  0  0  0  0  0  0  0  0
  -10.0390   -2.0770  -10.8722 H   0  0  0  0  0  0  0  0  0  0  0  0
  -11.3075   -1.0324  -11.4876 H   0  0  0  0  0  0  0  0  0  0  0  0
  -10.5882   -0.6958   -9.8973 H   0  0  0  0  0  0  0  0  0  0  0  0
   -7.6441   -1.3073  -10.8219 H   0  0  0  0  0  0  0  0  0  0  0  0
   -7.2057    0.3299  -11.3556 H   0  0  0  0  0  0  0  0  0  0  0  0
   -8.0733    0.0718   -9.8249 H   0  0  0  0  0  0  0  0  0  0  0  0
   -7.3092   -3.3523  -19.2302 H   0  0  0  0  0  0  0  0  0  0  0  0
  1 14  1  0  0  0  0
  1 15  2  0  0  0  0
  1 16  1  0  0  0  0
  2  3  1  0  0  0  0
  2  4  1  0  0  0  0
  3  8  1  0  0  0  0
  4 13  1  0  0  0  0
  5  8  1  0  0  0  0
  5 13  1  0  0  0  0
  6  8  1  0  0  0  0
  6 14  1  0  0  0  0
  7  8  1  0  0  0  0
  7 14  1  0  0  0  0
  9 12  1  0  0  0  0
 10 12  1  0  0  0  0
 11 12  1  0  0  0  0
 12 16  1  0  0  0  0
  2 17  1  0  0  0  0
  2 18  1  0  0  0  0
  3 19  1  0  0  0  0
  3 20  1  0  0  0  0
  4 21  1  0  0  0  0
  4 22  1  0  0  0  0
  5 23  1  0  0  0  0
  5 24  1  0  0  0  0
  6 25  1  0  0  0  0
  6 26  1  0  0  0  0
  7 27  1  0  0  0  0
  7 28  1  0  0  0  0
  9 29  1  0  0  0  0
  9 30  1  0  0  0  0
  9 31  1  0  0  0  0
 10 32  1  0  0  0  0
 10 33  1  0  0  0  0
 10 34  1  0  0  0  0
 11 35  1  0  0  0  0
 11 36  1  0  0  0  0
 11 37  1  0  0  0  0
 13 38  1  0  0  0  0
M  END
> <id>
EN300-735817

> <smiles>
CC(C)(C)OC(=O)N1CC2(C1)CCCNC2

> <MDLNUMBER>
MFCD11053736

> <IUPAC Name>
tert-butyl 2,6-diazaspiro[3.5]nonane-2-carboxylate

> <CAS>
1086394-57-1

> <Purity>
95

> <URL>
https://www.enaminestore.com/catalog/EN300-735817

> <ROCS_ShapeQuery>
amalgated

> <ROCS_TanimotoCombo>
0.811 

> <ROCS_ShapeTanimoto>
0.573 

> <ROCS_ColorTanimoto>
0.238 

> <ROCS_RefTversky>
0.530 

> <ROCS_RefColorTversky>
0.360 

> <ROCS_RefTverskyCombo>
0.890 

> <ROCS_FitTversky>
1.164 

> <ROCS_FitColorTversky>
0.413 

> <ROCS_FitTverskyCombo>
1.577 

> <ROCS_ColorScore>
-2.502

> <ROCS_Overlap>
869.812

> <ROCS_Rank>
493                 

$$$$
untitled-dbase-6899_21
  -OEChem-10092318153D

 44 45  0     1  0  0  0  0  0999 V2000
   -8.8267    0.6940  -15.5061 C   0  0  0  0  0  0  0  0  0  0  0  0
   -6.2032    1.5432  -18.6213 C   0  0  0  0  0  0  0  0  0  0  0  0
   -5.8407    0.7045  -17.4053 C   0  0  0  0  0  0  0  0  0  0  0  0
   -7.7046    1.7546  -18.7367 C   0  0  0  0  0  0  0  0  0  0  0  0
   -6.5288   -0.6551  -17.4515 C   0  0  0  0  0  0  0  0  0  0  0  0
   -8.5004    0.4520  -18.6812 C   0  0  0  0  0  0  0  0  0  0  0  0
   -8.7620   -2.7836  -16.7775 C   0  0  0  0  0  0  0  0  0  0  0  0
   -9.2771   -1.7322  -15.8156 C   0  0  0  0  0  0  0  0  0  0  0  0
   -8.6540   -1.9944  -18.0757 C   0  0  1  0  0  0  0  0  0  0  0  0
   -8.0698   -0.6024  -17.6281 C   0  0  0  0  0  0  0  0  0  0  0  0
   -8.3239    2.1926  -13.1154 C   0  0  0  0  0  0  0  0  0  0  0  0
   -9.6055    0.3853  -11.9320 C   0  0  0  0  0  0  0  0  0  0  0  0
   -7.4694   -0.1747  -13.1286 C   0  0  0  0  0  0  0  0  0  0  0  0
   -8.7119    0.7147  -13.1258 C   0  0  0  0  0  0  0  0  0  0  0  0
   -8.7356   -0.4543  -16.2890 N   0  0  0  0  0  0  0  0  0  0  0  0
   -7.9441   -2.7383  -19.1059 N   0  0  0  0  0  0  0  0  0  0  0  0
   -8.4081    1.8052  -15.8085 O   0  0  0  0  0  0  0  0  0  0  0  0
   -9.4653    0.4495  -14.3150 O   0  0  0  0  0  0  0  0  0  0  0  0
   -5.7006    2.5173  -18.5539 H   0  0  0  0  0  0  0  0  0  0  0  0
   -5.8265    1.0576  -19.5297 H   0  0  0  0  0  0  0  0  0  0  0  0
   -4.7603    0.5955  -17.3482 H   0  0  0  0  0  0  0  0  0  0  0  0
   -6.1460    1.2323  -16.5005 H   0  0  0  0  0  0  0  0  0  0  0  0
   -8.0369    2.4074  -17.9076 H   0  0  0  0  0  0  0  0  0  0  0  0
   -7.9452    2.3222  -19.6519 H   0  0  0  0  0  0  0  0  0  0  0  0
   -6.0697   -1.2667  -18.2372 H   0  0  0  0  0  0  0  0  0  0  0  0
   -6.2915   -1.1559  -16.5047 H   0  0  0  0  0  0  0  0  0  0  0  0
   -9.5636    0.7395  -18.5200 H   0  0  0  0  0  0  0  0  0  0  0  0
   -8.5070   -0.0067  -19.6984 H   0  0  0  0  0  0  0  0  0  0  0  0
   -7.7863   -3.1529  -16.4421 H   0  0  0  0  0  0  0  0  0  0  0  0
   -9.4451   -3.6339  -16.8568 H   0  0  0  0  0  0  0  0  0  0  0  0
  -10.3722   -1.6565  -15.8486 H   0  0  0  0  0  0  0  0  0  0  0  0
   -8.9739   -1.9290  -14.7798 H   0  0  0  0  0  0  0  0  0  0  0  0
   -9.6745   -1.8259  -18.4547 H   0  0  0  0  0  0  0  0  0  0  0  0
   -7.6824    2.4331  -13.9708 H   0  0  0  0  0  0  0  0  0  0  0  0
   -9.2053    2.8413  -13.1486 H   0  0  0  0  0  0  0  0  0  0  0  0
   -7.7464    2.4390  -12.2171 H   0  0  0  0  0  0  0  0  0  0  0  0
   -9.8863   -0.6741  -11.9354 H   0  0  0  0  0  0  0  0  0  0  0  0
  -10.5419    0.9530  -11.9771 H   0  0  0  0  0  0  0  0  0  0  0  0
   -9.1095    0.6094  -10.9821 H   0  0  0  0  0  0  0  0  0  0  0  0
   -7.7474   -1.2349  -13.1360 H   0  0  0  0  0  0  0  0  0  0  0  0
   -6.8344    0.0221  -13.9985 H   0  0  0  0  0  0  0  0  0  0  0  0
   -6.8754   -0.0172  -12.2211 H   0  0  0  0  0  0  0  0  0  0  0  0
   -8.4182   -3.5992  -19.2606 H   0  0  0  0  0  0  0  0  0  0  0  0
   -7.9337   -2.1954  -19.9396 H   0  0  0  0  0  0  0  0  0  0  0  0
  1 15  1  0  0  0  0
  1 17  2  0  0  0  0
  1 18  1  0  0  0  0
  2  3  1  0  0  0  0
  2  4  1  0  0  0  0
  3  5  1  0  0  0  0
  4  6  1  0  0  0  0
  5 10  1  0  0  0  0
  6 10  1  0  0  0  0
  7  8  1  0  0  0  0
  7  9  1  0  0  0  0
  8 15  1  0  0  0  0
  9 10  1  0  0  0  0
  9 16  1  0  0  0  0
 10 15  1  0  0  0  0
 11 14  1  0  0  0  0
 12 14  1  0  0  0  0
 13 14  1  0  0  0  0
 14 18  1  0  0  0  0
  2 19  1  0  0  0  0
  2 20  1  0  0  0  0
  3 21  1  0  0  0  0
  3 22  1  0  0  0  0
  4 23  1  0  0  0  0
  4 24  1  0  0  0  0
  5 25  1  0  0  0  0
  5 26  1  0  0  0  0
  6 27  1  0  0  0  0
  6 28  1  0  0  0  0
  7 29  1  0  0  0  0
  7 30  1  0  0  0  0
  8 31  1  0  0  0  0
  8 32  1  0  0  0  0
  9 33  1  0  0  0  0
 11 34  1  0  0  0  0
 11 35  1  0  0  0  0
 11 36  1  0  0  0  0
 12 37  1  0  0  0  0
 12 38  1  0  0  0  0
 12 39  1  0  0  0  0
 13 40  1  0  0  0  0
 13 41  1  0  0  0  0
 13 42  1  0  0  0  0
 16 43  1  0  0  0  0
 16 44  1  0  0  0  0
M  END
> <id>
EN300-20985658

> <smiles>
CC(C)(C)OC(=O)N1CCC(N)C21CCCCC2

> <MDLNUMBER>
MFCD28987416

> <IUPAC Name>
tert-butyl 4-amino-1-azaspiro[4.5]decane-1-carboxylate

> <CAS>
1936371-44-6

> <Purity>
95

> <URL>
https://www.enaminestore.com/catalog/EN300-20985658

> <ROCS_ShapeQuery>
amalgated

> <ROCS_TanimotoCombo>
0.811 

> <ROCS_ShapeTanimoto>
0.514 

> <ROCS_ColorTanimoto>
0.297 

> <ROCS_RefTversky>
0.510 

> <ROCS_RefColorTversky>
0.428 

> <ROCS_RefTverskyCombo>
0.938 

> <ROCS_FitTversky>
1.016 

> <ROCS_FitColorTversky>
0.492 

> <ROCS_FitTverskyCombo>
1.508 

> <ROCS_ColorScore>
-2.977

> <ROCS_Overlap>
838.704

> <ROCS_Rank>
494                 

$$$$
untitled-dbase-18334_200
  -OEChem-10092318153D

 39 40  0     0  0  0  0  0  0999 V2000
   -8.2699   -2.2341  -18.1513 C   0  0  0  0  0  0  0  0  0  0  0  0
   -9.1803    0.4881  -12.7615 C   0  0  0  0  0  0  0  0  0  0  0  0
   -8.3690    0.7286  -16.4458 C   0  0  0  0  0  0  0  0  0  0  0  0
   -7.3216   -1.2967  -15.3397 C   0  0  0  0  0  0  0  0  0  0  0  0
   -8.9769    1.1840  -15.1202 C   0  0  0  0  0  0  0  0  0  0  0  0
   -7.2395   -0.3199  -14.1630 C   0  0  0  0  0  0  0  0  0  0  0  0
   -9.5686   -1.5066  -16.5275 C   0  0  0  0  0  0  0  0  0  0  0  0
   -8.2195   -0.7942  -16.4968 C   0  0  0  0  0  0  0  0  0  0  0  0
  -11.2583   -0.4313  -11.0234 C   0  0  0  0  0  0  0  0  0  0  0  0
   -9.5443   -2.0326  -10.1251 C   0  0  0  0  0  0  0  0  0  0  0  0
   -9.1853    0.4425   -9.8949 C   0  0  0  0  0  0  0  0  0  0  0  0
   -9.7702   -0.6662  -10.7686 C   0  0  0  0  0  0  0  0  0  0  0  0
   -7.5944   -1.1921  -17.7740 N   0  0  0  0  0  0  0  0  0  0  0  0
   -8.4907    0.4145  -13.9755 N   0  0  0  0  0  0  0  0  0  0  0  0
   -8.0526   -3.0315  -19.2339 N   0  0  0  0  0  0  0  0  0  0  0  0
   -9.8082    1.4771  -12.3867 O   0  0  0  0  0  0  0  0  0  0  0  0
   -9.3482   -2.6053  -17.4017 O   0  0  0  0  0  0  0  0  0  0  0  0
   -9.0863   -0.6636  -12.0270 O   0  0  0  0  0  0  0  0  0  0  0  0
   -9.0136    1.0629  -17.2633 H   0  0  0  0  0  0  0  0  0  0  0  0
   -7.3983    1.2139  -16.5733 H   0  0  0  0  0  0  0  0  0  0  0  0
   -6.3027   -1.4991  -15.7039 H   0  0  0  0  0  0  0  0  0  0  0  0
   -7.7123   -2.2570  -14.9679 H   0  0  0  0  0  0  0  0  0  0  0  0
   -8.7314    2.2418  -14.9255 H   0  0  0  0  0  0  0  0  0  0  0  0
  -10.0758    1.1301  -15.1817 H   0  0  0  0  0  0  0  0  0  0  0  0
   -6.9569   -0.8701  -13.2565 H   0  0  0  0  0  0  0  0  0  0  0  0
   -6.4493    0.4252  -14.3366 H   0  0  0  0  0  0  0  0  0  0  0  0
   -9.8864   -1.8698  -15.5471 H   0  0  0  0  0  0  0  0  0  0  0  0
  -10.3686   -0.8910  -16.9501 H   0  0  0  0  0  0  0  0  0  0  0  0
  -11.4247    0.5485  -11.4853 H   0  0  0  0  0  0  0  0  0  0  0  0
  -11.6819   -1.2004  -11.6775 H   0  0  0  0  0  0  0  0  0  0  0  0
  -11.8205   -0.4290  -10.0826 H   0  0  0  0  0  0  0  0  0  0  0  0
   -8.4778   -2.2054   -9.9405 H   0  0  0  0  0  0  0  0  0  0  0  0
   -9.8766   -2.8373  -10.7909 H   0  0  0  0  0  0  0  0  0  0  0  0
  -10.0801   -2.1253   -9.1749 H   0  0  0  0  0  0  0  0  0  0  0  0
   -8.1179    0.2742   -9.7119 H   0  0  0  0  0  0  0  0  0  0  0  0
   -9.3055    1.4270  -10.3584 H   0  0  0  0  0  0  0  0  0  0  0  0
   -9.6687    0.4593   -8.9113 H   0  0  0  0  0  0  0  0  0  0  0  0
   -7.2870   -2.8213  -19.8384 H   0  0  0  0  0  0  0  0  0  0  0  0
   -8.6652   -3.8032  -19.3920 H   0  0  0  0  0  0  0  0  0  0  0  0
  1 13  2  0  0  0  0
  1 15  1  0  0  0  0
  1 17  1  0  0  0  0
  2 14  1  0  0  0  0
  2 16  2  0  0  0  0
  2 18  1  0  0  0  0
  3  5  1  0  0  0  0
  3  8  1  0  0  0  0
  4  6  1  0  0  0  0
  4  8  1  0  0  0  0
  5 14  1  0  0  0  0
  6 14  1  0  0  0  0
  7  8  1  0  0  0  0
  7 17  1  0  0  0  0
  8 13  1  0  0  0  0
  9 12  1  0  0  0  0
 10 12  1  0  0  0  0
 11 12  1  0  0  0  0
 12 18  1  0  0  0  0
  3 19  1  0  0  0  0
  3 20  1  0  0  0  0
  4 21  1  0  0  0  0
  4 22  1  0  0  0  0
  5 23  1  0  0  0  0
  5 24  1  0  0  0  0
  6 25  1  0  0  0  0
  6 26  1  0  0  0  0
  7 27  1  0  0  0  0
  7 28  1  0  0  0  0
  9 29  1  0  0  0  0
  9 30  1  0  0  0  0
  9 31  1  0  0  0  0
 10 32  1  0  0  0  0
 10 33  1  0  0  0  0
 10 34  1  0  0  0  0
 11 35  1  0  0  0  0
 11 36  1  0  0  0  0
 11 37  1  0  0  0  0
 15 38  1  0  0  0  0
 15 39  1  0  0  0  0
M  END
> <id>
EN300-1651545

> <smiles>
CC(C)(C)OC(=O)N1CCC2(COC(=N2)N)CC1

> <IUPAC Name>
tert-butyl 2-amino-3-oxa-1,8-diazaspiro[4.5]dec-1-ene-8-carboxylate

> <CAS>
2172495-80-4

> <Purity>
95

> <URL>
https://www.enaminestore.com/catalog/EN300-1651545

> <ROCS_ShapeQuery>
amalgated

> <ROCS_TanimotoCombo>
0.811 

> <ROCS_ShapeTanimoto>
0.591 

> <ROCS_ColorTanimoto>
0.220 

> <ROCS_RefTversky>
0.563 

> <ROCS_RefColorTversky>
0.337 

> <ROCS_RefTverskyCombo>
0.900 

> <ROCS_FitTversky>
1.094 

> <ROCS_FitColorTversky>
0.387 

> <ROCS_FitTverskyCombo>
1.481 

> <ROCS_ColorScore>
-2.341

> <ROCS_Overlap>
925.916

> <ROCS_Rank>
495                 

$$$$
untitled-dbase-17004_0
  -OEChem-10092318153D

 28 30  0     1  0  0  0  0  0999 V2000
   -7.7752    0.3590  -19.1602 C   0  0  0  0  0  0  0  0  0  0  0  0
   -7.0868    1.5330  -18.8776 C   0  0  0  0  0  0  0  0  0  0  0  0
   -7.1972    1.0014  -16.5276 C   0  0  0  0  0  0  0  0  0  0  0  0
   -8.1822   -0.5077  -18.1261 C   0  0  0  0  0  0  0  0  0  0  0  0
   -7.8968   -0.2010  -16.7703 C   0  0  0  0  0  0  0  0  0  0  0  0
   -6.7968    1.8541  -17.5600 C   0  0  0  0  0  0  0  0  0  0  0  0
   -9.6947   -2.3826  -17.3372 C   0  0  0  0  0  0  0  0  0  0  0  0
   -8.8421   -2.5021  -16.0789 C   0  0  0  0  0  0  0  0  0  0  0  0
   -7.7121   -1.0846  -14.2659 C   0  0  0  0  0  0  0  0  0  0  0  0
   -9.0814   -0.5029  -14.4503 C   0  0  0  0  0  0  0  0  0  0  0  0
   -8.9014   -1.7909  -18.5107 C   0  0  2  0  0  0  0  0  0  0  0  0
   -8.3645   -1.1310  -15.6347 C   0  0  0  0  0  0  0  0  0  0  0  0
   -7.9665   -2.7902  -19.0407 N   0  0  0  0  0  0  0  0  0  0  0  0
   -6.1373    2.9846  -17.2746 F   0  0  0  0  0  0  0  0  0  0  0  0
   -7.9944    0.1137  -20.1969 H   0  0  0  0  0  0  0  0  0  0  0  0
   -6.7780    2.1930  -19.6821 H   0  0  0  0  0  0  0  0  0  0  0  0
   -6.9585    1.3037  -15.5108 H   0  0  0  0  0  0  0  0  0  0  0  0
  -10.1026   -3.3649  -17.6060 H   0  0  0  0  0  0  0  0  0  0  0  0
  -10.5572   -1.7359  -17.1256 H   0  0  0  0  0  0  0  0  0  0  0  0
   -9.4336   -2.9856  -15.2916 H   0  0  0  0  0  0  0  0  0  0  0  0
   -7.9742   -3.1484  -16.2585 H   0  0  0  0  0  0  0  0  0  0  0  0
   -6.8899   -0.4066  -14.0772 H   0  0  0  0  0  0  0  0  0  0  0  0
   -7.6341   -2.0065  -13.6991 H   0  0  0  0  0  0  0  0  0  0  0  0
   -9.9174   -1.0322  -14.0077 H   0  0  0  0  0  0  0  0  0  0  0  0
   -9.1816    0.5751  -14.4013 H   0  0  0  0  0  0  0  0  0  0  0  0
   -9.6340   -1.5549  -19.3048 H   0  0  0  0  0  0  0  0  0  0  0  0
   -8.4902   -3.5925  -19.2911 H   0  0  0  0  0  0  0  0  0  0  0  0
   -7.5185   -2.3963  -19.8310 H   0  0  0  0  0  0  0  0  0  0  0  0
  1  2  1  0  0  0  0
  1  4  2  0  0  0  0
  2  6  2  0  0  0  0
  3  5  2  0  0  0  0
  3  6  1  0  0  0  0
  4  5  1  0  0  0  0
  4 11  1  0  0  0  0
  5 12  1  0  0  0  0
  6 14  1  0  0  0  0
  7  8  1  0  0  0  0
  7 11  1  0  0  0  0
  8 12  1  0  0  0  0
  9 10  1  0  0  0  0
  9 12  1  0  0  0  0
 10 12  1  0  0  0  0
 11 13  1  0  0  0  0
  1 15  1  0  0  0  0
  2 16  1  0  0  0  0
  3 17  1  0  0  0  0
  7 18  1  0  0  0  0
  7 19  1  0  0  0  0
  8 20  1  0  0  0  0
  8 21  1  0  0  0  0
  9 22  1  0  0  0  0
  9 23  1  0  0  0  0
 10 24  1  0  0  0  0
 10 25  1  0  0  0  0
 11 26  1  0  0  0  0
 13 27  1  0  0  0  0
 13 28  1  0  0  0  0
M  END
> <id>
EN300-1458111

> <smiles>
NC1CCC2(CC2)C=3C=C(F)C=CC13

> <IUPAC Name>
7'-fluoro-3',4'-dihydro-2'H-spiro[cyclopropane-1,1'-naphthalene]-4'-amine

> <CAS>
2168408-98-6

> <URL>
https://www.enaminestore.com/catalog/EN300-1458111

> <ROCS_ShapeQuery>
amalgated

> <ROCS_TanimotoCombo>
0.811 

> <ROCS_ShapeTanimoto>
0.433 

> <ROCS_ColorTanimoto>
0.378 

> <ROCS_RefTversky>
0.427 

> <ROCS_RefColorTversky>
0.440 

> <ROCS_RefTverskyCombo>
0.867 

> <ROCS_FitTversky>
1.035 

> <ROCS_FitColorTversky>
0.726 

> <ROCS_FitTverskyCombo>
1.761 

> <ROCS_ColorScore>
-3.016

> <ROCS_Overlap>
699.070

> <ROCS_Rank>
496                 

$$$$
untitled-dbase-16541_74
  -OEChem-10092318153D

 44 47  0     1  0  0  0  0  0999 V2000
   -8.4729   -2.2242  -17.9324 C   0  0  0  0  0  0  0  0  0  0  0  0
   -8.8654    1.5564  -12.0577 C   0  0  0  0  0  0  0  0  0  0  0  0
   -7.4593    1.0693  -17.8699 C   0  0  0  0  0  0  0  0  0  0  0  0
   -8.5825    1.7476  -17.1526 C   0  0  0  0  0  0  0  0  0  0  0  0
   -9.5988   -1.2975  -17.4579 C   0  0  0  0  0  0  0  0  0  0  0  0
   -7.8320   -2.0923  -16.5478 C   0  0  0  0  0  0  0  0  0  0  0  0
   -9.3357    0.9429  -13.3729 C   0  0  0  0  0  0  0  0  0  0  0  0
   -8.5900   -1.4987  -12.8761 C   0  0  0  0  0  0  0  0  0  0  0  0
   -8.5507    0.5727  -10.9308 C   0  0  0  0  0  0  0  0  0  0  0  0
   -9.7089   -1.4506  -11.8234 C   0  0  0  0  0  0  0  0  0  0  0  0
   -6.9819    0.8776  -15.3303 C   0  0  0  0  0  0  0  0  0  0  0  0
   -7.8880    0.5572  -16.5093 C   0  0  0  0  0  0  0  0  0  0  0  0
   -8.6617   -0.7730  -16.3108 C   0  0  0  0  0  0  0  0  0  0  0  0
   -8.5823   -0.3087  -13.8780 C   0  0  2  0  0  0  0  0  0  0  0  0
  -10.7580   -0.0725  -10.1301 C   0  0  0  0  0  0  0  0  0  0  0  0
   -7.1719   -0.0391  -14.2071 N   0  0  0  0  0  0  0  0  0  0  0  0
   -9.4952   -0.5193  -10.7077 N   0  0  2  0  0  0  0  0  0  0  0  0
   -9.3465   -0.7727  -15.0215 O   0  0  0  0  0  0  0  0  0  0  0  0
   -8.8100   -3.2440  -18.1709 H   0  0  0  0  0  0  0  0  0  0  0  0
   -7.8742   -1.8538  -18.7743 H   0  0  0  0  0  0  0  0  0  0  0  0
   -7.9532    2.1326  -12.2675 H   0  0  0  0  0  0  0  0  0  0  0  0
   -9.6009    2.2928  -11.7064 H   0  0  0  0  0  0  0  0  0  0  0  0
   -7.7001    0.4808  -18.7489 H   0  0  0  0  0  0  0  0  0  0  0  0
   -6.5168    1.6017  -17.9524 H   0  0  0  0  0  0  0  0  0  0  0  0
   -8.3967    2.7340  -16.7442 H   0  0  0  0  0  0  0  0  0  0  0  0
   -9.5844    1.6244  -17.5412 H   0  0  0  0  0  0  0  0  0  0  0  0
   -9.8830   -0.5307  -18.1970 H   0  0  0  0  0  0  0  0  0  0  0  0
  -10.5174   -1.8152  -17.1547 H   0  0  0  0  0  0  0  0  0  0  0  0
   -8.0522   -2.9207  -15.8581 H   0  0  0  0  0  0  0  0  0  0  0  0
   -6.7386   -1.9735  -16.5825 H   0  0  0  0  0  0  0  0  0  0  0  0
  -10.3994    0.7062  -13.2376 H   0  0  0  0  0  0  0  0  0  0  0  0
   -9.3079    1.7226  -14.1494 H   0  0  0  0  0  0  0  0  0  0  0  0
   -7.6228   -1.5758  -12.3859 H   0  0  0  0  0  0  0  0  0  0  0  0
   -8.7488   -2.4340  -13.4116 H   0  0  0  0  0  0  0  0  0  0  0  0
   -7.4906    0.1849  -11.0213 H   0  0  0  0  0  0  0  0  0  0  0  0
   -8.4849    1.2005   -9.9964 H   0  0  0  0  0  0  0  0  0  0  0  0
  -10.6296   -1.1601  -12.3252 H   0  0  0  0  0  0  0  0  0  0  0  0
   -9.8444   -2.4645  -11.4524 H   0  0  0  0  0  0  0  0  0  0  0  0
   -5.9143    0.8354  -15.6327 H   0  0  0  0  0  0  0  0  0  0  0  0
   -7.1324    1.9313  -15.0153 H   0  0  0  0  0  0  0  0  0  0  0  0
  -11.4228   -0.9372   -9.9872 H   0  0  0  0  0  0  0  0  0  0  0  0
  -10.5674    0.4077   -9.1590 H   0  0  0  0  0  0  0  0  0  0  0  0
  -11.2363    0.6493  -10.8085 H   0  0  0  0  0  0  0  0  0  0  0  0
   -6.6936   -0.9123  -14.4358 H   0  0  0  0  0  0  0  0  0  0  0  0
  1  5  1  0  0  0  0
  1  6  1  0  0  0  0
  2  7  1  0  0  0  0
  2  9  1  0  0  0  0
  3  4  1  0  0  0  0
  3 12  1  0  0  0  0
  4 12  1  0  0  0  0
  5 13  1  0  0  0  0
  6 13  1  0  0  0  0
  7 14  1  0  0  0  0
  8 10  1  0  0  0  0
  8 14  1  0  0  0  0
  9 17  1  0  0  0  0
 10 17  1  0  0  0  0
 11 12  1  0  0  0  0
 11 16  1  0  0  0  0
 12 13  1  0  0  0  0
 13 18  1  0  0  0  0
 14 16  1  0  0  0  0
 14 18  1  0  0  0  0
 15 17  1  0  0  0  0
  1 19  1  0  0  0  0
  1 20  1  0  0  0  0
  2 21  1  0  0  0  0
  2 22  1  0  0  0  0
  3 23  1  0  0  0  0
  3 24  1  0  0  0  0
  4 25  1  0  0  0  0
  4 26  1  0  0  0  0
  5 27  1  0  0  0  0
  5 28  1  0  0  0  0
  6 29  1  0  0  0  0
  6 30  1  0  0  0  0
  7 31  1  0  0  0  0
  7 32  1  0  0  0  0
  8 33  1  0  0  0  0
  8 34  1  0  0  0  0
  9 35  1  0  0  0  0
  9 36  1  0  0  0  0
 10 37  1  0  0  0  0
 10 38  1  0  0  0  0
 11 39  1  0  0  0  0
 11 40  1  0  0  0  0
 15 41  1  0  0  0  0
 15 42  1  0  0  0  0
 15 43  1  0  0  0  0
 16 44  1  0  0  0  0
M  END
> <id>
EN300-1280531

> <smiles>
CN1CCCC2(CC1)NCC3(CC3)C4(CCC4)O2

> <IUPAC Name>
12-methyl-8-oxa-12,16-diazatrispiro[2.0.3^{4}.1.6^{9}.2^{3}]heptadecane

> <URL>
https://www.enaminestore.com/catalog/EN300-1280531

> <ROCS_ShapeQuery>
amalgated

> <ROCS_TanimotoCombo>
0.811 

> <ROCS_ShapeTanimoto>
0.545 

> <ROCS_ColorTanimoto>
0.266 

> <ROCS_RefTversky>
0.532 

> <ROCS_RefColorTversky>
0.420 

> <ROCS_RefTverskyCombo>
0.953 

> <ROCS_FitTversky>
1.045 

> <ROCS_FitColorTversky>
0.420 

> <ROCS_FitTverskyCombo>
1.465 

> <ROCS_ColorScore>
-2.942

> <ROCS_Overlap>
875.870

> <ROCS_Rank>
497                 

$$$$
untitled-dbase-51991_49
  -OEChem-10092318153D

 38 39  0     1  0  0  0  0  0999 V2000
   -7.8530   -0.6661  -14.6920 C   0  0  0  0  0  0  0  0  0  0  0  0
   -9.3798   -3.6167  -17.2817 C   0  0  0  0  0  0  0  0  0  0  0  0
   -8.1302   -3.9004  -18.1039 C   0  0  0  0  0  0  0  0  0  0  0  0
   -9.7072   -1.2967  -16.2183 C   0  0  0  0  0  0  0  0  0  0  0  0
   -9.6783   -2.1331  -17.4863 C   0  0  1  0  0  0  0  0  0  0  0  0
   -8.4759   -1.5970  -18.2584 C   0  0  1  0  0  0  0  0  0  0  0  0
   -7.5043   -1.0541  -17.1865 C   0  0  1  0  0  0  0  0  0  0  0  0
   -6.9096    0.2829  -17.6263 C   0  0  0  0  0  0  0  0  0  0  0  0
   -7.3675    0.1715  -12.0014 C   0  0  0  0  0  0  0  0  0  0  0  0
   -9.8658    0.3323  -11.7969 C   0  0  0  0  0  0  0  0  0  0  0  0
   -8.7903   -1.8866  -12.2746 C   0  0  0  0  0  0  0  0  0  0  0  0
   -8.7062   -0.3767  -12.4934 C   0  0  0  0  0  0  0  0  0  0  0  0
   -7.9579   -2.7499  -18.9998 N   0  0  0  0  0  0  0  0  0  0  0  0
   -8.3186   -0.9456  -15.9698 N   0  0  0  0  0  0  0  0  0  0  0  0
   -6.7021   -0.8786  -14.3158 O   0  0  0  0  0  0  0  0  0  0  0  0
   -8.8190   -0.1123  -13.8962 O   0  0  0  0  0  0  0  0  0  0  0  0
  -10.2140   -4.2276  -17.6506 H   0  0  0  0  0  0  0  0  0  0  0  0
   -9.2379   -3.8616  -16.2217 H   0  0  0  0  0  0  0  0  0  0  0  0
   -7.2450   -4.0459  -17.4714 H   0  0  0  0  0  0  0  0  0  0  0  0
   -8.2589   -4.8144  -18.7005 H   0  0  0  0  0  0  0  0  0  0  0  0
  -10.3044   -0.3858  -16.3359 H   0  0  0  0  0  0  0  0  0  0  0  0
  -10.0818   -1.8392  -15.3420 H   0  0  0  0  0  0  0  0  0  0  0  0
  -10.6137   -1.9868  -18.0594 H   0  0  0  0  0  0  0  0  0  0  0  0
   -8.7718   -0.7967  -18.9843 H   0  0  0  0  0  0  0  0  0  0  0  0
   -6.6729   -1.7632  -17.0066 H   0  0  0  0  0  0  0  0  0  0  0  0
   -7.7091    0.9978  -17.8095 H   0  0  0  0  0  0  0  0  0  0  0  0
   -6.3350    0.1461  -18.5401 H   0  0  0  0  0  0  0  0  0  0  0  0
   -6.2561    0.6683  -16.8463 H   0  0  0  0  0  0  0  0  0  0  0  0
   -6.5326   -0.3348  -12.4989 H   0  0  0  0  0  0  0  0  0  0  0  0
   -7.2804    1.2475  -12.1843 H   0  0  0  0  0  0  0  0  0  0  0  0
   -7.2422   -0.0083  -10.9275 H   0  0  0  0  0  0  0  0  0  0  0  0
  -10.8283   -0.0579  -12.1469 H   0  0  0  0  0  0  0  0  0  0  0  0
   -9.8642    1.4035  -12.0288 H   0  0  0  0  0  0  0  0  0  0  0  0
   -9.8179    0.2128  -10.7097 H   0  0  0  0  0  0  0  0  0  0  0  0
   -9.7505   -2.2800  -12.6274 H   0  0  0  0  0  0  0  0  0  0  0  0
   -7.9870   -2.4153  -12.7978 H   0  0  0  0  0  0  0  0  0  0  0  0
   -8.7298   -2.1296  -11.2075 H   0  0  0  0  0  0  0  0  0  0  0  0
   -6.9616   -2.6214  -19.1771 H   0  0  0  0  0  0  0  0  0  0  0  0
  1 14  1  0  0  0  0
  1 15  2  0  0  0  0
  1 16  1  0  0  0  0
  2  3  1  0  0  0  0
  2  5  1  1  0  0  0
  3 13  1  0  0  0  0
  4  5  1  0  0  0  0
  4 14  1  0  0  0  0
  5  6  1  0  0  0  0
  6  7  1  0  0  0  0
  6 13  1  1  0  0  0
  7  8  1  6  0  0  0
  7 14  1  0  0  0  0
  9 12  1  0  0  0  0
 10 12  1  0  0  0  0
 11 12  1  0  0  0  0
 12 16  1  0  0  0  0
  2 17  1  0  0  0  0
  2 18  1  0  0  0  0
  3 19  1  0  0  0  0
  3 20  1  0  0  0  0
  4 21  1  0  0  0  0
  4 22  1  0  0  0  0
  5 23  1  0  0  0  0
  6 24  1  0  0  0  0
  7 25  1  0  0  0  0
  8 26  1  0  0  0  0
  8 27  1  0  0  0  0
  8 28  1  0  0  0  0
  9 29  1  0  0  0  0
  9 30  1  0  0  0  0
  9 31  1  0  0  0  0
 10 32  1  0  0  0  0
 10 33  1  0  0  0  0
 10 34  1  0  0  0  0
 11 35  1  0  0  0  0
 11 36  1  0  0  0  0
 11 37  1  0  0  0  0
 13 38  1  0  0  0  0
M  END
> <id>
EN300-44827767

> <smiles>
C[C@@H]1[C@H]2NCC[C@H]2CN1C(=O)OC(C)(C)C |&1:1,2,6,r|

> <IUPAC Name>
rac-tert-butyl (3aR,6S,6aR)-6-methyl-octahydropyrrolo[3,4-b]pyrrole-5-carboxylate

> <Purity>
95

> <URL>
https://www.enaminestore.com/catalog/EN300-44827767

> <ROCS_ShapeQuery>
amalgated

> <ROCS_TanimotoCombo>
0.811 

> <ROCS_ShapeTanimoto>
0.508 

> <ROCS_ColorTanimoto>
0.303 

> <ROCS_RefTversky>
0.492 

> <ROCS_RefColorTversky>
0.437 

> <ROCS_RefTverskyCombo>
0.929 

> <ROCS_FitTversky>
1.069 

> <ROCS_FitColorTversky>
0.496 

> <ROCS_FitTverskyCombo>
1.565 

> <ROCS_ColorScore>
-3.040

> <ROCS_Overlap>
807.372

> <ROCS_Rank>
498                 

$$$$
untitled-dbase-17596_0
  -OEChem-10092318153D

 30 32  0     0  0  0  0  0  0999 V2000
   -9.5820   -1.9182  -14.2261 C   0  0  0  0  0  0  0  0  0  0  0  0
   -9.1372   -1.7531  -15.5405 C   0  0  0  0  0  0  0  0  0  0  0  0
   -9.2942   -0.9578  -13.2563 C   0  0  0  0  0  0  0  0  0  0  0  0
   -8.3902   -0.6101  -15.8341 C   0  0  0  0  0  0  0  0  0  0  0  0
   -8.5698    0.1655  -13.6520 C   0  0  0  0  0  0  0  0  0  0  0  0
   -9.4114   -2.8189  -16.5664 C   0  0  0  0  0  0  0  0  0  0  0  0
   -9.8108   -1.0980  -11.8497 C   0  0  0  0  0  0  0  0  0  0  0  0
   -7.8962   -0.3410  -17.2311 C   0  0  0  0  0  0  0  0  0  0  0  0
   -8.2079    1.2193  -12.6388 C   0  0  0  0  0  0  0  0  0  0  0  0
   -9.1818   -2.3462  -18.0013 C   0  0  0  0  0  0  0  0  0  0  0  0
   -7.8635   -1.5891  -18.1102 C   0  0  0  0  0  0  0  0  0  0  0  0
   -9.0768    1.1491  -11.3824 C   0  0  0  0  0  0  0  0  0  0  0  0
   -8.1113    0.3465  -14.9136 N   0  0  0  0  0  0  0  0  0  0  0  0
   -9.1297   -0.2259  -10.8851 N   0  0  0  0  0  0  0  0  0  0  0  0
  -10.1536   -2.8035  -13.9562 H   0  0  0  0  0  0  0  0  0  0  0  0
   -8.7511   -3.6698  -16.3571 H   0  0  0  0  0  0  0  0  0  0  0  0
  -10.4453   -3.1716  -16.4726 H   0  0  0  0  0  0  0  0  0  0  0  0
  -10.8804   -0.8595  -11.8250 H   0  0  0  0  0  0  0  0  0  0  0  0
   -9.7029   -2.1425  -11.5332 H   0  0  0  0  0  0  0  0  0  0  0  0
   -8.5610    0.4054  -17.6837 H   0  0  0  0  0  0  0  0  0  0  0  0
   -6.8926    0.0980  -17.1890 H   0  0  0  0  0  0  0  0  0  0  0  0
   -7.1540    1.1116  -12.3581 H   0  0  0  0  0  0  0  0  0  0  0  0
   -8.3254    2.2004  -13.1156 H   0  0  0  0  0  0  0  0  0  0  0  0
   -9.1810   -3.2082  -18.6774 H   0  0  0  0  0  0  0  0  0  0  0  0
  -10.0060   -1.6927  -18.3142 H   0  0  0  0  0  0  0  0  0  0  0  0
   -7.6771   -1.3022  -19.1510 H   0  0  0  0  0  0  0  0  0  0  0  0
   -7.0375   -2.2428  -17.8026 H   0  0  0  0  0  0  0  0  0  0  0  0
   -8.6903    1.8169  -10.6023 H   0  0  0  0  0  0  0  0  0  0  0  0
  -10.0906    1.4911  -11.6172 H   0  0  0  0  0  0  0  0  0  0  0  0
   -9.6368   -0.2438   -9.9999 H   0  0  0  0  0  0  0  0  0  0  0  0
  1  2  2  0  0  0  0
  1  3  1  0  0  0  0
  2  4  1  0  0  0  0
  2  6  1  0  0  0  0
  3  5  2  0  0  0  0
  3  7  1  0  0  0  0
  4  8  1  0  0  0  0
  4 13  2  0  0  0  0
  5  9  1  0  0  0  0
  5 13  1  0  0  0  0
  6 10  1  0  0  0  0
  7 14  1  0  0  0  0
  8 11  1  0  0  0  0
  9 12  1  0  0  0  0
 10 11  1  0  0  0  0
 12 14  1  0  0  0  0
  1 15  1  0  0  0  0
  6 16  1  0  0  0  0
  6 17  1  0  0  0  0
  7 18  1  0  0  0  0
  7 19  1  0  0  0  0
  8 20  1  0  0  0  0
  8 21  1  0  0  0  0
  9 22  1  0  0  0  0
  9 23  1  0  0  0  0
 10 24  1  0  0  0  0
 10 25  1  0  0  0  0
 11 26  1  0  0  0  0
 11 27  1  0  0  0  0
 12 28  1  0  0  0  0
 12 29  1  0  0  0  0
 14 30  1  0  0  0  0
M  END
> <id>
EN300-1696017

> <smiles>
C1CCC=2N=C3CCNCC3=CC2C1

> <MDLNUMBER>
MFCD20663951

> <IUPAC Name>
1H,2H,3H,4H,6H,7H,8H,9H-cyclohexa[b]1,6-naphthyridine

> <CAS>
83137-21-7

> <URL>
https://www.enaminestore.com/catalog/EN300-1696017

> <ROCS_ShapeQuery>
amalgated

> <ROCS_TanimotoCombo>
0.811 

> <ROCS_ShapeTanimoto>
0.493 

> <ROCS_ColorTanimoto>
0.317 

> <ROCS_RefTversky>
0.468 

> <ROCS_RefColorTversky>
0.451 

> <ROCS_RefTverskyCombo>
0.919 

> <ROCS_FitTversky>
1.124 

> <ROCS_FitColorTversky>
0.517 

> <ROCS_FitTverskyCombo>
1.641 

> <ROCS_ColorScore>
-3.134

> <ROCS_Overlap>
766.146

> <ROCS_Rank>
499                 

$$$$
untitled-dbase-27472_0
  -OEChem-10092318153D

 30 32  0     0  0  0  0  0  0999 V2000
   -9.5820   -1.9182  -14.2261 C   0  0  0  0  0  0  0  0  0  0  0  0
   -9.1372   -1.7531  -15.5405 C   0  0  0  0  0  0  0  0  0  0  0  0
   -9.2942   -0.9578  -13.2563 C   0  0  0  0  0  0  0  0  0  0  0  0
   -8.3902   -0.6101  -15.8341 C   0  0  0  0  0  0  0  0  0  0  0  0
   -8.5698    0.1655  -13.6520 C   0  0  0  0  0  0  0  0  0  0  0  0
   -9.4114   -2.8189  -16.5664 C   0  0  0  0  0  0  0  0  0  0  0  0
   -9.8108   -1.0980  -11.8497 C   0  0  0  0  0  0  0  0  0  0  0  0
   -7.8962   -0.3410  -17.2311 C   0  0  0  0  0  0  0  0  0  0  0  0
   -8.2079    1.2193  -12.6388 C   0  0  0  0  0  0  0  0  0  0  0  0
   -9.1818   -2.3462  -18.0013 C   0  0  0  0  0  0  0  0  0  0  0  0
   -7.8635   -1.5891  -18.1102 C   0  0  0  0  0  0  0  0  0  0  0  0
   -9.0768    1.1491  -11.3824 C   0  0  0  0  0  0  0  0  0  0  0  0
   -8.1113    0.3465  -14.9136 N   0  0  0  0  0  0  0  0  0  0  0  0
   -9.1297   -0.2259  -10.8851 N   0  0  0  0  0  0  0  0  0  0  0  0
  -10.1536   -2.8035  -13.9562 H   0  0  0  0  0  0  0  0  0  0  0  0
   -8.7511   -3.6698  -16.3571 H   0  0  0  0  0  0  0  0  0  0  0  0
  -10.4453   -3.1716  -16.4726 H   0  0  0  0  0  0  0  0  0  0  0  0
  -10.8804   -0.8595  -11.8250 H   0  0  0  0  0  0  0  0  0  0  0  0
   -9.7029   -2.1425  -11.5332 H   0  0  0  0  0  0  0  0  0  0  0  0
   -8.5610    0.4054  -17.6837 H   0  0  0  0  0  0  0  0  0  0  0  0
   -6.8926    0.0980  -17.1890 H   0  0  0  0  0  0  0  0  0  0  0  0
   -7.1540    1.1116  -12.3581 H   0  0  0  0  0  0  0  0  0  0  0  0
   -8.3254    2.2004  -13.1156 H   0  0  0  0  0  0  0  0  0  0  0  0
   -9.1810   -3.2082  -18.6774 H   0  0  0  0  0  0  0  0  0  0  0  0
  -10.0060   -1.6927  -18.3142 H   0  0  0  0  0  0  0  0  0  0  0  0
   -7.6771   -1.3022  -19.1510 H   0  0  0  0  0  0  0  0  0  0  0  0
   -7.0375   -2.2428  -17.8026 H   0  0  0  0  0  0  0  0  0  0  0  0
   -8.6903    1.8169  -10.6023 H   0  0  0  0  0  0  0  0  0  0  0  0
  -10.0906    1.4911  -11.6172 H   0  0  0  0  0  0  0  0  0  0  0  0
   -9.6368   -0.2438   -9.9999 H   0  0  0  0  0  0  0  0  0  0  0  0
  1  2  2  0  0  0  0
  1  3  1  0  0  0  0
  2  4  1  0  0  0  0
  2  6  1  0  0  0  0
  3  5  2  0  0  0  0
  3  7  1  0  0  0  0
  4  8  1  0  0  0  0
  4 13  2  0  0  0  0
  5  9  1  0  0  0  0
  5 13  1  0  0  0  0
  6 10  1  0  0  0  0
  7 14  1  0  0  0  0
  8 11  1  0  0  0  0
  9 12  1  0  0  0  0
 10 11  1  0  0  0  0
 12 14  1  0  0  0  0
  1 15  1  0  0  0  0
  6 16  1  0  0  0  0
  6 17  1  0  0  0  0
  7 18  1  0  0  0  0
  7 19  1  0  0  0  0
  8 20  1  0  0  0  0
  8 21  1  0  0  0  0
  9 22  1  0  0  0  0
  9 23  1  0  0  0  0
 10 24  1  0  0  0  0
 10 25  1  0  0  0  0
 11 26  1  0  0  0  0
 11 27  1  0  0  0  0
 12 28  1  0  0  0  0
 12 29  1  0  0  0  0
 14 30  1  0  0  0  0
M  END
> <id>
EN300-1696016

> <smiles>
Cl.Cl.C1CCC=2N=C3CCNCC3=CC2C1

> <MDLNUMBER>
MFCD31616299

> <IUPAC Name>
1H,2H,3H,4H,6H,7H,8H,9H-cyclohexa[b]1,6-naphthyridine dihydrochloride

> <CAS>
2173999-46-5

> <Purity>
95

> <URL>
https://www.enaminestore.com/catalog/EN300-1696016

> <Saltdate>
Cl

> <ROCS_ShapeQuery>
amalgated

> <ROCS_TanimotoCombo>
0.811 

> <ROCS_ShapeTanimoto>
0.493 

> <ROCS_ColorTanimoto>
0.317 

> <ROCS_RefTversky>
0.468 

> <ROCS_RefColorTversky>
0.451 

> <ROCS_RefTverskyCombo>
0.919 

> <ROCS_FitTversky>
1.124 

> <ROCS_FitColorTversky>
0.517 

> <ROCS_FitTverskyCombo>
1.641 

> <ROCS_ColorScore>
-3.134

> <ROCS_Overlap>
766.146

> <ROCS_Rank>
500                 

$$$$
