untitled-dbase-8485_2
  -OEChem-08212314543D

 48 52  0     0  0  0  0  0  0999 V2000
   -8.4153    3.6785  -11.9787 C   0  0  0  0  0  0  0  0  0  0  0  0
   -8.5180    6.4285  -12.3883 C   0  0  0  0  0  0  0  0  0  0  0  0
   -8.6717    4.5131  -10.8801 C   0  0  0  0  0  0  0  0  0  0  0  0
   -8.2102    4.2024  -13.2685 C   0  0  0  0  0  0  0  0  0  0  0  0
   -8.7060    5.8817  -11.1177 C   0  0  0  0  0  0  0  0  0  0  0  0
   -8.2838    5.5826  -13.4693 C   0  0  0  0  0  0  0  0  0  0  0  0
   -8.8872    4.0277   -9.5048 C   0  0  0  0  0  0  0  0  0  0  0  0
   -9.0627    4.9077   -8.4958 C   0  0  0  0  0  0  0  0  0  0  0  0
   -9.1123    6.3714   -8.7683 C   0  0  0  0  0  0  0  0  0  0  0  0
   -7.9428    3.2711  -14.4136 C   0  0  0  0  0  0  0  0  0  0  0  0
   -8.9030    2.5304   -9.2744 C   0  0  0  0  0  0  0  0  0  0  0  0
   -9.2159    4.4551   -7.0579 C   0  0  0  0  0  0  0  0  0  0  0  0
   -7.3683    4.0373  -15.5978 C   0  0  0  0  0  0  0  0  0  0  0  0
   -9.4160    2.1087   -7.8982 C   0  0  0  0  0  0  0  0  0  0  0  0
   -8.8313    2.9967   -6.8159 C   0  0  0  0  0  0  0  0  0  0  0  0
   -9.0363    5.3015  -18.7191 C   0  0  0  0  0  0  0  0  0  0  0  0
   -7.5753    5.5455  -18.3553 C   0  0  0  0  0  0  0  0  0  0  0  0
   -9.7664    4.4964  -17.6488 C   0  0  0  0  0  0  0  0  0  0  0  0
   -7.4365    6.1614  -16.9648 C   0  0  0  0  0  0  0  0  0  0  0  0
   -9.6169    5.1339  -16.2697 C   0  0  0  0  0  0  0  0  0  0  0  0
   -8.1423    5.3466  -15.8562 C   0  0  0  0  0  0  0  0  0  0  0  0
   -8.9336    6.7910  -10.0720 O   0  0  0  0  0  0  0  0  0  0  0  0
   -8.1117    6.1902  -14.6834 O   0  0  0  0  0  0  0  0  0  0  0  0
   -9.3797    7.6313   -7.6962 S   0  0  0  0  0  0  0  0  0  0  0  0
   -8.3589    2.5992  -11.8559 H   0  0  0  0  0  0  0  0  0  0  0  0
   -8.5602    7.5051  -12.5314 H   0  0  0  0  0  0  0  0  0  0  0  0
   -7.2312    2.4919  -14.1134 H   0  0  0  0  0  0  0  0  0  0  0  0
   -8.8777    2.7731  -14.6974 H   0  0  0  0  0  0  0  0  0  0  0  0
   -9.5395    2.0347  -10.0177 H   0  0  0  0  0  0  0  0  0  0  0  0
   -7.8833    2.1456   -9.4059 H   0  0  0  0  0  0  0  0  0  0  0  0
   -8.5933    5.0667   -6.3945 H   0  0  0  0  0  0  0  0  0  0  0  0
  -10.2606    4.6031   -6.7556 H   0  0  0  0  0  0  0  0  0  0  0  0
   -6.3211    4.2810  -15.3705 H   0  0  0  0  0  0  0  0  0  0  0  0
   -7.3630    3.3972  -16.4878 H   0  0  0  0  0  0  0  0  0  0  0  0
  -10.5114    2.1734   -7.8756 H   0  0  0  0  0  0  0  0  0  0  0  0
   -9.1552    1.0608   -7.7113 H   0  0  0  0  0  0  0  0  0  0  0  0
   -7.7383    2.8972   -6.8069 H   0  0  0  0  0  0  0  0  0  0  0  0
   -9.1889    2.6784   -5.8301 H   0  0  0  0  0  0  0  0  0  0  0  0
   -9.5449    6.2628  -18.8691 H   0  0  0  0  0  0  0  0  0  0  0  0
   -9.0886    4.7652  -19.6771 H   0  0  0  0  0  0  0  0  0  0  0  0
   -7.0258    4.5975  -18.3935 H   0  0  0  0  0  0  0  0  0  0  0  0
   -7.1172    6.2049  -19.1032 H   0  0  0  0  0  0  0  0  0  0  0  0
  -10.8281    4.4183  -17.9103 H   0  0  0  0  0  0  0  0  0  0  0  0
   -9.3694    3.4757  -17.6265 H   0  0  0  0  0  0  0  0  0  0  0  0
   -6.3668    6.2656  -16.7266 H   0  0  0  0  0  0  0  0  0  0  0  0
   -7.8544    7.1790  -17.0020 H   0  0  0  0  0  0  0  0  0  0  0  0
  -10.1597    6.0886  -16.2893 H   0  0  0  0  0  0  0  0  0  0  0  0
  -10.1201    4.5000  -15.5247 H   0  0  0  0  0  0  0  0  0  0  0  0
  1  3  2  0  0  0  0
  1  4  1  0  0  0  0
  2  5  2  0  0  0  0
  2  6  1  0  0  0  0
  3  5  1  0  0  0  0
  3  7  1  0  0  0  0
  4  6  2  0  0  0  0
  4 10  1  0  0  0  0
  5 22  1  0  0  0  0
  6 23  1  0  0  0  0
  7  8  2  0  0  0  0
  7 11  1  0  0  0  0
  8  9  1  0  0  0  0
  8 12  1  0  0  0  0
  9 22  1  0  0  0  0
  9 24  2  0  0  0  0
 10 13  1  0  0  0  0
 11 14  1  0  0  0  0
 12 15  1  0  0  0  0
 13 21  1  0  0  0  0
 14 15  1  0  0  0  0
 16 17  1  0  0  0  0
 16 18  1  0  0  0  0
 17 19  1  0  0  0  0
 18 20  1  0  0  0  0
 19 21  1  0  0  0  0
 20 21  1  0  0  0  0
 21 23  1  0  0  0  0
  1 25  1  0  0  0  0
  2 26  1  0  0  0  0
 10 27  1  0  0  0  0
 10 28  1  0  0  0  0
 11 29  1  0  0  0  0
 11 30  1  0  0  0  0
 12 31  1  0  0  0  0
 12 32  1  0  0  0  0
 13 33  1  0  0  0  0
 13 34  1  0  0  0  0
 14 35  1  0  0  0  0
 14 36  1  0  0  0  0
 15 37  1  0  0  0  0
 15 38  1  0  0  0  0
 16 39  1  0  0  0  0
 16 40  1  0  0  0  0
 17 41  1  0  0  0  0
 17 42  1  0  0  0  0
 18 43  1  0  0  0  0
 18 44  1  0  0  0  0
 19 45  1  0  0  0  0
 19 46  1  0  0  0  0
 20 47  1  0  0  0  0
 20 48  1  0  0  0  0
M  END
> <id>
EN300-302778

> <smiles>
S=C1OC=2C=C3OC4(CCCCC4)CCC3=CC2C=5CCCCC51

> <MDLNUMBER>
MFCD08746625

> <IUPAC Name>
4',6',7',8',9',10'-hexahydro-3'H-1',11'-dioxaspiro[cyclohexane-1,2'-tetraphene]-10'-thione

> <CAS>
919748-91-7

> <URL>
https://www.enaminestore.com/catalog/EN300-302778

> <ROCS_ShapeQuery>
_x0404_0B

> <ROCS_TanimotoCombo>
0.474 

> <ROCS_ShapeTanimoto>
0.389 

> <ROCS_ColorTanimoto>
0.086 

> <ROCS_RefTversky>
0.338 

> <ROCS_RefColorTversky>
0.091 

> <ROCS_RefTverskyCombo>
0.429 

> <ROCS_FitTversky>
1.629 

> <ROCS_FitColorTversky>
0.578 

> <ROCS_FitTverskyCombo>
2.207 

> <ROCS_ColorScore>
-6.587

> <ROCS_Overlap>
2257.659

> <ROCS_Rank>
1                   

$$$$
untitled-dbase-8712_3
  -OEChem-08212314543D

 50 54  0     0  0  0  0  0  0999 V2000
   -8.3260    3.7108  -11.9493 C   0  0  0  0  0  0  0  0  0  0  0  0
   -8.6311    6.4457  -12.3630 C   0  0  0  0  0  0  0  0  0  0  0  0
   -8.6727    4.5221  -10.8584 C   0  0  0  0  0  0  0  0  0  0  0  0
   -8.1311    4.2505  -13.2341 C   0  0  0  0  0  0  0  0  0  0  0  0
   -8.8076    5.8848  -11.0969 C   0  0  0  0  0  0  0  0  0  0  0  0
   -8.3062    5.6213  -13.4373 C   0  0  0  0  0  0  0  0  0  0  0  0
   -8.8791    4.0207   -9.4884 C   0  0  0  0  0  0  0  0  0  0  0  0
   -9.1555    4.8854   -8.4909 C   0  0  0  0  0  0  0  0  0  0  0  0
   -9.3317    6.3398   -8.7604 C   0  0  0  0  0  0  0  0  0  0  0  0
   -7.7651    3.3441  -14.3719 C   0  0  0  0  0  0  0  0  0  0  0  0
   -8.7694    2.5301   -9.2451 C   0  0  0  0  0  0  0  0  0  0  0  0
   -9.2983    4.4407   -7.0529 C   0  0  0  0  0  0  0  0  0  0  0  0
   -7.2247    4.1538  -15.5432 C   0  0  0  0  0  0  0  0  0  0  0  0
   -9.2817    2.0777   -7.8774 C   0  0  0  0  0  0  0  0  0  0  0  0
   -8.8041    3.0199   -6.7873 C   0  0  0  0  0  0  0  0  0  0  0  0
   -8.9170    5.2867  -18.7017 C   0  0  0  0  0  0  0  0  0  0  0  0
   -9.6058    4.4270  -17.6465 C   0  0  0  0  0  0  0  0  0  0  0  0
   -7.4877    5.6433  -18.3064 C   0  0  0  0  0  0  0  0  0  0  0  0
   -9.5363    5.0735  -16.2653 C   0  0  0  0  0  0  0  0  0  0  0  0
   -7.4274    6.2671  -16.9138 C   0  0  0  0  0  0  0  0  0  0  0  0
   -8.0919    5.3993  -15.8199 C   0  0  0  0  0  0  0  0  0  0  0  0
   -9.6619    7.2410   -7.8978 N   0  0  0  0  0  0  0  0  0  0  0  0
   -9.1335    6.7724  -10.0583 O   0  0  0  0  0  0  0  0  0  0  0  0
   -8.1519    6.2417  -14.6473 O   0  0  0  0  0  0  0  0  0  0  0  0
   -9.7200    8.4731   -8.5511 O   0  0  0  0  0  0  0  0  0  0  0  0
   -8.1988    2.6376  -11.8241 H   0  0  0  0  0  0  0  0  0  0  0  0
   -8.7371    7.5179  -12.5058 H   0  0  0  0  0  0  0  0  0  0  0  0
   -7.0158    2.6209  -14.0279 H   0  0  0  0  0  0  0  0  0  0  0  0
   -8.6430    2.7765  -14.7049 H   0  0  0  0  0  0  0  0  0  0  0  0
   -9.3380    1.9752  -10.0010 H   0  0  0  0  0  0  0  0  0  0  0  0
   -7.7162    2.2368   -9.3446 H   0  0  0  0  0  0  0  0  0  0  0  0
   -8.7460    5.1190   -6.3881 H   0  0  0  0  0  0  0  0  0  0  0  0
  -10.3589    4.5138   -6.7726 H   0  0  0  0  0  0  0  0  0  0  0  0
   -6.1812    4.4308  -15.3538 H   0  0  0  0  0  0  0  0  0  0  0  0
   -7.2302    3.5105  -16.4341 H   0  0  0  0  0  0  0  0  0  0  0  0
  -10.3783    2.0515   -7.8849 H   0  0  0  0  0  0  0  0  0  0  0  0
   -8.9395    1.0574   -7.6738 H   0  0  0  0  0  0  0  0  0  0  0  0
   -7.7072    3.0104   -6.7461 H   0  0  0  0  0  0  0  0  0  0  0  0
   -9.1629    2.6807   -5.8090 H   0  0  0  0  0  0  0  0  0  0  0  0
   -8.9065    4.7485  -19.6600 H   0  0  0  0  0  0  0  0  0  0  0  0
   -9.4955    6.2058  -18.8638 H   0  0  0  0  0  0  0  0  0  0  0  0
  -10.6526    4.2664  -17.9318 H   0  0  0  0  0  0  0  0  0  0  0  0
   -9.1326    3.4389  -17.6142 H   0  0  0  0  0  0  0  0  0  0  0  0
   -6.8667    4.7406  -18.3310 H   0  0  0  0  0  0  0  0  0  0  0  0
   -7.0665    6.3373  -19.0438 H   0  0  0  0  0  0  0  0  0  0  0  0
  -10.1341    5.9951  -16.2918 H   0  0  0  0  0  0  0  0  0  0  0  0
  -10.0093    4.4035  -15.5335 H   0  0  0  0  0  0  0  0  0  0  0  0
   -6.3740    6.4504  -16.6484 H   0  0  0  0  0  0  0  0  0  0  0  0
   -7.9088    7.2542  -16.9767 H   0  0  0  0  0  0  0  0  0  0  0  0
   -9.9717    9.0664   -7.8231 H   0  0  0  0  0  0  0  0  0  0  0  0
  1  3  2  0  0  0  0
  1  4  1  0  0  0  0
  2  5  2  0  0  0  0
  2  6  1  0  0  0  0
  3  5  1  0  0  0  0
  3  7  1  0  0  0  0
  4  6  2  0  0  0  0
  4 10  1  0  0  0  0
  5 23  1  0  0  0  0
  6 24  1  0  0  0  0
  7  8  2  0  0  0  0
  7 11  1  0  0  0  0
  8  9  1  0  0  0  0
  8 12  1  0  0  0  0
  9 22  2  3  0  0  0
  9 23  1  0  0  0  0
 10 13  1  0  0  0  0
 11 14  1  0  0  0  0
 12 15  1  0  0  0  0
 13 21  1  0  0  0  0
 14 15  1  0  0  0  0
 16 17  1  0  0  0  0
 16 18  1  0  0  0  0
 17 19  1  0  0  0  0
 18 20  1  0  0  0  0
 19 21  1  0  0  0  0
 20 21  1  0  0  0  0
 21 24  1  0  0  0  0
 22 25  1  0  0  0  0
  1 26  1  0  0  0  0
  2 27  1  0  0  0  0
 10 28  1  0  0  0  0
 10 29  1  0  0  0  0
 11 30  1  0  0  0  0
 11 31  1  0  0  0  0
 12 32  1  0  0  0  0
 12 33  1  0  0  0  0
 13 34  1  0  0  0  0
 13 35  1  0  0  0  0
 14 36  1  0  0  0  0
 14 37  1  0  0  0  0
 15 38  1  0  0  0  0
 15 39  1  0  0  0  0
 16 40  1  0  0  0  0
 16 41  1  0  0  0  0
 17 42  1  0  0  0  0
 17 43  1  0  0  0  0
 18 44  1  0  0  0  0
 18 45  1  0  0  0  0
 19 46  1  0  0  0  0
 19 47  1  0  0  0  0
 20 48  1  0  0  0  0
 20 49  1  0  0  0  0
 25 50  1  0  0  0  0
M  END
> <id>
EN300-302924

> <smiles>
ON=C1OC=2C=C3OC4(CCCCC4)CCC3=CC2C=5CCCCC51

> <IUPAC Name>
N-{4',6',7',8',9',10'-hexahydro-3'H-1',11'-dioxaspiro[cyclohexane-1,2'-tetraphen]-10'-ylidene}hydroxylamine

> <CAS>
1133822-78-2

> <URL>
https://www.enaminestore.com/catalog/EN300-302924

> <ROCS_ShapeQuery>
_x0404_0B

> <ROCS_TanimotoCombo>
0.472 

> <ROCS_ShapeTanimoto>
0.387 

> <ROCS_ColorTanimoto>
0.084 

> <ROCS_RefTversky>
0.339 

> <ROCS_RefColorTversky>
0.089 

> <ROCS_RefTverskyCombo>
0.429 

> <ROCS_FitTversky>
1.571 

> <ROCS_FitColorTversky>
0.616 

> <ROCS_FitTverskyCombo>
2.187 

> <ROCS_ColorScore>
-6.432

> <ROCS_Overlap>
2268.350

> <ROCS_Rank>
2                   

$$$$
untitled-dbase-49502_79
  -OEChem-08212314543D

 63 64  0     1  0  0  0  0  0999 V2000
   -6.0920    2.0766  -12.4692 C   0  0  0  0  0  0  0  0  0  0  0  0
   -6.0039    1.4308  -11.2967 C   0  0  0  0  0  0  0  0  0  0  0  0
   -8.3218    4.9608  -15.1015 C   0  0  0  0  0  0  0  0  0  0  0  0
   -8.6166    5.4387   -9.7976 C   0  0  0  0  0  0  0  0  0  0  0  0
   -6.3052    1.3945  -13.7826 C   0  0  0  0  0  0  0  0  0  0  0  0
   -5.8984    2.0822   -9.9489 C   0  0  0  0  0  0  0  0  0  0  0  0
   -9.3503    2.4683   -6.9680 C   0  0  0  0  0  0  0  0  0  0  0  0
   -8.5427    6.2223  -12.1670 C   0  0  0  0  0  0  0  0  0  0  0  0
   -9.1203    3.0279   -9.3233 C   0  0  0  0  0  0  0  0  0  0  0  0
   -9.6803    3.9538   -6.9342 C   0  0  0  0  0  0  0  0  0  0  0  0
   -6.9275    2.9187  -15.4949 C   0  0  0  0  0  0  0  0  0  0  0  0
   -6.7587    4.0051   -8.8186 C   0  0  0  0  0  0  0  0  0  0  0  0
   -8.1085    3.7464  -16.0085 C   0  0  2  0  0  0  0  0  0  0  0  0
   -9.6560    5.7224  -13.0976 C   0  0  1  0  0  0  0  0  0  0  0  0
   -8.2827    4.2471   -8.8797 C   0  0  1  0  0  0  0  0  0  0  0  0
  -10.3458    6.8856  -13.8137 C   0  0  0  0  0  0  0  0  0  0  0  0
   -9.0231    5.0804  -17.9264 C   0  0  0  0  0  0  0  0  0  0  0  0
   -7.6874    3.0050  -18.3679 C   0  0  0  0  0  0  0  0  0  0  0  0
   -6.5561    5.0584  -17.4792 C   0  0  0  0  0  0  0  0  0  0  0  0
   -7.8451    4.2201  -17.4383 C   0  0  0  0  0  0  0  0  0  0  0  0
   -8.2490    5.2524  -11.1237 N   0  0  0  0  0  0  0  0  0  0  0  0
   -9.1880    4.7070  -14.0460 N   0  0  0  0  0  0  0  0  0  0  0  0
   -9.1242    1.9648   -8.3216 N   0  0  0  0  0  0  0  0  0  0  0  0
   -7.7620    6.0356  -15.3118 O   0  0  0  0  0  0  0  0  0  0  0  0
   -9.1826    6.4474   -9.3751 O   0  0  0  0  0  0  0  0  0  0  0  0
   -7.3823    2.0493  -14.4564 O   0  0  0  0  0  0  0  0  0  0  0  0
   -6.2440    3.4615  -10.0278 O   0  0  0  0  0  0  0  0  0  0  0  0
   -8.6475    4.7066   -7.5619 O   0  0  0  0  0  0  0  0  0  0  0  0
   -5.9569    3.1589  -12.4944 H   0  0  0  0  0  0  0  0  0  0  0  0
   -5.9718    0.3316  -11.3015 H   0  0  0  0  0  0  0  0  0  0  0  0
   -5.3978    1.4388  -14.4038 H   0  0  0  0  0  0  0  0  0  0  0  0
   -6.5570    0.3368  -13.6198 H   0  0  0  0  0  0  0  0  0  0  0  0
   -6.4946    1.5661   -9.1799 H   0  0  0  0  0  0  0  0  0  0  0  0
   -4.8509    2.0235   -9.6209 H   0  0  0  0  0  0  0  0  0  0  0  0
   -8.4534    2.2688   -6.3501 H   0  0  0  0  0  0  0  0  0  0  0  0
  -10.1701    1.8865   -6.4998 H   0  0  0  0  0  0  0  0  0  0  0  0
   -7.6443    6.4267  -12.7381 H   0  0  0  0  0  0  0  0  0  0  0  0
   -8.8557    7.1351  -11.6707 H   0  0  0  0  0  0  0  0  0  0  0  0
  -10.1593    3.3312   -9.5193 H   0  0  0  0  0  0  0  0  0  0  0  0
   -8.7419    2.6135  -10.2668 H   0  0  0  0  0  0  0  0  0  0  0  0
  -10.6033    4.1355   -7.4907 H   0  0  0  0  0  0  0  0  0  0  0  0
   -9.8434    4.3118   -5.9143 H   0  0  0  0  0  0  0  0  0  0  0  0
   -6.5064    2.2957  -16.2958 H   0  0  0  0  0  0  0  0  0  0  0  0
   -6.1343    3.5789  -15.1142 H   0  0  0  0  0  0  0  0  0  0  0  0
   -6.2177    4.9522   -8.6203 H   0  0  0  0  0  0  0  0  0  0  0  0
   -6.5100    3.3307   -7.9725 H   0  0  0  0  0  0  0  0  0  0  0  0
   -9.0262    3.1534  -15.9973 H   0  0  0  0  0  0  0  0  0  0  0  0
  -10.4197    5.2473  -12.4516 H   0  0  0  0  0  0  0  0  0  0  0  0
   -9.6358    7.3911  -14.4664 H   0  0  0  0  0  0  0  0  0  0  0  0
  -10.7258    7.5969  -13.0819 H   0  0  0  0  0  0  0  0  0  0  0  0
  -11.1756    6.5117  -14.4115 H   0  0  0  0  0  0  0  0  0  0  0  0
   -8.8631    5.4356  -18.9506 H   0  0  0  0  0  0  0  0  0  0  0  0
   -9.1603    5.9594  -17.2864 H   0  0  0  0  0  0  0  0  0  0  0  0
   -9.9585    4.5099  -17.9138 H   0  0  0  0  0  0  0  0  0  0  0  0
   -7.4976    3.3212  -19.3999 H   0  0  0  0  0  0  0  0  0  0  0  0
   -6.8482    2.3749  -18.0527 H   0  0  0  0  0  0  0  0  0  0  0  0
   -8.5891    2.3824  -18.3706 H   0  0  0  0  0  0  0  0  0  0  0  0
   -6.3471    5.4093  -18.4961 H   0  0  0  0  0  0  0  0  0  0  0  0
   -5.6897    4.4784  -17.1421 H   0  0  0  0  0  0  0  0  0  0  0  0
   -6.6393    5.9397  -16.8331 H   0  0  0  0  0  0  0  0  0  0  0  0
   -7.7553    4.4050  -11.3755 H   0  0  0  0  0  0  0  0  0  0  0  0
   -9.5234    3.7475  -13.9200 H   0  0  0  0  0  0  0  0  0  0  0  0
   -8.2230    1.4646   -8.3482 H   0  0  0  0  0  0  0  0  0  0  0  0
  1  2  2  0  0  0  0
  1  5  1  0  0  0  0
  2  6  1  0  0  0  0
  3 13  1  0  0  0  0
  3 22  1  0  0  0  0
  3 24  2  0  0  0  0
  4 15  1  0  0  0  0
  4 21  1  0  0  0  0
  4 25  2  0  0  0  0
  5 26  1  0  0  0  0
  6 27  1  0  0  0  0
  7 10  1  0  0  0  0
  7 23  1  0  0  0  0
  8 14  1  0  0  0  0
  8 21  1  0  0  0  0
  9 15  1  0  0  0  0
  9 23  1  0  0  0  0
 10 28  1  0  0  0  0
 11 13  1  0  0  0  0
 11 26  1  0  0  0  0
 12 15  1  0  0  0  0
 12 27  1  0  0  0  0
 13 20  1  0  0  0  0
 14 16  1  6  0  0  0
 14 22  1  0  0  0  0
 15 28  1  0  0  0  0
 17 20  1  0  0  0  0
 18 20  1  0  0  0  0
 19 20  1  0  0  0  0
  1 29  1  0  0  0  0
  2 30  1  0  0  0  0
  5 31  1  0  0  0  0
  5 32  1  0  0  0  0
  6 33  1  0  0  0  0
  6 34  1  0  0  0  0
  7 35  1  0  0  0  0
  7 36  1  0  0  0  0
  8 37  1  0  0  0  0
  8 38  1  0  0  0  0
  9 39  1  0  0  0  0
  9 40  1  0  0  0  0
 10 41  1  0  0  0  0
 10 42  1  0  0  0  0
 11 43  1  0  0  0  0
 11 44  1  0  0  0  0
 12 45  1  0  0  0  0
 12 46  1  0  0  0  0
 13 47  1  0  0  0  0
 14 48  1  0  0  0  0
 16 49  1  0  0  0  0
 16 50  1  0  0  0  0
 16 51  1  0  0  0  0
 17 52  1  0  0  0  0
 17 53  1  0  0  0  0
 17 54  1  0  0  0  0
 18 55  1  0  0  0  0
 18 56  1  0  0  0  0
 18 57  1  0  0  0  0
 19 58  1  0  0  0  0
 19 59  1  0  0  0  0
 19 60  1  0  0  0  0
 21 61  1  0  0  0  0
 22 62  1  0  0  0  0
 23 63  1  0  0  0  0
M  END
> <id>
EN300-6735309

> <smiles>
C[C@@H]1CNC(=O)C2(CNCCO2)COC/C=C/COCC(C(=O)N1)C(C)(C)C.OC(=O)C(F)(F)F

> <MDLNUMBER>
MFCD31746011

> <IUPAC Name>
(10R,17E)-13-tert-butyl-10-methyl-1,15,20-trioxa-4,8,11-triazaspiro[5.15]henicos-17-ene-7,12-dione; trifluoroacetic acid

> <CAS>
2287255-34-7

> <URL>
https://www.enaminestore.com/catalog/EN300-6735309

> <Saltdate>
OC(=O)C(F)(F)F

> <ROCS_ShapeQuery>
_x0404_0B

> <ROCS_TanimotoCombo>
0.472 

> <ROCS_ShapeTanimoto>
0.358 

> <ROCS_ColorTanimoto>
0.114 

> <ROCS_RefTversky>
0.322 

> <ROCS_RefColorTversky>
0.122 

> <ROCS_RefTverskyCombo>
0.445 

> <ROCS_FitTversky>
1.443 

> <ROCS_FitColorTversky>
0.621 

> <ROCS_FitTverskyCombo>
2.064 

> <ROCS_ColorScore>
-8.842

> <ROCS_Overlap>
2155.740

> <ROCS_Rank>
3                   

$$$$
untitled-dbase-8719_2
  -OEChem-08212314543D

 47 51  0     0  0  0  0  0  0999 V2000
   -8.2333    3.6864  -11.8543 C   0  0  0  0  0  0  0  0  0  0  0  0
   -8.6766    6.4227  -12.2411 C   0  0  0  0  0  0  0  0  0  0  0  0
   -8.6194    4.4795  -10.7712 C   0  0  0  0  0  0  0  0  0  0  0  0
   -8.0611    4.2518  -13.1296 C   0  0  0  0  0  0  0  0  0  0  0  0
   -8.8306    5.8429  -10.9841 C   0  0  0  0  0  0  0  0  0  0  0  0
   -8.3034    5.6187  -13.3189 C   0  0  0  0  0  0  0  0  0  0  0  0
   -8.8119    3.9736   -9.4269 C   0  0  0  0  0  0  0  0  0  0  0  0
   -9.1664    4.7859   -8.4291 C   0  0  0  0  0  0  0  0  0  0  0  0
   -9.3883    6.2155   -8.6296 C   0  0  0  0  0  0  0  0  0  0  0  0
   -7.6476    3.3776  -14.2765 C   0  0  0  0  0  0  0  0  0  0  0  0
   -8.6470    2.5662   -8.9669 C   0  0  0  0  0  0  0  0  0  0  0  0
   -9.2964    4.0683   -7.1324 C   0  0  0  0  0  0  0  0  0  0  0  0
   -7.1420    4.2259  -15.4357 C   0  0  0  0  0  0  0  0  0  0  0  0
   -9.2869    2.6010   -7.5735 C   0  0  0  0  0  0  0  0  0  0  0  0
   -8.8751    5.3056  -18.5902 C   0  0  0  0  0  0  0  0  0  0  0  0
   -9.5256    4.4032  -17.5462 C   0  0  0  0  0  0  0  0  0  0  0  0
   -7.4667    5.7279  -18.1851 C   0  0  0  0  0  0  0  0  0  0  0  0
   -9.4930    5.0389  -16.1587 C   0  0  0  0  0  0  0  0  0  0  0  0
   -7.4425    6.3403  -16.7864 C   0  0  0  0  0  0  0  0  0  0  0  0
   -8.0681    5.4300  -15.7038 C   0  0  0  0  0  0  0  0  0  0  0  0
   -9.7300    7.0355   -7.6951 N   0  0  0  0  0  0  0  0  0  0  0  0
   -9.2136    6.6963   -9.9203 O   0  0  0  0  0  0  0  0  0  0  0  0
   -8.1733    6.2569  -14.5236 O   0  0  0  0  0  0  0  0  0  0  0  0
   -9.8510    8.3110   -8.2507 O   0  0  0  0  0  0  0  0  0  0  0  0
   -8.0581    2.6210  -11.7212 H   0  0  0  0  0  0  0  0  0  0  0  0
   -8.8533    7.4856  -12.3811 H   0  0  0  0  0  0  0  0  0  0  0  0
   -6.8525    2.6898  -13.9638 H   0  0  0  0  0  0  0  0  0  0  0  0
   -8.5048    2.7707  -14.5919 H   0  0  0  0  0  0  0  0  0  0  0  0
   -9.1814    1.8770   -9.6292 H   0  0  0  0  0  0  0  0  0  0  0  0
   -7.5991    2.2586   -8.8994 H   0  0  0  0  0  0  0  0  0  0  0  0
   -8.4676    4.2769   -6.4495 H   0  0  0  0  0  0  0  0  0  0  0  0
  -10.2401    4.3283   -6.6418 H   0  0  0  0  0  0  0  0  0  0  0  0
   -6.1409    4.5971  -15.1755 H   0  0  0  0  0  0  0  0  0  0  0  0
   -7.0309    3.6036  -16.3313 H   0  0  0  0  0  0  0  0  0  0  0  0
  -10.2915    2.1654   -7.5722 H   0  0  0  0  0  0  0  0  0  0  0  0
   -8.6790    2.0111   -6.8750 H   0  0  0  0  0  0  0  0  0  0  0  0
   -8.8348    4.7778  -19.5536 H   0  0  0  0  0  0  0  0  0  0  0  0
   -9.4970    6.1969  -18.7460 H   0  0  0  0  0  0  0  0  0  0  0  0
  -10.5617    4.1947  -17.8368 H   0  0  0  0  0  0  0  0  0  0  0  0
   -9.0037    3.4408  -17.5211 H   0  0  0  0  0  0  0  0  0  0  0  0
   -6.8009    4.8570  -18.2161 H   0  0  0  0  0  0  0  0  0  0  0  0
   -7.0759    6.4480  -18.9151 H   0  0  0  0  0  0  0  0  0  0  0  0
  -10.1507    5.9184  -16.1860 H   0  0  0  0  0  0  0  0  0  0  0  0
   -9.9319    4.3388  -15.4324 H   0  0  0  0  0  0  0  0  0  0  0  0
   -6.4010    6.5750  -16.5183 H   0  0  0  0  0  0  0  0  0  0  0  0
   -7.9844    7.2973  -16.8260 H   0  0  0  0  0  0  0  0  0  0  0  0
  -10.1064    8.8380   -7.4746 H   0  0  0  0  0  0  0  0  0  0  0  0
  1  3  2  0  0  0  0
  1  4  1  0  0  0  0
  2  5  2  0  0  0  0
  2  6  1  0  0  0  0
  3  5  1  0  0  0  0
  3  7  1  0  0  0  0
  4  6  2  0  0  0  0
  4 10  1  0  0  0  0
  5 22  1  0  0  0  0
  6 23  1  0  0  0  0
  7  8  2  0  0  0  0
  7 11  1  0  0  0  0
  8  9  1  0  0  0  0
  8 12  1  0  0  0  0
  9 21  2  3  0  0  0
  9 22  1  0  0  0  0
 10 13  1  0  0  0  0
 11 14  1  0  0  0  0
 12 14  1  0  0  0  0
 13 20  1  0  0  0  0
 15 16  1  0  0  0  0
 15 17  1  0  0  0  0
 16 18  1  0  0  0  0
 17 19  1  0  0  0  0
 18 20  1  0  0  0  0
 19 20  1  0  0  0  0
 20 23  1  0  0  0  0
 21 24  1  0  0  0  0
  1 25  1  0  0  0  0
  2 26  1  0  0  0  0
 10 27  1  0  0  0  0
 10 28  1  0  0  0  0
 11 29  1  0  0  0  0
 11 30  1  0  0  0  0
 12 31  1  0  0  0  0
 12 32  1  0  0  0  0
 13 33  1  0  0  0  0
 13 34  1  0  0  0  0
 14 35  1  0  0  0  0
 14 36  1  0  0  0  0
 15 37  1  0  0  0  0
 15 38  1  0  0  0  0
 16 39  1  0  0  0  0
 16 40  1  0  0  0  0
 17 41  1  0  0  0  0
 17 42  1  0  0  0  0
 18 43  1  0  0  0  0
 18 44  1  0  0  0  0
 19 45  1  0  0  0  0
 19 46  1  0  0  0  0
 24 47  1  0  0  0  0
M  END
> <id>
EN300-302999

> <smiles>
ON=C1OC=2C=C3OC4(CCCCC4)CCC3=CC2C=5CCCC51

> <IUPAC Name>
N-{4',17'-dioxaspiro[cyclohexane-1,5'-tetracyclo[8.7.0.0^{3,8}.0^{11,15}]heptadecane]-1'(10'),2',8',11'(15')-tetraen-16'-ylidene}hydroxylamine

> <CAS>
929841-66-7

> <URL>
https://www.enaminestore.com/catalog/EN300-302999

> <ROCS_ShapeQuery>
_x0404_0B

> <ROCS_TanimotoCombo>
0.459 

> <ROCS_ShapeTanimoto>
0.375 

> <ROCS_ColorTanimoto>
0.084 

> <ROCS_RefTversky>
0.330 

> <ROCS_RefColorTversky>
0.089 

> <ROCS_RefTverskyCombo>
0.419 

> <ROCS_FitTversky>
1.566 

> <ROCS_FitColorTversky>
0.613 

> <ROCS_FitTverskyCombo>
2.178 

> <ROCS_ColorScore>
-6.406

> <ROCS_Overlap>
2205.751

> <ROCS_Rank>
4                   

$$$$
untitled-dbase-46201_856
  -OEChem-08212314543D

 55 56  0     1  0  0  0  0  0999 V2000
   -8.4705    5.2020  -14.9079 C   0  0  0  0  0  0  0  0  0  0  0  0
   -8.5397    3.6261   -9.5779 C   0  0  0  0  0  0  0  0  0  0  0  0
   -6.1617    3.4139  -12.1048 C   0  0  0  0  0  0  0  0  0  0  0  0
   -8.0848    1.4979  -10.7448 C   0  0  0  0  0  0  0  0  0  0  0  0
   -8.2087    5.0378  -12.3665 C   0  0  0  0  0  0  0  0  0  0  0  0
   -8.4659    3.1481  -13.2983 C   0  0  0  0  0  0  0  0  0  0  0  0
   -5.7276    2.0609  -11.5094 C   0  0  2  0  0  0  0  0  0  0  0  0
   -6.8532    1.0161  -11.5247 C   0  0  1  0  0  0  0  0  0  0  0  0
   -7.6881    3.6147  -12.0230 C   0  0  0  0  0  0  0  0  0  0  0  0
   -7.2536    5.6873  -17.5299 C   0  0  0  0  0  0  0  0  0  0  0  0
   -8.8815    3.9666  -18.3656 C   0  0  0  0  0  0  0  0  0  0  0  0
   -9.7289    6.1232  -17.3965 C   0  0  0  0  0  0  0  0  0  0  0  0
   -7.8249    5.4271   -7.4714 C   0  0  0  0  0  0  0  0  0  0  0  0
   -8.8446    7.2165   -8.9093 C   0  0  0  0  0  0  0  0  0  0  0  0
  -10.2710    5.3334   -8.0565 C   0  0  0  0  0  0  0  0  0  0  0  0
   -8.6328    5.0607  -17.3297 C   0  0  0  0  0  0  0  0  0  0  0  0
   -8.8771    5.7362   -8.5355 C   0  0  0  0  0  0  0  0  0  0  0  0
   -8.4560    4.5370  -13.7067 N   0  0  0  0  0  0  0  0  0  0  0  0
   -8.1897    2.9652  -10.7646 N   0  0  0  0  0  0  0  0  0  0  0  0
   -8.2572    6.4100  -15.0075 O   0  0  0  0  0  0  0  0  0  0  0  0
   -8.7668    3.0559   -8.5120 O   0  0  0  0  0  0  0  0  0  0  0  0
   -5.3170    2.2908  -10.1561 O   0  0  0  0  0  0  0  0  0  0  0  0
   -6.3937   -0.2028  -10.9470 O   0  0  0  0  0  0  0  0  0  0  0  0
   -8.6711    4.4449  -16.0319 O   0  0  0  0  0  0  0  0  0  0  0  0
   -8.5660    4.9863   -9.7152 O   0  0  0  0  0  0  0  0  0  0  0  0
   -5.6418    4.2370  -11.5843 H   0  0  0  0  0  0  0  0  0  0  0  0
   -5.8095    3.4763  -13.1486 H   0  0  0  0  0  0  0  0  0  0  0  0
   -9.0070    1.0851  -11.1890 H   0  0  0  0  0  0  0  0  0  0  0  0
   -8.0371    1.1193   -9.7108 H   0  0  0  0  0  0  0  0  0  0  0  0
   -9.1452    5.3677  -11.9049 H   0  0  0  0  0  0  0  0  0  0  0  0
   -7.4656    5.8400  -12.3193 H   0  0  0  0  0  0  0  0  0  0  0  0
   -7.9311    2.4852  -13.9827 H   0  0  0  0  0  0  0  0  0  0  0  0
   -9.4815    2.7734  -13.1340 H   0  0  0  0  0  0  0  0  0  0  0  0
   -4.8676    1.6804  -12.0504 H   0  0  0  0  0  0  0  0  0  0  0  0
   -7.1342    0.7859  -12.5627 H   0  0  0  0  0  0  0  0  0  0  0  0
   -7.0713    6.4732  -16.7882 H   0  0  0  0  0  0  0  0  0  0  0  0
   -6.4562    4.9414  -17.4496 H   0  0  0  0  0  0  0  0  0  0  0  0
   -7.1811    6.1670  -18.5127 H   0  0  0  0  0  0  0  0  0  0  0  0
   -9.8700    3.5142  -18.2257 H   0  0  0  0  0  0  0  0  0  0  0  0
   -8.1527    3.1550  -18.2588 H   0  0  0  0  0  0  0  0  0  0  0  0
   -8.8199    4.3558  -19.3870 H   0  0  0  0  0  0  0  0  0  0  0  0
  -10.7182    5.6740  -17.2529 H   0  0  0  0  0  0  0  0  0  0  0  0
   -9.5871    6.8974  -16.6355 H   0  0  0  0  0  0  0  0  0  0  0  0
   -9.7471    6.6027  -18.3819 H   0  0  0  0  0  0  0  0  0  0  0  0
   -7.8450    4.3655   -7.2003 H   0  0  0  0  0  0  0  0  0  0  0  0
   -6.8167    5.6790   -7.8160 H   0  0  0  0  0  0  0  0  0  0  0  0
   -8.0252    5.9853   -6.5497 H   0  0  0  0  0  0  0  0  0  0  0  0
   -9.5979    7.4427   -9.6726 H   0  0  0  0  0  0  0  0  0  0  0  0
   -7.8752    7.4885   -9.3423 H   0  0  0  0  0  0  0  0  0  0  0  0
   -9.0282    7.8567   -8.0405 H   0  0  0  0  0  0  0  0  0  0  0  0
  -11.0259    5.5549   -8.8196 H   0  0  0  0  0  0  0  0  0  0  0  0
  -10.3230    4.2659   -7.8187 H   0  0  0  0  0  0  0  0  0  0  0  0
  -10.5564    5.9031   -7.1647 H   0  0  0  0  0  0  0  0  0  0  0  0
   -5.0477    1.4304   -9.7979 H   0  0  0  0  0  0  0  0  0  0  0  0
   -7.1259   -0.8332  -11.0202 H   0  0  0  0  0  0  0  0  0  0  0  0
  1 18  1  0  0  0  0
  1 20  2  0  0  0  0
  1 24  1  0  0  0  0
  2 19  1  0  0  0  0
  2 21  2  0  0  0  0
  2 25  1  0  0  0  0
  3  7  1  0  0  0  0
  3  9  1  0  0  0  0
  4  8  1  0  0  0  0
  4 19  1  0  0  0  0
  5  9  1  0  0  0  0
  5 18  1  0  0  0  0
  6  9  1  0  0  0  0
  6 18  1  0  0  0  0
  7  8  1  0  0  0  0
  7 22  1  1  0  0  0
  8 23  1  1  0  0  0
  9 19  1  0  0  0  0
 10 16  1  0  0  0  0
 11 16  1  0  0  0  0
 12 16  1  0  0  0  0
 13 17  1  0  0  0  0
 14 17  1  0  0  0  0
 15 17  1  0  0  0  0
 16 24  1  0  0  0  0
 17 25  1  0  0  0  0
  3 26  1  0  0  0  0
  3 27  1  0  0  0  0
  4 28  1  0  0  0  0
  4 29  1  0  0  0  0
  5 30  1  0  0  0  0
  5 31  1  0  0  0  0
  6 32  1  0  0  0  0
  6 33  1  0  0  0  0
  7 34  1  0  0  0  0
  8 35  1  0  0  0  0
 10 36  1  0  0  0  0
 10 37  1  0  0  0  0
 10 38  1  0  0  0  0
 11 39  1  0  0  0  0
 11 40  1  0  0  0  0
 11 41  1  0  0  0  0
 12 42  1  0  0  0  0
 12 43  1  0  0  0  0
 12 44  1  0  0  0  0
 13 45  1  0  0  0  0
 13 46  1  0  0  0  0
 13 47  1  0  0  0  0
 14 48  1  0  0  0  0
 14 49  1  0  0  0  0
 14 50  1  0  0  0  0
 15 51  1  0  0  0  0
 15 52  1  0  0  0  0
 15 53  1  0  0  0  0
 22 54  1  0  0  0  0
 23 55  1  0  0  0  0
M  END
> <id>
EN300-28299552

> <smiles>
CC(C)(C)OC(=O)N1CC2(C1)C[C@@H](O)[C@@H](O)CN2C(=O)OC(C)(C)C |&1:12,14,r|

> <IUPAC Name>
rac-2,5-di-tert-butyl (7R,8S)-7,8-dihydroxy-2,5-diazaspiro[3.5]nonane-2,5-dicarboxylate

> <CAS>
2679940-20-4

> <URL>
https://www.enaminestore.com/catalog/EN300-28299552

> <ROCS_ShapeQuery>
_x0404_0B

> <ROCS_TanimotoCombo>
0.457 

> <ROCS_ShapeTanimoto>
0.305 

> <ROCS_ColorTanimoto>
0.153 

> <ROCS_RefTversky>
0.282 

> <ROCS_RefColorTversky>
0.157 

> <ROCS_RefTverskyCombo>
0.439 

> <ROCS_FitTversky>
1.347 

> <ROCS_FitColorTversky>
0.853 

> <ROCS_FitTverskyCombo>
2.200 

> <ROCS_ColorScore>
-11.329

> <ROCS_Overlap>
1886.579

> <ROCS_Rank>
5                   

$$$$
untitled-dbase-23988_2
  -OEChem-08212314543D

 49 52  0     1  0  0  0  0  0999 V2000
   -6.3085    3.4130  -16.4655 C   0  0  0  0  0  0  0  0  0  0  0  0
   -9.9200    4.2573   -8.8822 C   0  0  0  0  0  0  0  0  0  0  0  0
  -10.2476    3.3417   -7.8868 C   0  0  0  0  0  0  0  0  0  0  0  0
   -6.4064    3.3296  -12.2364 C   0  0  0  0  0  0  0  0  0  0  0  0
   -7.9730    2.5286   -7.8983 C   0  0  0  0  0  0  0  0  0  0  0  0
   -7.3102    1.8334  -13.8498 C   0  0  0  0  0  0  0  0  0  0  0  0
   -7.0311    4.3341  -15.6534 C   0  0  0  0  0  0  0  0  0  0  0  0
   -7.0045    3.1385  -13.4800 C   0  0  0  0  0  0  0  0  0  0  0  0
   -7.3484    4.2700  -14.3141 C   0  0  0  0  0  0  0  0  0  0  0  0
   -8.6186    4.2937   -9.4058 C   0  0  0  0  0  0  0  0  0  0  0  0
   -7.6021    3.4628   -8.8840 C   0  0  0  0  0  0  0  0  0  0  0  0
   -6.2438    2.2545  -11.3687 C   0  0  0  0  0  0  0  0  0  0  0  0
   -9.2788    2.4683   -7.4056 C   0  0  0  0  0  0  0  0  0  0  0  0
   -8.0590    5.4859  -14.0494 C   0  0  0  0  0  0  0  0  0  0  0  0
   -6.5679    0.9926  -11.8426 C   0  0  0  0  0  0  0  0  0  0  0  0
   -8.3535    5.2718  -10.4832 C   0  0  0  0  0  0  0  0  0  0  0  0
   -8.7012    6.0429  -12.8108 C   0  0  0  0  0  0  0  0  0  0  0  0
   -6.1500    3.5201   -9.3485 C   0  0  1  0  0  0  0  0  0  0  0  0
   -5.1706    3.6214   -8.1712 C   0  0  0  0  0  0  0  0  0  0  0  0
   -7.4316    6.0537  -17.4396 C   0  0  0  0  0  0  0  0  0  0  0  0
   -9.9572    4.0331  -12.0129 C   0  0  0  0  0  0  0  0  0  0  0  0
   -5.7200    2.6638  -17.1282 N   0  0  0  0  0  0  0  0  0  0  0  0
   -7.0856    0.7531  -13.0679 N   0  0  0  0  0  0  0  0  0  0  0  0
   -8.1412    6.2425  -15.1570 N   0  0  0  0  0  0  0  0  0  0  0  0
   -7.5177    5.5229  -16.0974 N   0  0  0  0  0  0  0  0  0  0  0  0
   -8.9505    5.0653  -11.7456 N   0  0  0  0  0  0  0  0  0  0  0  0
   -6.3658   -0.1187  -10.9850 N   0  0  0  0  0  0  0  0  0  0  0  0
   -7.6121    6.2113  -10.1954 O   0  0  0  0  0  0  0  0  0  0  0  0
   -5.7881    2.3369  -10.0849 O   0  0  0  0  0  0  0  0  0  0  0  0
   -9.5946    1.5717   -6.4614 F   0  0  0  0  0  0  0  0  0  0  0  0
  -10.6856    4.9384   -9.2461 H   0  0  0  0  0  0  0  0  0  0  0  0
  -11.2559    3.3108   -7.4858 H   0  0  0  0  0  0  0  0  0  0  0  0
   -6.0981    4.3224  -11.9538 H   0  0  0  0  0  0  0  0  0  0  0  0
   -7.2380    1.8315   -7.4999 H   0  0  0  0  0  0  0  0  0  0  0  0
   -7.7930    1.6011  -14.7958 H   0  0  0  0  0  0  0  0  0  0  0  0
   -8.0600    6.8332  -12.3767 H   0  0  0  0  0  0  0  0  0  0  0  0
   -9.6326    6.5527  -13.1093 H   0  0  0  0  0  0  0  0  0  0  0  0
   -5.9479    4.3993   -9.9722 H   0  0  0  0  0  0  0  0  0  0  0  0
   -5.3139    2.7751   -7.5040 H   0  0  0  0  0  0  0  0  0  0  0  0
   -5.3506    4.5446   -7.6259 H   0  0  0  0  0  0  0  0  0  0  0  0
   -4.1497    3.6168   -8.5451 H   0  0  0  0  0  0  0  0  0  0  0  0
   -8.3136    5.7190  -17.9919 H   0  0  0  0  0  0  0  0  0  0  0  0
   -7.3985    7.1459  -17.3977 H   0  0  0  0  0  0  0  0  0  0  0  0
   -6.5186    5.6857  -17.9159 H   0  0  0  0  0  0  0  0  0  0  0  0
  -10.9615    4.4445  -11.8337 H   0  0  0  0  0  0  0  0  0  0  0  0
   -9.8769    3.7052  -13.0598 H   0  0  0  0  0  0  0  0  0  0  0  0
   -9.7883    3.1749  -11.3459 H   0  0  0  0  0  0  0  0  0  0  0  0
   -6.6399   -1.0235  -11.2995 H   0  0  0  0  0  0  0  0  0  0  0  0
   -6.0439    0.0430  -10.0560 H   0  0  0  0  0  0  0  0  0  0  0  0
  1  7  1  0  0  0  0
  1 22  3  0  0  0  0
  2  3  1  0  0  0  0
  2 10  2  0  0  0  0
  3 13  2  0  0  0  0
  4  8  2  0  0  0  0
  4 12  1  0  0  0  0
  5 11  2  0  0  0  0
  5 13  1  0  0  0  0
  6  8  1  0  0  0  0
  6 23  2  0  0  0  0
  7  9  2  0  0  0  0
  7 25  1  0  0  0  0
  8  9  1  0  0  0  0
  9 14  1  0  0  0  0
 10 11  1  0  0  0  0
 10 16  1  0  0  0  0
 11 18  1  0  0  0  0
 12 15  2  0  0  0  0
 12 29  1  0  0  0  0
 13 30  1  0  0  0  0
 14 17  1  0  0  0  0
 14 24  2  0  0  0  0
 15 23  1  0  0  0  0
 15 27  1  0  0  0  0
 16 26  1  0  0  0  0
 16 28  2  0  0  0  0
 17 26  1  0  0  0  0
 18 19  1  1  0  0  0
 18 29  1  0  0  0  0
 20 25  1  0  0  0  0
 21 26  1  0  0  0  0
 24 25  1  0  0  0  0
  2 31  1  0  0  0  0
  3 32  1  0  0  0  0
  4 33  1  0  0  0  0
  5 34  1  0  0  0  0
  6 35  1  0  0  0  0
 17 36  1  0  0  0  0
 17 37  1  0  0  0  0
 18 38  1  0  0  0  0
 19 39  1  0  0  0  0
 19 40  1  0  0  0  0
 19 41  1  0  0  0  0
 20 42  1  0  0  0  0
 20 43  1  0  0  0  0
 20 44  1  0  0  0  0
 21 45  1  0  0  0  0
 21 46  1  0  0  0  0
 21 47  1  0  0  0  0
 27 48  1  0  0  0  0
 27 49  1  0  0  0  0
M  END
> <id>
EN300-7406070

> <smiles>
C[C@H]1OC=2C=C(C=NC2N)C3=C(C#N)N(C)N=C3CN(C)C(=O)C=4C=CC(F)=CC14

> <MDLNUMBER>
MFCD28144520

> <IUPAC Name>
(16R)-19-amino-13-fluoro-4,8,16-trimethyl-9-oxo-17-oxa-4,5,8,20-tetraazatetracyclo[16.3.1.0^{2,6}.0^{10,15}]docosa-1(22),2,5,10(15),11,13,18,20-octaene-3-carbonitrile

> <CAS>
1454846-35-5

> <URL>
https://www.enaminestore.com/catalog/EN300-7406070

> <ROCS_ShapeQuery>
_x0404_0B

> <ROCS_TanimotoCombo>
0.450 

> <ROCS_ShapeTanimoto>
0.303 

> <ROCS_ColorTanimoto>
0.147 

> <ROCS_RefTversky>
0.291 

> <ROCS_RefColorTversky>
0.152 

> <ROCS_RefTverskyCombo>
0.443 

> <ROCS_FitTversky>
1.164 

> <ROCS_FitColorTversky>
0.826 

> <ROCS_FitTverskyCombo>
1.989 

> <ROCS_ColorScore>
-10.972

> <ROCS_Overlap>
1947.784

> <ROCS_Rank>
6                   

$$$$
untitled-dbase-25549_83
  -OEChem-08212314543D

 55 59  0     1  0  0  0  0  0999 V2000
  -10.2167    5.2157  -18.7791 C   0  0  0  0  0  0  0  0  0  0  0  0
   -8.9641    6.0719   -8.1621 C   0  0  0  0  0  0  0  0  0  0  0  0
   -8.9254    4.6699   -8.1318 C   0  0  0  0  0  0  0  0  0  0  0  0
   -8.9038    5.3207  -19.2316 C   0  0  0  0  0  0  0  0  0  0  0  0
  -10.4784    5.0287  -17.4196 C   0  0  0  0  0  0  0  0  0  0  0  0
   -8.9150    6.7562   -9.3764 C   0  0  0  0  0  0  0  0  0  0  0  0
   -8.8262    3.9304   -9.3140 C   0  0  0  0  0  0  0  0  0  0  0  0
   -7.8489    5.2315  -18.3267 C   0  0  0  0  0  0  0  0  0  0  0  0
   -9.4263    4.9470  -16.4953 C   0  0  0  0  0  0  0  0  0  0  0  0
   -8.8304    6.0142  -10.5429 C   0  0  0  0  0  0  0  0  0  0  0  0
   -8.7722    4.6086  -10.5189 C   0  0  0  0  0  0  0  0  0  0  0  0
   -8.1099    5.0300  -16.9666 C   0  0  0  0  0  0  0  0  0  0  0  0
   -6.4515    2.1448  -14.1686 C   0  0  0  0  0  0  0  0  0  0  0  0
   -6.0812    3.2895  -14.7607 C   0  0  0  0  0  0  0  0  0  0  0  0
   -9.7907    4.7412  -15.0659 C   0  0  0  0  0  0  0  0  0  0  0  0
   -8.7926    1.5476  -12.4090 C   0  0  0  0  0  0  0  0  0  0  0  0
   -8.7832    6.5290  -11.9517 C   0  0  0  0  0  0  0  0  0  0  0  0
   -6.1406    1.8716  -12.7294 C   0  0  0  0  0  0  0  0  0  0  0  0
   -6.4227    3.6641  -16.1653 C   0  0  0  0  0  0  0  0  0  0  0  0
   -7.0591   -0.3999  -11.9965 C   0  0  0  0  0  0  0  0  0  0  0  0
   -7.0586    1.0043  -10.4716 C   0  0  0  0  0  0  0  0  0  0  0  0
   -8.6049    4.0791  -11.9203 C   0  0  2  0  0  0  0  0  0  0  0  0
   -9.2438    5.2650  -12.6986 C   0  0  2  0  0  0  0  0  0  0  0  0
   -7.3079    1.1578  -12.0070 C   0  0  0  0  0  0  0  0  0  0  0  0
   -8.9410    5.2972  -14.1183 N   0  0  0  0  0  0  0  0  0  0  0  0
   -9.2849    2.8313  -12.2177 N   0  0  0  0  0  0  0  0  0  0  0  0
   -6.3463   -0.2632  -10.7127 N   0  0  0  0  0  0  0  0  0  0  0  0
  -10.8257    4.1324  -14.8027 O   0  0  0  0  0  0  0  0  0  0  0  0
   -9.5797    0.6989  -12.8659 O   0  0  0  0  0  0  0  0  0  0  0  0
   -7.0525    4.9506  -16.1040 O   0  0  0  0  0  0  0  0  0  0  0  0
  -11.0406    5.2846  -19.4837 H   0  0  0  0  0  0  0  0  0  0  0  0
   -9.0269    6.6277   -7.2308 H   0  0  0  0  0  0  0  0  0  0  0  0
   -8.9655    4.1528   -7.1761 H   0  0  0  0  0  0  0  0  0  0  0  0
   -8.7032    5.4711  -20.2878 H   0  0  0  0  0  0  0  0  0  0  0  0
  -11.5152    4.9619  -17.0941 H   0  0  0  0  0  0  0  0  0  0  0  0
   -8.9427    7.8398   -9.4010 H   0  0  0  0  0  0  0  0  0  0  0  0
   -8.7896    2.8456   -9.2719 H   0  0  0  0  0  0  0  0  0  0  0  0
   -6.8272    5.3172  -18.6861 H   0  0  0  0  0  0  0  0  0  0  0  0
   -6.9941    1.3969  -14.7192 H   0  0  0  0  0  0  0  0  0  0  0  0
   -5.5034    4.0179  -14.1907 H   0  0  0  0  0  0  0  0  0  0  0  0
   -9.4671    7.3629  -12.1110 H   0  0  0  0  0  0  0  0  0  0  0  0
   -7.7602    6.8118  -12.2079 H   0  0  0  0  0  0  0  0  0  0  0  0
   -5.2200    1.2614  -12.6793 H   0  0  0  0  0  0  0  0  0  0  0  0
   -5.9013    2.8087  -12.1923 H   0  0  0  0  0  0  0  0  0  0  0  0
   -5.4992    3.7206  -16.7486 H   0  0  0  0  0  0  0  0  0  0  0  0
   -7.0974    2.9311  -16.6199 H   0  0  0  0  0  0  0  0  0  0  0  0
   -7.9355   -1.0552  -11.9540 H   0  0  0  0  0  0  0  0  0  0  0  0
   -6.4181   -0.7673  -12.8113 H   0  0  0  0  0  0  0  0  0  0  0  0
   -6.4205    1.7793  -10.0120 H   0  0  0  0  0  0  0  0  0  0  0  0
   -7.9541    0.9059   -9.8375 H   0  0  0  0  0  0  0  0  0  0  0  0
   -7.5365    3.9955  -12.1417 H   0  0  0  0  0  0  0  0  0  0  0  0
  -10.3483    5.2127  -12.5932 H   0  0  0  0  0  0  0  0  0  0  0  0
   -8.0841    5.7384  -14.4280 H   0  0  0  0  0  0  0  0  0  0  0  0
  -10.3481    2.9306  -12.3095 H   0  0  0  0  0  0  0  0  0  0  0  0
   -6.5908   -0.9924  -10.0415 H   0  0  0  0  0  0  0  0  0  0  0  0
  1  4  2  0  0  0  0
  1  5  1  0  0  0  0
  2  3  2  0  0  0  0
  2  6  1  0  0  0  0
  3  7  1  0  0  0  0
  4  8  1  0  0  0  0
  5  9  2  0  0  0  0
  6 10  2  0  0  0  0
  7 11  2  0  0  0  0
  8 12  2  0  0  0  0
  9 12  1  0  0  0  0
  9 15  1  0  0  0  0
 10 11  1  0  0  0  0
 10 17  1  0  0  0  0
 11 22  1  0  0  0  0
 12 30  1  0  0  0  0
 13 14  2  0  0  0  0
 13 18  1  0  0  0  0
 14 19  1  0  0  0  0
 15 25  1  0  0  0  0
 15 28  2  0  0  0  0
 16 24  1  0  0  0  0
 16 26  1  0  0  0  0
 16 29  2  0  0  0  0
 17 23  1  6  0  0  0
 18 24  1  0  0  0  0
 19 30  1  0  0  0  0
 20 24  1  0  0  0  0
 20 27  1  0  0  0  0
 21 24  1  0  0  0  0
 21 27  1  0  0  0  0
 22 23  1  0  0  0  0
 22 26  1  1  0  0  0
 23 25  1  0  0  0  0
  1 31  1  0  0  0  0
  2 32  1  0  0  0  0
  3 33  1  0  0  0  0
  4 34  1  0  0  0  0
  5 35  1  0  0  0  0
  6 36  1  0  0  0  0
  7 37  1  0  0  0  0
  8 38  1  0  0  0  0
 13 39  1  0  0  0  0
 14 40  1  0  0  0  0
 17 41  1  0  0  0  0
 17 42  1  0  0  0  0
 18 43  1  0  0  0  0
 18 44  1  0  0  0  0
 19 45  1  0  0  0  0
 19 46  1  0  0  0  0
 20 47  1  0  0  0  0
 20 48  1  0  0  0  0
 21 49  1  0  0  0  0
 21 50  1  0  0  0  0
 22 51  1  0  0  0  0
 23 52  1  0  0  0  0
 25 53  1  0  0  0  0
 26 54  1  0  0  0  0
 27 55  1  0  0  0  0
M  END
> <id>
EN300-6486916

> <smiles>
OC(=O)C(F)(F)F.O=C1N[C@@H]2CC=3C=CC=CC3[C@H]2NC(=O)C4(CNC4)C/C=C/COC=5C=CC=CC15

> <MDLNUMBER>
MFCD31736692

> <IUPAC Name>
(1'R,12'E,18'R)-10'-oxa-2',17'-diazaspiro[azetidine-3,15'-tetracyclo[16.7.0.0^{4,9}.0^{19,24}]pentacosane]-4'(9'),5',7',12',19'(24'),20',22'-heptaene-3',16'-dione; trifluoroacetic acid

> <URL>
https://www.enaminestore.com/catalog/EN300-6486916

> <Saltdate>
OC(=O)C(F)(F)F

> <ROCS_ShapeQuery>
_x0404_0B

> <ROCS_TanimotoCombo>
0.446 

> <ROCS_ShapeTanimoto>
0.353 

> <ROCS_ColorTanimoto>
0.093 

> <ROCS_RefTversky>
0.325 

> <ROCS_RefColorTversky>
0.102 

> <ROCS_RefTverskyCombo>
0.427 

> <ROCS_FitTversky>
1.318 

> <ROCS_FitColorTversky>
0.518 

> <ROCS_FitTverskyCombo>
1.836 

> <ROCS_ColorScore>
-7.384

> <ROCS_Overlap>
2178.500

> <ROCS_Rank>
7                   

$$$$
untitled-dbase-48115_226
  -OEChem-08212314543D

 48 50  0     1  0  0  0  0  0999 V2000
   -8.4808    3.7881  -17.8045 C   0  0  0  0  0  0  0  0  0  0  0  0
   -8.3568    5.1706  -17.9116 C   0  0  0  0  0  0  0  0  0  0  0  0
   -8.4398    3.1788  -16.5498 C   0  0  0  0  0  0  0  0  0  0  0  0
   -8.2036    5.9453  -16.7636 C   0  0  0  0  0  0  0  0  0  0  0  0
   -8.2663    3.9447  -15.3870 C   0  0  0  0  0  0  0  0  0  0  0  0
   -8.1740    5.3384  -15.5043 C   0  0  0  0  0  0  0  0  0  0  0  0
   -9.2041    5.2590   -9.1443 C   0  0  0  0  0  0  0  0  0  0  0  0
   -9.8211    5.6669  -12.8745 C   0  0  0  0  0  0  0  0  0  0  0  0
   -7.6141    6.6174  -12.1195 C   0  0  0  0  0  0  0  0  0  0  0  0
   -7.6604    4.2522  -12.9988 C   0  0  0  0  0  0  0  0  0  0  0  0
  -10.1731    5.2227  -11.4576 C   0  0  0  0  0  0  0  0  0  0  0  0
   -8.4241    6.8851  -10.8477 C   0  0  0  0  0  0  0  0  0  0  0  0
   -8.2248    3.2856  -14.0351 C   0  0  2  0  0  0  0  0  0  0  0  0
   -8.2973    5.6503  -13.1256 C   0  0  0  0  0  0  0  0  0  0  0  0
  -10.5425    4.1400   -6.8766 C   0  0  0  0  0  0  0  0  0  0  0  0
  -10.0126    1.9069   -7.8971 C   0  0  0  0  0  0  0  0  0  0  0  0
   -8.1474    3.4371   -7.1988 C   0  0  0  0  0  0  0  0  0  0  0  0
   -9.5673    3.3610   -7.7580 C   0  0  0  0  0  0  0  0  0  0  0  0
   -9.2416    5.7440  -10.4548 N   0  0  0  0  0  0  0  0  0  0  0  0
   -8.8823    5.9267   -8.1636 O   0  0  0  0  0  0  0  0  0  0  0  0
   -8.0340    6.1895  -14.4389 O   0  0  0  0  0  0  0  0  0  0  0  0
   -7.4001    2.1243  -14.0702 O   0  0  0  0  0  0  0  0  0  0  0  0
   -9.5733    3.9411   -9.0674 O   0  0  0  0  0  0  0  0  0  0  0  0
   -8.6093    3.1833  -18.6974 H   0  0  0  0  0  0  0  0  0  0  0  0
   -8.3855    5.6453  -18.8880 H   0  0  0  0  0  0  0  0  0  0  0  0
   -8.5428    2.0983  -16.4870 H   0  0  0  0  0  0  0  0  0  0  0  0
   -8.1172    7.0250  -16.8556 H   0  0  0  0  0  0  0  0  0  0  0  0
  -10.3231    5.0079  -13.5932 H   0  0  0  0  0  0  0  0  0  0  0  0
  -10.2319    6.6720  -13.0159 H   0  0  0  0  0  0  0  0  0  0  0  0
   -7.4260    7.5879  -12.6113 H   0  0  0  0  0  0  0  0  0  0  0  0
   -6.6249    6.2177  -11.8328 H   0  0  0  0  0  0  0  0  0  0  0  0
   -7.7985    3.8410  -11.9923 H   0  0  0  0  0  0  0  0  0  0  0  0
   -6.5746    4.3320  -13.1469 H   0  0  0  0  0  0  0  0  0  0  0  0
  -11.1786    5.5756  -11.1773 H   0  0  0  0  0  0  0  0  0  0  0  0
  -10.2070    4.1236  -11.4129 H   0  0  0  0  0  0  0  0  0  0  0  0
   -7.7368    7.1844  -10.0417 H   0  0  0  0  0  0  0  0  0  0  0  0
   -9.1073    7.7376  -10.9996 H   0  0  0  0  0  0  0  0  0  0  0  0
   -9.2386    2.9738  -13.7635 H   0  0  0  0  0  0  0  0  0  0  0  0
  -10.2264    5.1844   -6.7743 H   0  0  0  0  0  0  0  0  0  0  0  0
  -11.5580    4.1226   -7.2855 H   0  0  0  0  0  0  0  0  0  0  0  0
  -10.5705    3.7248   -5.8627 H   0  0  0  0  0  0  0  0  0  0  0  0
   -9.3157    1.3442   -8.5287 H   0  0  0  0  0  0  0  0  0  0  0  0
  -10.9918    1.8435   -8.3853 H   0  0  0  0  0  0  0  0  0  0  0  0
  -10.0775    1.4094   -6.9240 H   0  0  0  0  0  0  0  0  0  0  0  0
   -7.4477    2.8784   -7.8308 H   0  0  0  0  0  0  0  0  0  0  0  0
   -7.7972    4.4719   -7.1266 H   0  0  0  0  0  0  0  0  0  0  0  0
   -8.0959    2.9818   -6.2031 H   0  0  0  0  0  0  0  0  0  0  0  0
   -7.4141    1.7478  -13.1765 H   0  0  0  0  0  0  0  0  0  0  0  0
  1  2  2  0  0  0  0
  1  3  1  0  0  0  0
  2  4  1  0  0  0  0
  3  5  2  0  0  0  0
  4  6  2  0  0  0  0
  5  6  1  0  0  0  0
  5 13  1  0  0  0  0
  6 21  1  0  0  0  0
  7 19  1  0  0  0  0
  7 20  2  0  0  0  0
  7 23  1  0  0  0  0
  8 11  1  0  0  0  0
  8 14  1  0  0  0  0
  9 12  1  0  0  0  0
  9 14  1  0  0  0  0
 10 13  1  0  0  0  0
 10 14  1  0  0  0  0
 11 19  1  0  0  0  0
 12 19  1  0  0  0  0
 13 22  1  0  0  0  0
 14 21  1  0  0  0  0
 15 18  1  0  0  0  0
 16 18  1  0  0  0  0
 17 18  1  0  0  0  0
 18 23  1  0  0  0  0
  1 24  1  0  0  0  0
  2 25  1  0  0  0  0
  3 26  1  0  0  0  0
  4 27  1  0  0  0  0
  8 28  1  0  0  0  0
  8 29  1  0  0  0  0
  9 30  1  0  0  0  0
  9 31  1  0  0  0  0
 10 32  1  0  0  0  0
 10 33  1  0  0  0  0
 11 34  1  0  0  0  0
 11 35  1  0  0  0  0
 12 36  1  0  0  0  0
 12 37  1  0  0  0  0
 13 38  1  0  0  0  0
 15 39  1  0  0  0  0
 15 40  1  0  0  0  0
 15 41  1  0  0  0  0
 16 42  1  0  0  0  0
 16 43  1  0  0  0  0
 16 44  1  0  0  0  0
 17 45  1  0  0  0  0
 17 46  1  0  0  0  0
 17 47  1  0  0  0  0
 22 48  1  0  0  0  0
M  END
> <id>
EN300-300131

> <smiles>
CC(C)(C)OC(=O)N1CCC2(CC1)CC(O)C=3C=CC=CC3O2

> <MDLNUMBER>
MFCD22377049

> <IUPAC Name>
tert-butyl 4-hydroxy-3,4-dihydrospiro[1-benzopyran-2,4'-piperidine]-1'-carboxylate

> <CAS>
1024604-94-1

> <Purity>
95

> <URL>
https://www.enaminestore.com/catalog/EN300-300131

> <ROCS_ShapeQuery>
_x0404_0B

> <ROCS_TanimotoCombo>
0.444 

> <ROCS_ShapeTanimoto>
0.318 

> <ROCS_ColorTanimoto>
0.126 

> <ROCS_RefTversky>
0.289 

> <ROCS_RefColorTversky>
0.130 

> <ROCS_RefTverskyCombo>
0.419 

> <ROCS_FitTversky>
1.448 

> <ROCS_FitColorTversky>
0.823 

> <ROCS_FitTverskyCombo>
2.272 

> <ROCS_ColorScore>
-9.371

> <ROCS_Overlap>
1932.268

> <ROCS_Rank>
8                   

$$$$
untitled-dbase-24116_0
  -OEChem-08212314543D

 57 63  0     1  0  0  0  0  0999 V2000
   -8.4967    4.9354   -8.5546 C   0  0  0  0  0  0  0  0  0  0  0  0
   -8.6933    5.1609   -9.8686 C   0  0  0  0  0  0  0  0  0  0  0  0
   -8.9944    3.7215   -7.8688 C   0  0  0  0  0  0  0  0  0  0  0  0
   -9.3943    4.5868  -18.8178 C   0  0  0  0  0  0  0  0  0  0  0  0
   -9.6058    2.6163   -8.6897 C   0  0  0  0  0  0  0  0  0  0  0  0
   -7.9121    4.4454  -18.6498 C   0  0  0  0  0  0  0  0  0  0  0  0
   -9.2513    2.7336  -10.1676 C   0  0  0  0  0  0  0  0  0  0  0  0
   -7.7827    4.2677  -17.1515 C   0  0  0  0  0  0  0  0  0  0  0  0
   -9.5266    3.1086  -13.1610 C   0  0  0  0  0  0  0  0  0  0  0  0
   -9.1342    3.2553  -14.6467 C   0  0  0  0  0  0  0  0  0  0  0  0
   -8.9160    7.4912  -10.9762 C   0  0  0  0  0  0  0  0  0  0  0  0
   -9.4879    7.6095  -15.8503 C   0  0  0  0  0  0  0  0  0  0  0  0
   -8.0717    6.3399  -10.5137 C   0  0  2  0  0  0  0  0  0  0  0  0
   -8.9417    4.2119  -12.2324 C   0  0  1  0  0  0  0  0  0  0  0  0
   -8.2386    6.5995  -11.9872 C   0  0  1  0  0  0  0  0  0  0  0  0
   -8.4368    6.9068  -15.0432 C   0  0  2  0  0  0  0  0  0  0  0  0
   -8.6122    6.5605  -16.4932 C   0  0  1  0  0  0  0  0  0  0  0  0
   -9.0600    5.6559  -12.8302 C   0  0  1  0  0  0  0  0  0  0  0  0
   -8.5942    5.6192  -14.2847 C   0  0  1  0  0  0  0  0  0  0  0  0
   -9.4726    4.1595  -10.7464 C   0  0  2  0  0  0  0  0  0  0  0  0
   -9.4563    4.6702  -15.1725 C   0  0  1  0  0  0  0  0  0  0  0  0
   -8.9621    5.0683  -16.6099 C   0  0  2  0  0  0  0  0  0  0  0  0
  -10.9829    4.4969  -10.6708 C   0  0  0  0  0  0  0  0  0  0  0  0
  -11.0024    4.8307  -15.0878 C   0  0  0  0  0  0  0  0  0  0  0  0
   -8.9174    3.6415   -6.6436 O   0  0  0  0  0  0  0  0  0  0  0  0
  -10.0024    4.4756  -19.8710 O   0  0  0  0  0  0  0  0  0  0  0  0
   -9.9716    4.8906  -17.6157 O   0  0  0  0  0  0  0  0  0  0  0  0
   -7.9385    5.6381   -7.9434 H   0  0  0  0  0  0  0  0  0  0  0  0
   -9.2329    1.6588   -8.3093 H   0  0  0  0  0  0  0  0  0  0  0  0
  -10.6904    2.6381   -8.5418 H   0  0  0  0  0  0  0  0  0  0  0  0
   -7.5381    3.5717  -19.1888 H   0  0  0  0  0  0  0  0  0  0  0  0
   -7.4184    5.3545  -19.0034 H   0  0  0  0  0  0  0  0  0  0  0  0
   -8.1983    2.4476  -10.2997 H   0  0  0  0  0  0  0  0  0  0  0  0
   -9.8478    1.9924  -10.7120 H   0  0  0  0  0  0  0  0  0  0  0  0
   -7.8960    3.1983  -16.9428 H   0  0  0  0  0  0  0  0  0  0  0  0
   -6.8092    4.5895  -16.7700 H   0  0  0  0  0  0  0  0  0  0  0  0
  -10.6168    3.0739  -13.0759 H   0  0  0  0  0  0  0  0  0  0  0  0
   -9.1691    2.1266  -12.8297 H   0  0  0  0  0  0  0  0  0  0  0  0
   -8.0619    3.0393  -14.7306 H   0  0  0  0  0  0  0  0  0  0  0  0
   -9.6527    2.4931  -15.2408 H   0  0  0  0  0  0  0  0  0  0  0  0
   -9.9911    7.4365  -10.8634 H   0  0  0  0  0  0  0  0  0  0  0  0
   -8.5174    8.4911  -10.8466 H   0  0  0  0  0  0  0  0  0  0  0  0
  -10.5260    7.4413  -15.6266 H   0  0  0  0  0  0  0  0  0  0  0  0
   -9.2939    8.6437  -16.1197 H   0  0  0  0  0  0  0  0  0  0  0  0
   -7.0928    6.5913  -10.1108 H   0  0  0  0  0  0  0  0  0  0  0  0
   -7.8625    3.9890  -12.1818 H   0  0  0  0  0  0  0  0  0  0  0  0
   -7.3601    6.9847  -12.4912 H   0  0  0  0  0  0  0  0  0  0  0  0
   -7.5568    7.4703  -14.7608 H   0  0  0  0  0  0  0  0  0  0  0  0
   -7.8752    6.9081  -17.2050 H   0  0  0  0  0  0  0  0  0  0  0  0
  -10.0938    6.0095  -12.8122 H   0  0  0  0  0  0  0  0  0  0  0  0
   -7.5665    5.2174  -14.2652 H   0  0  0  0  0  0  0  0  0  0  0  0
  -11.5267    3.7937  -11.2868 H   0  0  0  0  0  0  0  0  0  0  0  0
  -11.1318    5.5046  -11.0338 H   0  0  0  0  0  0  0  0  0  0  0  0
  -11.3047    4.4189   -9.6413 H   0  0  0  0  0  0  0  0  0  0  0  0
  -11.2622    5.8136  -15.4496 H   0  0  0  0  0  0  0  0  0  0  0  0
  -11.2998    4.7153  -14.0569 H   0  0  0  0  0  0  0  0  0  0  0  0
  -11.4571    4.0682  -15.7014 H   0  0  0  0  0  0  0  0  0  0  0  0
  1  2  2  0  0  0  0
  1  3  1  0  0  0  0
  2 13  1  0  0  0  0
  2 20  1  0  0  0  0
  3  5  1  0  0  0  0
  3 25  2  0  0  0  0
  4  6  1  0  0  0  0
  4 26  2  0  0  0  0
  4 27  1  0  0  0  0
  5  7  1  0  0  0  0
  6  8  1  0  0  0  0
  7 20  1  0  0  0  0
  8 22  1  6  0  0  0
  9 10  1  0  0  0  0
  9 14  1  1  0  0  0
 10 21  1  0  0  0  0
 11 13  1  1  0  0  0
 11 15  1  1  0  0  0
 12 16  1  1  0  0  0
 12 17  1  1  0  0  0
 13 15  1  0  0  0  0
 14 18  1  0  0  0  0
 14 20  1  0  0  0  0
 15 18  1  6  0  0  0
 16 17  1  0  0  0  0
 16 19  1  1  0  0  0
 17 22  1  0  0  0  0
 18 19  1  0  0  0  0
 19 21  1  0  0  0  0
 20 23  1  1  0  0  0
 21 22  1  0  0  0  0
 21 24  1  1  0  0  0
 22 27  1  0  0  0  0
  1 28  1  0  0  0  0
  5 29  1  0  0  0  0
  5 30  1  0  0  0  0
  6 31  1  0  0  0  0
  6 32  1  0  0  0  0
  7 33  1  0  0  0  0
  7 34  1  0  0  0  0
  8 35  1  0  0  0  0
  8 36  1  0  0  0  0
  9 37  1  0  0  0  0
  9 38  1  0  0  0  0
 10 39  1  0  0  0  0
 10 40  1  0  0  0  0
 11 41  1  0  0  0  0
 11 42  1  0  0  0  0
 12 43  1  0  0  0  0
 12 44  1  0  0  0  0
 13 45  1  0  0  0  0
 14 46  1  0  0  0  0
 15 47  1  0  0  0  0
 16 48  1  0  0  0  0
 17 49  1  0  0  0  0
 18 50  1  0  0  0  0
 19 51  1  0  0  0  0
 23 52  1  0  0  0  0
 23 53  1  0  0  0  0
 23 54  1  0  0  0  0
 24 55  1  0  0  0  0
 24 56  1  0  0  0  0
 24 57  1  0  0  0  0
M  END
> <id>
EN300-19767634

> <smiles>
C[C@@]12CC[C@H]3[C@@H]([C@H]4C[C@H]4C5=CC(=O)CC[C@]35C)[C@@H]2[C@@H]6C[C@@H]6[C@]71CCC(=O)O7

> <MDLNUMBER>
MFCD00867350

> <IUPAC Name>
(1R,2R,4R,10R,11S,14S,15S,16S,18S,19S)-10,14-dimethylspiro[hexacyclo[9.8.0.0^{2,4}.0^{5,10}.0^{14,19}.0^{16,18}]nonadecane-15,2'-oxolan]-5-ene-5',7-dione

> <CAS>
67392-87-4

> <URL>
https://www.enaminestore.com/catalog/EN300-19767634

> <ROCS_ShapeQuery>
_x0404_0B

> <ROCS_TanimotoCombo>
0.443 

> <ROCS_ShapeTanimoto>
0.374 

> <ROCS_ColorTanimoto>
0.069 

> <ROCS_RefTversky>
0.335 

> <ROCS_RefColorTversky>
0.078 

> <ROCS_RefTverskyCombo>
0.413 

> <ROCS_FitTversky>
1.461 

> <ROCS_FitColorTversky>
0.359 

> <ROCS_FitTverskyCombo>
1.820 

> <ROCS_ColorScore>
-5.674

> <ROCS_Overlap>
2239.605

> <ROCS_Rank>
9                   

$$$$
untitled-dbase-42113_38
  -OEChem-08212314543D

 62 64  0     1  0  0  0  0  0999 V2000
   -9.7248    2.3735   -7.4754 C   0  0  0  0  0  0  0  0  0  0  0  0
   -9.4871    3.8361   -7.1105 C   0  0  0  0  0  0  0  0  0  0  0  0
   -7.9989    4.6097  -18.9197 C   0  0  0  0  0  0  0  0  0  0  0  0
   -9.0781    5.6828  -18.7878 C   0  0  0  0  0  0  0  0  0  0  0  0
   -9.6743    2.1449   -8.9831 C   0  0  0  0  0  0  0  0  0  0  0  0
   -8.1981    4.3713   -7.7356 C   0  0  0  0  0  0  0  0  0  0  0  0
   -6.7712    4.9306  -18.0640 C   0  0  0  0  0  0  0  0  0  0  0  0
   -9.4437    5.9541  -17.3296 C   0  0  0  0  0  0  0  0  0  0  0  0
   -8.2176    1.1229  -12.9444 C   0  0  0  0  0  0  0  0  0  0  0  0
   -8.0147    6.6479  -11.1150 C   0  0  0  0  0  0  0  0  0  0  0  0
   -7.4403    1.7552  -15.0800 C   0  0  0  0  0  0  0  0  0  0  0  0
   -9.4732    6.4661  -13.0006 C   0  0  0  0  0  0  0  0  0  0  0  0
   -7.9142    1.2873  -11.4638 C   0  0  0  0  0  0  0  0  0  0  0  0
   -9.0292    6.3138  -10.0246 C   0  0  0  0  0  0  0  0  0  0  0  0
   -6.7550    2.8792  -15.8421 C   0  0  0  0  0  0  0  0  0  0  0  0
   -9.4676    5.9467  -14.4314 C   0  0  0  0  0  0  0  0  0  0  0  0
   -8.3748    2.6873   -9.5928 C   0  0  2  0  0  0  0  0  0  0  0  0
   -8.1789    4.1780   -9.2578 C   0  0  1  0  0  0  0  0  0  0  0  0
   -7.1435    5.1318  -16.5853 C   0  0  1  0  0  0  0  0  0  0  0  0
   -8.1935    6.2603  -16.4929 C   0  0  2  0  0  0  0  0  0  0  0  0
   -7.4704    2.0857  -13.6897 O   0  0  0  0  0  0  0  0  0  0  0  0
   -8.2923    5.9956  -12.3527 O   0  0  0  0  0  0  0  0  0  0  0  0
   -8.4140    2.5475  -11.0184 O   0  0  0  0  0  0  0  0  0  0  0  0
   -9.2380    4.9109   -9.8844 O   0  0  0  0  0  0  0  0  0  0  0  0
   -7.6956    3.9384  -16.0184 O   0  0  0  0  0  0  0  0  0  0  0  0
   -8.4478    6.6442  -15.1403 O   0  0  0  0  0  0  0  0  0  0  0  0
   -8.9709    1.7466   -6.9823 H   0  0  0  0  0  0  0  0  0  0  0  0
  -10.7006    2.0551   -7.0843 H   0  0  0  0  0  0  0  0  0  0  0  0
  -10.3352    4.4420   -7.4402 H   0  0  0  0  0  0  0  0  0  0  0  0
   -9.4251    3.9317   -6.0219 H   0  0  0  0  0  0  0  0  0  0  0  0
   -8.4126    3.6385  -18.6225 H   0  0  0  0  0  0  0  0  0  0  0  0
   -7.7000    4.5182  -19.9700 H   0  0  0  0  0  0  0  0  0  0  0  0
   -8.7210    6.6116  -19.2485 H   0  0  0  0  0  0  0  0  0  0  0  0
   -9.9720    5.3761  -19.3413 H   0  0  0  0  0  0  0  0  0  0  0  0
   -9.7534    1.0713   -9.1927 H   0  0  0  0  0  0  0  0  0  0  0  0
  -10.5460    2.6261   -9.4381 H   0  0  0  0  0  0  0  0  0  0  0  0
   -8.0732    5.4350   -7.4898 H   0  0  0  0  0  0  0  0  0  0  0  0
   -7.3415    3.8645   -7.2748 H   0  0  0  0  0  0  0  0  0  0  0  0
   -6.0490    4.1155  -18.1735 H   0  0  0  0  0  0  0  0  0  0  0  0
   -6.2906    5.8402  -18.4438 H   0  0  0  0  0  0  0  0  0  0  0  0
  -10.1467    6.7912  -17.2869 H   0  0  0  0  0  0  0  0  0  0  0  0
   -9.9777    5.0954  -16.9072 H   0  0  0  0  0  0  0  0  0  0  0  0
   -7.9292    0.1151  -13.2663 H   0  0  0  0  0  0  0  0  0  0  0  0
   -9.2874    1.2757  -13.1336 H   0  0  0  0  0  0  0  0  0  0  0  0
   -8.0019    7.7497  -11.2847 H   0  0  0  0  0  0  0  0  0  0  0  0
   -6.9910    6.3586  -10.7787 H   0  0  0  0  0  0  0  0  0  0  0  0
   -8.4670    1.6226  -15.4388 H   0  0  0  0  0  0  0  0  0  0  0  0
   -6.8782    0.8255  -15.2173 H   0  0  0  0  0  0  0  0  0  0  0  0
   -9.4779    7.5621  -12.9943 H   0  0  0  0  0  0  0  0  0  0  0  0
  -10.3535    6.0888  -12.4691 H   0  0  0  0  0  0  0  0  0  0  0  0
   -8.3927    0.4737  -10.9053 H   0  0  0  0  0  0  0  0  0  0  0  0
   -6.8304    1.2566  -11.2884 H   0  0  0  0  0  0  0  0  0  0  0  0
   -8.6720    6.7242   -9.0536 H   0  0  0  0  0  0  0  0  0  0  0  0
   -9.9970    6.8115  -10.2549 H   0  0  0  0  0  0  0  0  0  0  0  0
   -5.8983    3.2588  -15.2771 H   0  0  0  0  0  0  0  0  0  0  0  0
   -6.4214    2.5052  -16.8130 H   0  0  0  0  0  0  0  0  0  0  0  0
   -9.2614    4.8736  -14.4375 H   0  0  0  0  0  0  0  0  0  0  0  0
  -10.4366    6.1433  -14.8992 H   0  0  0  0  0  0  0  0  0  0  0  0
   -7.5056    2.1244   -9.2093 H   0  0  0  0  0  0  0  0  0  0  0  0
   -7.2154    4.4975   -9.6602 H   0  0  0  0  0  0  0  0  0  0  0  0
   -6.2593    5.4375  -16.0065 H   0  0  0  0  0  0  0  0  0  0  0  0
   -7.6857    7.1754  -17.0008 H   0  0  0  0  0  0  0  0  0  0  0  0
  1  2  1  0  0  0  0
  1  5  1  0  0  0  0
  2  6  1  0  0  0  0
  3  4  1  0  0  0  0
  3  7  1  0  0  0  0
  4  8  1  0  0  0  0
  5 17  1  0  0  0  0
  6 18  1  0  0  0  0
  7 19  1  0  0  0  0
  8 20  1  0  0  0  0
  9 13  1  0  0  0  0
  9 21  1  0  0  0  0
 10 14  1  0  0  0  0
 10 22  1  0  0  0  0
 11 15  1  0  0  0  0
 11 21  1  0  0  0  0
 12 16  1  0  0  0  0
 12 22  1  0  0  0  0
 13 23  1  0  0  0  0
 14 24  1  0  0  0  0
 15 25  1  0  0  0  0
 16 26  1  0  0  0  0
 17 18  1  0  0  0  0
 17 23  1  0  0  0  0
 18 24  1  0  0  0  0
 19 20  1  0  0  0  0
 19 25  1  0  0  0  0
 20 26  1  0  0  0  0
  1 27  1  0  0  0  0
  1 28  1  0  0  0  0
  2 29  1  0  0  0  0
  2 30  1  0  0  0  0
  3 31  1  0  0  0  0
  3 32  1  0  0  0  0
  4 33  1  0  0  0  0
  4 34  1  0  0  0  0
  5 35  1  0  0  0  0
  5 36  1  0  0  0  0
  6 37  1  0  0  0  0
  6 38  1  0  0  0  0
  7 39  1  0  0  0  0
  7 40  1  0  0  0  0
  8 41  1  0  0  0  0
  8 42  1  0  0  0  0
  9 43  1  0  0  0  0
  9 44  1  0  0  0  0
 10 45  1  0  0  0  0
 10 46  1  0  0  0  0
 11 47  1  0  0  0  0
 11 48  1  0  0  0  0
 12 49  1  0  0  0  0
 12 50  1  0  0  0  0
 13 51  1  0  0  0  0
 13 52  1  0  0  0  0
 14 53  1  0  0  0  0
 14 54  1  0  0  0  0
 15 55  1  0  0  0  0
 15 56  1  0  0  0  0
 16 57  1  0  0  0  0
 16 58  1  0  0  0  0
 17 59  1  0  0  0  0
 18 60  1  0  0  0  0
 19 61  1  0  0  0  0
 20 62  1  0  0  0  0
M  END
> <id>
EN300-18470780

> <smiles>
C1CCC2OCCOCCOC3CCCCC3OCCOCCOC2C1

> <MDLNUMBER>
MFCD00005099

> <IUPAC Name>
2,5,8,15,18,21-hexaoxatricyclo[20.4.0.0,9,14]hexacosane

> <CAS>
16069-36-6

> <URL>
https://www.enaminestore.com/catalog/EN300-18470780

> <ROCS_ShapeQuery>
_x0404_0B

> <ROCS_TanimotoCombo>
0.439 

> <ROCS_ShapeTanimoto>
0.351 

> <ROCS_ColorTanimoto>
0.088 

> <ROCS_RefTversky>
0.314 

> <ROCS_RefColorTversky>
0.093 

> <ROCS_RefTverskyCombo>
0.408 

> <ROCS_FitTversky>
1.500 

> <ROCS_FitColorTversky>
0.591 

> <ROCS_FitTverskyCombo>
2.091 

> <ROCS_ColorScore>
-6.733

> <ROCS_Overlap>
2099.464

> <ROCS_Rank>
10                  

$$$$
untitled-dbase-25959_680
  -OEChem-08212314543D

 58 60  0     0  0  0  0  0  0999 V2000
   -8.8647    6.0261  -10.0321 C   0  0  0  0  0  0  0  0  0  0  0  0
   -7.8267    2.1874  -12.7282 C   0  0  0  0  0  0  0  0  0  0  0  0
   -8.5384    5.7968  -14.3478 C   0  0  0  0  0  0  0  0  0  0  0  0
   -9.2534    2.1521   -8.6311 C   0  0  0  0  0  0  0  0  0  0  0  0
   -8.7941    7.2061  -10.9707 C   0  0  0  0  0  0  0  0  0  0  0  0
   -8.6367    1.0837  -12.0947 C   0  0  0  0  0  0  0  0  0  0  0  0
   -7.9589    6.8563  -12.1881 C   0  0  0  0  0  0  0  0  0  0  0  0
   -8.3326    0.9993  -10.6110 C   0  0  0  0  0  0  0  0  0  0  0  0
   -9.1403    4.6477  -10.6814 C   0  0  0  0  0  0  0  0  0  0  0  0
   -7.7583    3.5206  -11.9492 C   0  0  0  0  0  0  0  0  0  0  0  0
   -8.9264    4.5047  -12.2012 C   0  0  0  0  0  0  0  0  0  0  0  0
   -8.0939    3.5229  -10.4380 C   0  0  0  0  0  0  0  0  0  0  0  0
   -7.2550    5.3297  -16.8626 C   0  0  0  0  0  0  0  0  0  0  0  0
   -8.3159    3.0548  -16.7719 C   0  0  0  0  0  0  0  0  0  0  0  0
   -9.7619    5.1070  -16.8482 C   0  0  0  0  0  0  0  0  0  0  0  0
  -10.1492    2.3929   -5.9236 C   0  0  0  0  0  0  0  0  0  0  0  0
   -9.2768    4.7454   -6.0403 C   0  0  0  0  0  0  0  0  0  0  0  0
  -11.1421    4.0265   -7.5607 C   0  0  0  0  0  0  0  0  0  0  0  0
   -8.4432    4.5171  -16.3504 C   0  0  0  0  0  0  0  0  0  0  0  0
   -9.8706    3.5858   -6.8370 C   0  0  0  0  0  0  0  0  0  0  0  0
   -8.5181    5.7353  -12.9461 N   0  0  0  0  0  0  0  0  0  0  0  0
   -8.6453    2.2382   -9.8942 N   0  0  0  0  0  0  0  0  0  0  0  0
   -8.7584    6.2027   -8.8138 O   0  0  0  0  0  0  0  0  0  0  0  0
   -7.3043    2.0166  -13.8349 O   0  0  0  0  0  0  0  0  0  0  0  0
   -8.6286    6.8339  -15.0013 O   0  0  0  0  0  0  0  0  0  0  0  0
  -10.0065    1.2469   -8.2781 O   0  0  0  0  0  0  0  0  0  0  0  0
   -8.4383    4.5554  -14.9190 O   0  0  0  0  0  0  0  0  0  0  0  0
   -8.9015    3.1937   -7.8156 O   0  0  0  0  0  0  0  0  0  0  0  0
   -9.8109    7.4854  -11.2576 H   0  0  0  0  0  0  0  0  0  0  0  0
   -8.3348    8.0453  -10.4418 H   0  0  0  0  0  0  0  0  0  0  0  0
   -9.6982    1.2806  -12.2711 H   0  0  0  0  0  0  0  0  0  0  0  0
   -8.3733    0.1370  -12.5767 H   0  0  0  0  0  0  0  0  0  0  0  0
   -7.8735    7.7344  -12.8356 H   0  0  0  0  0  0  0  0  0  0  0  0
   -6.9435    6.5668  -11.8968 H   0  0  0  0  0  0  0  0  0  0  0  0
   -8.8890    0.1641  -10.1731 H   0  0  0  0  0  0  0  0  0  0  0  0
   -7.2668    0.8032  -10.4436 H   0  0  0  0  0  0  0  0  0  0  0  0
  -10.1608    4.3212  -10.3947 H   0  0  0  0  0  0  0  0  0  0  0  0
   -6.7605    3.9749  -12.1316 H   0  0  0  0  0  0  0  0  0  0  0  0
   -9.8046    4.0520  -12.7065 H   0  0  0  0  0  0  0  0  0  0  0  0
   -7.2245    3.8424   -9.8326 H   0  0  0  0  0  0  0  0  0  0  0  0
   -7.3426    6.3800  -16.5621 H   0  0  0  0  0  0  0  0  0  0  0  0
   -6.3052    4.9379  -16.4843 H   0  0  0  0  0  0  0  0  0  0  0  0
   -7.2202    5.3236  -17.9581 H   0  0  0  0  0  0  0  0  0  0  0  0
   -9.1664    2.4679  -16.4065 H   0  0  0  0  0  0  0  0  0  0  0  0
   -7.4180    2.6002  -16.3379 H   0  0  0  0  0  0  0  0  0  0  0  0
   -8.2654    2.9511  -17.8606 H   0  0  0  0  0  0  0  0  0  0  0  0
  -10.6144    4.5242  -16.4809 H   0  0  0  0  0  0  0  0  0  0  0  0
   -9.8874    6.1450  -16.5237 H   0  0  0  0  0  0  0  0  0  0  0  0
   -9.8144    5.0755  -17.9426 H   0  0  0  0  0  0  0  0  0  0  0  0
  -10.5756    1.5583   -6.4917 H   0  0  0  0  0  0  0  0  0  0  0  0
   -9.2385    2.0450   -5.4253 H   0  0  0  0  0  0  0  0  0  0  0  0
  -10.8865    2.6525   -5.1553 H   0  0  0  0  0  0  0  0  0  0  0  0
   -9.0752    5.6035   -6.6917 H   0  0  0  0  0  0  0  0  0  0  0  0
   -8.3154    4.4623   -5.5966 H   0  0  0  0  0  0  0  0  0  0  0  0
   -9.9471    5.0693   -5.2376 H   0  0  0  0  0  0  0  0  0  0  0  0
  -10.9425    4.8821   -8.2160 H   0  0  0  0  0  0  0  0  0  0  0  0
  -11.5620    3.2174   -8.1672 H   0  0  0  0  0  0  0  0  0  0  0  0
  -11.9036    4.3563   -6.8448 H   0  0  0  0  0  0  0  0  0  0  0  0
  1  5  1  0  0  0  0
  1  9  1  0  0  0  0
  1 23  2  0  0  0  0
  2  6  1  0  0  0  0
  2 10  1  0  0  0  0
  2 24  2  0  0  0  0
  3 21  1  0  0  0  0
  3 25  2  0  0  0  0
  3 27  1  0  0  0  0
  4 22  1  0  0  0  0
  4 26  2  0  0  0  0
  4 28  1  0  0  0  0
  5  7  1  0  0  0  0
  6  8  1  0  0  0  0
  7 21  1  0  0  0  0
  8 22  1  0  0  0  0
  9 11  1  0  0  0  0
  9 12  1  0  0  0  0
 10 11  1  0  0  0  0
 10 12  1  0  0  0  0
 11 21  1  0  0  0  0
 12 22  1  0  0  0  0
 13 19  1  0  0  0  0
 14 19  1  0  0  0  0
 15 19  1  0  0  0  0
 16 20  1  0  0  0  0
 17 20  1  0  0  0  0
 18 20  1  0  0  0  0
 19 27  1  0  0  0  0
 20 28  1  0  0  0  0
  5 29  1  0  0  0  0
  5 30  1  0  0  0  0
  6 31  1  0  0  0  0
  6 32  1  0  0  0  0
  7 33  1  0  0  0  0
  7 34  1  0  0  0  0
  8 35  1  0  0  0  0
  8 36  1  0  0  0  0
  9 37  1  0  0  0  0
 10 38  1  0  0  0  0
 11 39  1  0  0  0  0
 12 40  1  0  0  0  0
 13 41  1  0  0  0  0
 13 42  1  0  0  0  0
 13 43  1  0  0  0  0
 14 44  1  0  0  0  0
 14 45  1  0  0  0  0
 14 46  1  0  0  0  0
 15 47  1  0  0  0  0
 15 48  1  0  0  0  0
 15 49  1  0  0  0  0
 16 50  1  0  0  0  0
 16 51  1  0  0  0  0
 16 52  1  0  0  0  0
 17 53  1  0  0  0  0
 17 54  1  0  0  0  0
 17 55  1  0  0  0  0
 18 56  1  0  0  0  0
 18 57  1  0  0  0  0
 18 58  1  0  0  0  0
M  END
> <id>
EN300-6734676

> <smiles>
CC(C)(C)OC(=O)N1CCC(=O)C2C1C3C2N(CCC3=O)C(=O)OC(C)(C)C

> <MDLNUMBER>
MFCD31737101

> <IUPAC Name>
1,5-di-tert-butyl 4,8-dioxo-dodecahydro-1,5-diazabiphenylene-1,5-dicarboxylate

> <CAS>
2260930-91-2

> <Purity>
95

> <URL>
https://www.enaminestore.com/catalog/EN300-6734676

> <ROCS_ShapeQuery>
_x0404_0B

> <ROCS_TanimotoCombo>
0.437 

> <ROCS_ShapeTanimoto>
0.345 

> <ROCS_ColorTanimoto>
0.092 

> <ROCS_RefTversky>
0.315 

> <ROCS_RefColorTversky>
0.099 

> <ROCS_RefTverskyCombo>
0.415 

> <ROCS_FitTversky>
1.372 

> <ROCS_FitColorTversky>
0.574 

> <ROCS_FitTverskyCombo>
1.946 

> <ROCS_ColorScore>
-7.167

> <ROCS_Overlap>
2109.816

> <ROCS_Rank>
11                  

$$$$
untitled-dbase-24130_3
  -OEChem-08212314543D

 38 42  0     0  0  0  0  0  0999 V2000
   -9.1569    2.1681   -8.1909 C   0  0  0  0  0  0  0  0  0  0  0  0
   -9.1658    3.1739   -7.2268 C   0  0  0  0  0  0  0  0  0  0  0  0
   -9.0540    2.4972   -9.5426 C   0  0  0  0  0  0  0  0  0  0  0  0
   -9.0717    4.5123   -7.6101 C   0  0  0  0  0  0  0  0  0  0  0  0
   -8.9601    3.8397   -9.9286 C   0  0  0  0  0  0  0  0  0  0  0  0
   -8.9688    4.8408   -8.9650 C   0  0  0  0  0  0  0  0  0  0  0  0
   -8.6245    5.0409  -13.9693 C   0  0  0  0  0  0  0  0  0  0  0  0
   -8.4988    5.1495  -15.4045 C   0  0  0  0  0  0  0  0  0  0  0  0
   -8.5902    3.8956  -15.9976 C   0  0  0  0  0  0  0  0  0  0  0  0
   -8.7341    3.7324  -13.5422 C   0  0  0  0  0  0  0  0  0  0  0  0
   -8.8496    4.2160  -11.3507 C   0  0  0  0  0  0  0  0  0  0  0  0
   -8.8666    6.2278   -9.4337 C   0  0  0  0  0  0  0  0  0  0  0  0
   -8.6489    6.0924  -12.9559 C   0  0  0  0  0  0  0  0  0  0  0  0
   -8.3273    6.4508  -16.1496 C   0  0  0  0  0  0  0  0  0  0  0  0
   -8.5690    3.5274  -17.4569 C   0  0  0  0  0  0  0  0  0  0  0  0
   -7.5681    6.3365  -17.4704 C   0  0  0  0  0  0  0  0  0  0  0  0
   -9.2612    4.5692  -18.3326 C   0  0  0  0  0  0  0  0  0  0  0  0
   -8.4018    5.7977  -18.6331 C   0  0  0  0  0  0  0  0  0  0  0  0
   -8.8438    3.2868  -12.2639 N   0  0  0  0  0  0  0  0  0  0  0  0
   -8.7689    6.5561  -10.6813 N   0  0  0  0  0  0  0  0  0  0  0  0
   -8.7555    5.5872  -11.6453 N   0  0  0  0  0  0  0  0  0  0  0  0
   -8.5947    7.2865  -13.2371 O   0  0  0  0  0  0  0  0  0  0  0  0
   -8.7261    2.6386  -14.8429 S   0  0  0  0  0  0  0  0  0  0  0  0
   -8.8661    7.5829   -8.3537 Cl  0  0  0  0  0  0  0  0  0  0  0  0
   -9.2306    1.1272   -7.8900 H   0  0  0  0  0  0  0  0  0  0  0  0
   -9.2454    2.9158   -6.1747 H   0  0  0  0  0  0  0  0  0  0  0  0
   -9.0492    1.6937  -10.2737 H   0  0  0  0  0  0  0  0  0  0  0  0
   -9.0815    5.2717   -6.8345 H   0  0  0  0  0  0  0  0  0  0  0  0
   -9.3095    6.8957  -16.3655 H   0  0  0  0  0  0  0  0  0  0  0  0
   -7.8281    7.1788  -15.4849 H   0  0  0  0  0  0  0  0  0  0  0  0
   -7.5285    3.3848  -17.7796 H   0  0  0  0  0  0  0  0  0  0  0  0
   -9.0698    2.5612  -17.6091 H   0  0  0  0  0  0  0  0  0  0  0  0
   -7.1218    7.3023  -17.7451 H   0  0  0  0  0  0  0  0  0  0  0  0
   -6.7308    5.6410  -17.3184 H   0  0  0  0  0  0  0  0  0  0  0  0
   -9.5040    4.0950  -19.2919 H   0  0  0  0  0  0  0  0  0  0  0  0
  -10.2137    4.8801  -17.8862 H   0  0  0  0  0  0  0  0  0  0  0  0
   -9.0755    6.6042  -18.9636 H   0  0  0  0  0  0  0  0  0  0  0  0
   -7.7458    5.5884  -19.4930 H   0  0  0  0  0  0  0  0  0  0  0  0
  1  2  2  0  0  0  0
  1  3  1  0  0  0  0
  2  4  1  0  0  0  0
  3  5  2  0  0  0  0
  4  6  2  0  0  0  0
  5  6  1  0  0  0  0
  5 11  1  0  0  0  0
  6 12  1  0  0  0  0
  7  8  1  0  0  0  0
  7 10  2  0  0  0  0
  7 13  1  0  0  0  0
  8  9  2  0  0  0  0
  8 14  1  0  0  0  0
  9 15  1  0  0  0  0
  9 23  1  0  0  0  0
 10 19  1  0  0  0  0
 10 23  1  0  0  0  0
 11 19  2  0  0  0  0
 11 21  1  0  0  0  0
 12 20  2  0  0  0  0
 12 24  1  0  0  0  0
 13 21  1  0  0  0  0
 13 22  2  0  0  0  0
 14 16  1  0  0  0  0
 15 17  1  0  0  0  0
 16 18  1  0  0  0  0
 17 18  1  0  0  0  0
 20 21  1  0  0  0  0
  1 25  1  0  0  0  0
  2 26  1  0  0  0  0
  3 27  1  0  0  0  0
  4 28  1  0  0  0  0
 14 29  1  0  0  0  0
 14 30  1  0  0  0  0
 15 31  1  0  0  0  0
 15 32  1  0  0  0  0
 16 33  1  0  0  0  0
 16 34  1  0  0  0  0
 17 35  1  0  0  0  0
 17 36  1  0  0  0  0
 18 37  1  0  0  0  0
 18 38  1  0  0  0  0
M  END
> <id>
EN300-18220316

> <smiles>
ClC1=NN2C(=O)C=3C=4CCCCCC4SC3N=C2C=5C=CC=CC15

> <MDLNUMBER>
MFCD02330465

> <IUPAC Name>
10-chloro-22-thia-2,11,12-triazapentacyclo[12.8.0.0^{3,12}.0^{4,9}.0^{15,21}]docosa-1(14),2,4(9),5,7,10,15(21)-heptaen-13-one

> <CAS>
315711-72-9

> <URL>
https://www.enaminestore.com/catalog/EN300-18220316

> <ROCS_ShapeQuery>
_x0404_0B

> <ROCS_TanimotoCombo>
0.436 

> <ROCS_ShapeTanimoto>
0.373 

> <ROCS_ColorTanimoto>
0.063 

> <ROCS_RefTversky>
0.329 

> <ROCS_RefColorTversky>
0.069 

> <ROCS_RefTverskyCombo>
0.398 

> <ROCS_FitTversky>
1.563 

> <ROCS_FitColorTversky>
0.435 

> <ROCS_FitTverskyCombo>
1.999 

> <ROCS_ColorScore>
-4.965

> <ROCS_Overlap>
2197.561

> <ROCS_Rank>
12                  

$$$$
untitled-dbase-8815_0
  -OEChem-08212314543D

 38 44  0     0  0  0  0  0  0999 V2000
   -8.6397    6.7378  -12.0352 C   0  0  0  0  0  0  0  0  0  0  0  0
   -9.3133    1.9625  -12.3481 C   0  0  0  0  0  0  0  0  0  0  0  0
   -8.5265    6.9166  -15.0070 C   0  0  0  0  0  0  0  0  0  0  0  0
   -9.2016    2.1415  -15.3200 C   0  0  0  0  0  0  0  0  0  0  0  0
   -8.6947    6.6414  -10.6464 C   0  0  0  0  0  0  0  0  0  0  0  0
   -9.3646    1.8919  -10.9576 C   0  0  0  0  0  0  0  0  0  0  0  0
   -8.4760    6.9874  -16.3974 C   0  0  0  0  0  0  0  0  0  0  0  0
   -9.1476    2.2381  -16.7089 C   0  0  0  0  0  0  0  0  0  0  0  0
   -8.7756    5.6125  -12.8835 C   0  0  0  0  0  0  0  0  0  0  0  0
   -8.7212    5.6985  -14.3124 C   0  0  0  0  0  0  0  0  0  0  0  0
   -9.1189    3.1806  -13.0428 C   0  0  0  0  0  0  0  0  0  0  0  0
   -9.0649    3.2666  -14.4717 C   0  0  0  0  0  0  0  0  0  0  0  0
   -8.9742    4.3543  -12.2588 C   0  0  0  0  0  0  0  0  0  0  0  0
   -8.8664    4.5250  -15.0964 C   0  0  0  0  0  0  0  0  0  0  0  0
   -9.0289    4.2683  -10.8293 C   0  0  0  0  0  0  0  0  0  0  0  0
   -8.8124    4.6110  -16.5260 C   0  0  0  0  0  0  0  0  0  0  0  0
   -8.8897    5.4039  -10.0474 C   0  0  0  0  0  0  0  0  0  0  0  0
   -9.2221    3.0481  -10.2017 C   0  0  0  0  0  0  0  0  0  0  0  0
   -8.6191    5.8313  -17.1534 C   0  0  0  0  0  0  0  0  0  0  0  0
   -8.9526    3.4756  -17.3078 C   0  0  0  0  0  0  0  0  0  0  0  0
   -8.9456    5.3202   -8.5793 C   0  0  0  0  0  0  0  0  0  0  0  0
   -9.2793    2.9555   -8.7342 C   0  0  0  0  0  0  0  0  0  0  0  0
   -8.5626    5.9241  -18.6209 C   0  0  0  0  0  0  0  0  0  0  0  0
   -8.8976    3.5597  -18.7760 C   0  0  0  0  0  0  0  0  0  0  0  0
   -8.8230    6.3242   -7.8871 O   0  0  0  0  0  0  0  0  0  0  0  0
   -9.4507    1.8767   -8.1783 O   0  0  0  0  0  0  0  0  0  0  0  0
   -8.3918    7.0031  -19.1766 O   0  0  0  0  0  0  0  0  0  0  0  0
   -9.0221    2.5560  -19.4684 O   0  0  0  0  0  0  0  0  0  0  0  0
   -9.1368    4.0998   -8.0227 O   0  0  0  0  0  0  0  0  0  0  0  0
   -8.7052    4.7800  -19.3324 O   0  0  0  0  0  0  0  0  0  0  0  0
   -8.4855    7.7360  -12.4362 H   0  0  0  0  0  0  0  0  0  0  0  0
   -9.4335    1.0201  -12.8759 H   0  0  0  0  0  0  0  0  0  0  0  0
   -8.4061    7.8589  -14.4787 H   0  0  0  0  0  0  0  0  0  0  0  0
   -9.3561    1.1433  -14.9194 H   0  0  0  0  0  0  0  0  0  0  0  0
   -8.5828    7.5479  -10.0574 H   0  0  0  0  0  0  0  0  0  0  0  0
   -9.5180    0.9222  -10.4915 H   0  0  0  0  0  0  0  0  0  0  0  0
   -8.3232    7.9571  -16.8635 H   0  0  0  0  0  0  0  0  0  0  0  0
   -9.2607    1.3319  -17.2979 H   0  0  0  0  0  0  0  0  0  0  0  0
  1  5  1  0  0  0  0
  1  9  2  0  0  0  0
  2  6  1  0  0  0  0
  2 11  2  0  0  0  0
  3  7  2  0  0  0  0
  3 10  1  0  0  0  0
  4  8  1  0  0  0  0
  4 12  2  0  0  0  0
  5 17  2  0  0  0  0
  6 18  2  0  0  0  0
  7 19  1  0  0  0  0
  8 20  2  0  0  0  0
  9 10  1  0  0  0  0
  9 13  1  0  0  0  0
 10 14  2  0  0  0  0
 11 12  1  0  0  0  0
 11 13  1  0  0  0  0
 12 14  1  0  0  0  0
 13 15  2  0  0  0  0
 14 16  1  0  0  0  0
 15 17  1  0  0  0  0
 15 18  1  0  0  0  0
 16 19  2  0  0  0  0
 16 20  1  0  0  0  0
 17 21  1  0  0  0  0
 18 22  1  0  0  0  0
 19 23  1  0  0  0  0
 20 24  1  0  0  0  0
 21 25  2  0  0  0  0
 21 29  1  0  0  0  0
 22 26  2  0  0  0  0
 22 29  1  0  0  0  0
 23 27  2  0  0  0  0
 23 30  1  0  0  0  0
 24 28  2  0  0  0  0
 24 30  1  0  0  0  0
  1 31  1  0  0  0  0
  2 32  1  0  0  0  0
  3 33  1  0  0  0  0
  4 34  1  0  0  0  0
  5 35  1  0  0  0  0
  6 36  1  0  0  0  0
  7 37  1  0  0  0  0
  8 38  1  0  0  0  0
M  END
> <id>
EN300-304990

> <smiles>
O=C1OC(=O)C=2C=CC=3C=4C=CC=5C(=O)OC(=O)C6=CC=C(C7=CC=C1C2C73)C4C65

> <MDLNUMBER>
MFCD00006916

> <IUPAC Name>
7,18-dioxaheptacyclo[14.6.2.2^{2,5}.0^{3,12}.0^{4,9}.0^{13,23}.0^{20,24}]hexacosa-1(23),2,4,9,11,13,15,20(24),21,25-decaene-6,8,17,19-tetrone

> <CAS>
128-69-8

> <Purity>
90

> <URL>
https://www.enaminestore.com/catalog/EN300-304990

> <MP>
300-301

> <ROCS_ShapeQuery>
_x0404_0B

> <ROCS_TanimotoCombo>
0.436 

> <ROCS_ShapeTanimoto>
0.369 

> <ROCS_ColorTanimoto>
0.067 

> <ROCS_RefTversky>
0.341 

> <ROCS_RefColorTversky>
0.076 

> <ROCS_RefTverskyCombo>
0.416 

> <ROCS_FitTversky>
1.288 

> <ROCS_FitColorTversky>
0.383 

> <ROCS_FitTverskyCombo>
1.671 

> <ROCS_ColorScore>
-5.469

> <ROCS_Overlap>
2282.715

> <ROCS_Rank>
13                  

$$$$
untitled-dbase-49983_81
  -OEChem-08212314543D

 63 66  0     1  0  0  0  0  0999 V2000
   -9.4585    5.6268  -18.2977 C   0  0  0  0  0  0  0  0  0  0  0  0
   -9.4792    6.0564  -16.9664 C   0  0  0  0  0  0  0  0  0  0  0  0
   -7.3291    4.5336  -17.9503 C   0  0  0  0  0  0  0  0  0  0  0  0
   -7.3689    4.9411  -16.6187 C   0  0  0  0  0  0  0  0  0  0  0  0
   -8.3867    4.8761  -18.7889 C   0  0  0  0  0  0  0  0  0  0  0  0
   -8.4257    5.7268  -16.1166 C   0  0  0  0  0  0  0  0  0  0  0  0
   -9.4737    6.5563  -11.6644 C   0  0  0  0  0  0  0  0  0  0  0  0
   -8.9558    7.0970  -12.7780 C   0  0  0  0  0  0  0  0  0  0  0  0
   -6.2780    4.5907  -15.6933 C   0  0  0  0  0  0  0  0  0  0  0  0
   -8.7197    3.6928  -10.6707 C   0  0  0  0  0  0  0  0  0  0  0  0
   -9.0088    6.8862  -10.2737 C   0  0  0  0  0  0  0  0  0  0  0  0
   -9.4037    6.7651  -14.1736 C   0  0  0  0  0  0  0  0  0  0  0  0
   -8.0131    5.8921   -9.6390 C   0  0  0  0  0  0  0  0  0  0  0  0
   -8.3156    1.7923  -14.7571 C   0  0  0  0  0  0  0  0  0  0  0  0
   -8.1665    1.8797  -13.2330 C   0  0  0  0  0  0  0  0  0  0  0  0
   -9.8235    4.4816   -8.5134 C   0  0  0  0  0  0  0  0  0  0  0  0
   -7.4379    3.7229   -8.4637 C   0  0  0  0  0  0  0  0  0  0  0  0
   -7.0244    2.1684  -15.4807 C   0  0  0  0  0  0  0  0  0  0  0  0
  -10.2161    3.1211   -7.9272 C   0  0  0  0  0  0  0  0  0  0  0  0
   -7.9236    2.3755   -7.9294 C   0  0  0  0  0  0  0  0  0  0  0  0
   -6.2450    3.4631  -13.5181 C   0  0  0  0  0  0  0  0  0  0  0  0
   -7.6166    3.2607  -12.8542 C   0  0  2  0  0  0  0  0  0  0  0  0
   -8.5068    4.4398   -9.3316 C   0  0  0  0  0  0  0  0  0  0  0  0
   -8.3801    4.4373  -20.2155 C   0  0  0  0  0  0  0  0  0  0  0  0
   -7.5642    3.5155  -11.4250 N   0  0  0  0  0  0  0  0  0  0  0  0
   -9.1384    2.5361   -7.1349 N   0  0  0  0  0  0  0  0  0  0  0  0
   -6.4430    3.4125  -14.9656 N   0  0  0  0  0  0  0  0  0  0  0  0
   -5.4300    5.4541  -15.4775 O   0  0  0  0  0  0  0  0  0  0  0  0
   -9.8420    3.3629  -11.0568 O   0  0  0  0  0  0  0  0  0  0  0  0
   -8.3001    6.1308  -14.8151 O   0  0  0  0  0  0  0  0  0  0  0  0
   -9.4810    4.8409  -20.9165 F   0  0  0  0  0  0  0  0  0  0  0  0
   -7.3132    4.9070  -20.9278 F   0  0  0  0  0  0  0  0  0  0  0  0
   -8.3395    3.0794  -20.3485 F   0  0  0  0  0  0  0  0  0  0  0  0
  -10.2888    5.8853  -18.9519 H   0  0  0  0  0  0  0  0  0  0  0  0
  -10.3232    6.6501  -16.6455 H   0  0  0  0  0  0  0  0  0  0  0  0
   -6.4962    3.9601  -18.3346 H   0  0  0  0  0  0  0  0  0  0  0  0
  -10.2656    5.8211  -11.7363 H   0  0  0  0  0  0  0  0  0  0  0  0
   -8.1743    7.8197  -12.6980 H   0  0  0  0  0  0  0  0  0  0  0  0
   -8.4995    7.8647  -10.3351 H   0  0  0  0  0  0  0  0  0  0  0  0
   -9.8649    7.0528   -9.5977 H   0  0  0  0  0  0  0  0  0  0  0  0
  -10.1578    6.0129  -14.0885 H   0  0  0  0  0  0  0  0  0  0  0  0
   -9.7804    7.6027  -14.6959 H   0  0  0  0  0  0  0  0  0  0  0  0
   -7.1070    5.8547  -10.2649 H   0  0  0  0  0  0  0  0  0  0  0  0
   -7.6795    6.3432   -8.6899 H   0  0  0  0  0  0  0  0  0  0  0  0
   -8.6173    0.7781  -15.0384 H   0  0  0  0  0  0  0  0  0  0  0  0
   -9.1182    2.4670  -15.0786 H   0  0  0  0  0  0  0  0  0  0  0  0
   -9.1386    1.7096  -12.7643 H   0  0  0  0  0  0  0  0  0  0  0  0
   -7.4863    1.0956  -12.8881 H   0  0  0  0  0  0  0  0  0  0  0  0
  -10.6556    4.8439   -9.1273 H   0  0  0  0  0  0  0  0  0  0  0  0
   -9.7136    5.1937   -7.6851 H   0  0  0  0  0  0  0  0  0  0  0  0
   -7.1759    4.3609   -7.6087 H   0  0  0  0  0  0  0  0  0  0  0  0
   -6.5059    3.5666   -9.0164 H   0  0  0  0  0  0  0  0  0  0  0  0
   -6.2701    1.3804  -15.3416 H   0  0  0  0  0  0  0  0  0  0  0  0
   -7.2112    2.2441  -16.5602 H   0  0  0  0  0  0  0  0  0  0  0  0
  -11.0951    3.2480   -7.2852 H   0  0  0  0  0  0  0  0  0  0  0  0
  -10.5150    2.4231   -8.7167 H   0  0  0  0  0  0  0  0  0  0  0  0
   -8.0945    1.6667   -8.7481 H   0  0  0  0  0  0  0  0  0  0  0  0
   -7.1452    1.9365   -7.2954 H   0  0  0  0  0  0  0  0  0  0  0  0
   -5.7910    4.3983  -13.2026 H   0  0  0  0  0  0  0  0  0  0  0  0
   -5.5574    2.6570  -13.2476 H   0  0  0  0  0  0  0  0  0  0  0  0
   -8.3079    4.0167  -13.2836 H   0  0  0  0  0  0  0  0  0  0  0  0
   -6.6523    3.6088  -10.9926 H   0  0  0  0  0  0  0  0  0  0  0  0
   -8.9388    3.1481   -6.3431 H   0  0  0  0  0  0  0  0  0  0  0  0
  1  2  1  0  0  0  0
  1  5  2  0  0  0  0
  2  6  2  0  0  0  0
  3  4  2  0  0  0  0
  3  5  1  0  0  0  0
  4  6  1  0  0  0  0
  4  9  1  0  0  0  0
  5 24  1  0  0  0  0
  6 30  1  0  0  0  0
  7  8  2  3  0  0  0
  7 11  1  0  0  0  0
  8 12  1  0  0  0  0
  9 27  1  0  0  0  0
  9 28  2  0  0  0  0
 10 23  1  0  0  0  0
 10 25  1  0  0  0  0
 10 29  2  0  0  0  0
 11 13  1  0  0  0  0
 12 30  1  0  0  0  0
 13 23  1  0  0  0  0
 14 15  1  0  0  0  0
 14 18  1  0  0  0  0
 15 22  1  6  0  0  0
 16 19  1  0  0  0  0
 16 23  1  0  0  0  0
 17 20  1  0  0  0  0
 17 23  1  0  0  0  0
 18 27  1  0  0  0  0
 19 26  1  0  0  0  0
 20 26  1  0  0  0  0
 21 22  1  0  0  0  0
 21 27  1  0  0  0  0
 22 25  1  0  0  0  0
 24 31  1  0  0  0  0
 24 32  1  0  0  0  0
 24 33  1  0  0  0  0
  1 34  1  0  0  0  0
  2 35  1  0  0  0  0
  3 36  1  0  0  0  0
  7 37  1  0  0  0  0
  8 38  1  0  0  0  0
 11 39  1  0  0  0  0
 11 40  1  0  0  0  0
 12 41  1  0  0  0  0
 12 42  1  0  0  0  0
 13 43  1  0  0  0  0
 13 44  1  0  0  0  0
 14 45  1  0  0  0  0
 14 46  1  0  0  0  0
 15 47  1  0  0  0  0
 15 48  1  0  0  0  0
 16 49  1  0  0  0  0
 16 50  1  0  0  0  0
 17 51  1  0  0  0  0
 17 52  1  0  0  0  0
 18 53  1  0  0  0  0
 18 54  1  0  0  0  0
 19 55  1  0  0  0  0
 19 56  1  0  0  0  0
 20 57  1  0  0  0  0
 20 58  1  0  0  0  0
 21 59  1  0  0  0  0
 21 60  1  0  0  0  0
 22 61  1  0  0  0  0
 25 62  1  0  0  0  0
 26 63  1  0  0  0  0
M  END
> <id>
EN300-26694471

> <smiles>
OC(=O)C(F)(F)F.FC(F)(F)C=1C=CC=2OCC=CCCC3(CCNCC3)C(=O)N[C@@H]4CCCN(C4)C(=O)C2C1

> <IUPAC Name>
(18'R)-5'-(trifluoromethyl)-9'-oxa-1',17'-diazaspiro[piperidine-4,15'-tricyclo[16.3.1.0,3,8]docosane]-3'(8'),4',6',11'-tetraene-2',16'-dione; trifluoroacetic acid

> <CAS>
2761356-42-5

> <Purity>
95

> <URL>
https://www.enaminestore.com/catalog/EN300-26694471

> <Saltdate>
OC(=O)C(F)(F)F

> <ROCS_ShapeQuery>
_x0404_0B

> <ROCS_TanimotoCombo>
0.436 

> <ROCS_ShapeTanimoto>
0.357 

> <ROCS_ColorTanimoto>
0.079 

> <ROCS_RefTversky>
0.332 

> <ROCS_RefColorTversky>
0.086 

> <ROCS_RefTverskyCombo>
0.418 

> <ROCS_FitTversky>
1.265 

> <ROCS_FitColorTversky>
0.503 

> <ROCS_FitTverskyCombo>
1.768 

> <ROCS_ColorScore>
-6.199

> <ROCS_Overlap>
2223.305

> <ROCS_Rank>
14                  

$$$$
untitled-dbase-36241_153
  -OEChem-08212314543D

 50 52  0     0  0  0  0  0  0999 V2000
   -9.2059    2.3812   -7.7156 C   0  0  0  0  0  0  0  0  0  0  0  0
   -9.7975    3.6159   -7.4731 C   0  0  0  0  0  0  0  0  0  0  0  0
   -8.7980    4.5332  -18.8546 C   0  0  0  0  0  0  0  0  0  0  0  0
   -9.7751    5.4756  -18.5399 C   0  0  0  0  0  0  0  0  0  0  0  0
   -8.4311    2.1900   -8.8596 C   0  0  0  0  0  0  0  0  0  0  0  0
   -9.6118    4.6687   -8.3694 C   0  0  0  0  0  0  0  0  0  0  0  0
   -7.7467    4.2995  -17.9713 C   0  0  0  0  0  0  0  0  0  0  0  0
   -9.7026    6.1961  -17.3447 C   0  0  0  0  0  0  0  0  0  0  0  0
   -8.2437    3.2367   -9.7710 C   0  0  0  0  0  0  0  0  0  0  0  0
   -8.8311    4.4917   -9.5185 C   0  0  0  0  0  0  0  0  0  0  0  0
   -7.6866    5.0017  -16.7644 C   0  0  0  0  0  0  0  0  0  0  0  0
   -8.6519    5.9710  -16.4512 C   0  0  0  0  0  0  0  0  0  0  0  0
   -6.9838    1.8526  -11.2629 C   0  0  0  0  0  0  0  0  0  0  0  0
   -9.1659    6.7554  -10.2183 C   0  0  0  0  0  0  0  0  0  0  0  0
   -6.5459    3.5028  -15.3641 C   0  0  0  0  0  0  0  0  0  0  0  0
   -9.4043    7.6520  -14.9225 C   0  0  0  0  0  0  0  0  0  0  0  0
   -6.3370    1.9354  -12.6412 C   0  0  0  0  0  0  0  0  0  0  0  0
   -8.6908    7.7092  -11.3062 C   0  0  0  0  0  0  0  0  0  0  0  0
   -7.5191    3.3065  -14.2046 C   0  0  0  0  0  0  0  0  0  0  0  0
   -8.9660    8.2441  -13.5900 C   0  0  0  0  0  0  0  0  0  0  0  0
   -7.5094    3.1389  -10.9279 O   0  0  0  0  0  0  0  0  0  0  0  0
   -8.5795    5.4718  -10.4491 O   0  0  0  0  0  0  0  0  0  0  0  0
   -6.6404    4.8290  -15.8921 O   0  0  0  0  0  0  0  0  0  0  0  0
   -8.4784    6.6158  -15.2553 O   0  0  0  0  0  0  0  0  0  0  0  0
   -7.3601    2.0115  -13.6355 O   0  0  0  0  0  0  0  0  0  0  0  0
   -9.2320    7.2905  -12.5592 O   0  0  0  0  0  0  0  0  0  0  0  0
   -9.3469    1.5644   -7.0137 H   0  0  0  0  0  0  0  0  0  0  0  0
  -10.4049    3.7616   -6.5845 H   0  0  0  0  0  0  0  0  0  0  0  0
   -8.8578    3.9824  -19.7877 H   0  0  0  0  0  0  0  0  0  0  0  0
  -10.5984    5.6513  -19.2276 H   0  0  0  0  0  0  0  0  0  0  0  0
   -7.9873    1.2102   -9.0107 H   0  0  0  0  0  0  0  0  0  0  0  0
  -10.0921    5.6160   -8.1416 H   0  0  0  0  0  0  0  0  0  0  0  0
   -6.9988    3.5696  -18.2537 H   0  0  0  0  0  0  0  0  0  0  0  0
  -10.4839    6.9226  -17.1464 H   0  0  0  0  0  0  0  0  0  0  0  0
   -7.7975    1.1154  -11.2963 H   0  0  0  0  0  0  0  0  0  0  0  0
   -6.2283    1.5566  -10.5216 H   0  0  0  0  0  0  0  0  0  0  0  0
   -8.8517    7.1340   -9.2354 H   0  0  0  0  0  0  0  0  0  0  0  0
  -10.2607    6.6775  -10.2671 H   0  0  0  0  0  0  0  0  0  0  0  0
   -5.5122    3.3213  -15.0078 H   0  0  0  0  0  0  0  0  0  0  0  0
   -6.7884    2.7693  -16.1579 H   0  0  0  0  0  0  0  0  0  0  0  0
  -10.4091    7.2329  -14.8123 H   0  0  0  0  0  0  0  0  0  0  0  0
   -9.3846    8.4289  -15.6934 H   0  0  0  0  0  0  0  0  0  0  0  0
   -5.7072    2.8328  -12.7019 H   0  0  0  0  0  0  0  0  0  0  0  0
   -5.7211    1.0448  -12.8266 H   0  0  0  0  0  0  0  0  0  0  0  0
   -9.0296    8.7315  -11.0915 H   0  0  0  0  0  0  0  0  0  0  0  0
   -7.5947    7.6922  -11.3622 H   0  0  0  0  0  0  0  0  0  0  0  0
   -7.3376    4.0679  -13.4257 H   0  0  0  0  0  0  0  0  0  0  0  0
   -8.5546    3.4177  -14.5696 H   0  0  0  0  0  0  0  0  0  0  0  0
   -7.8918    8.4594  -13.6139 H   0  0  0  0  0  0  0  0  0  0  0  0
   -9.5227    9.1649  -13.3798 H   0  0  0  0  0  0  0  0  0  0  0  0
  1  2  2  0  0  0  0
  1  5  1  0  0  0  0
  2  6  1  0  0  0  0
  3  4  2  0  0  0  0
  3  7  1  0  0  0  0
  4  8  1  0  0  0  0
  5  9  2  0  0  0  0
  6 10  2  0  0  0  0
  7 11  2  0  0  0  0
  8 12  2  0  0  0  0
  9 10  1  0  0  0  0
  9 21  1  0  0  0  0
 10 22  1  0  0  0  0
 11 12  1  0  0  0  0
 11 23  1  0  0  0  0
 12 24  1  0  0  0  0
 13 17  1  0  0  0  0
 13 21  1  0  0  0  0
 14 18  1  0  0  0  0
 14 22  1  0  0  0  0
 15 19  1  0  0  0  0
 15 23  1  0  0  0  0
 16 20  1  0  0  0  0
 16 24  1  0  0  0  0
 17 25  1  0  0  0  0
 18 26  1  0  0  0  0
 19 25  1  0  0  0  0
 20 26  1  0  0  0  0
  1 27  1  0  0  0  0
  2 28  1  0  0  0  0
  3 29  1  0  0  0  0
  4 30  1  0  0  0  0
  5 31  1  0  0  0  0
  6 32  1  0  0  0  0
  7 33  1  0  0  0  0
  8 34  1  0  0  0  0
 13 35  1  0  0  0  0
 13 36  1  0  0  0  0
 14 37  1  0  0  0  0
 14 38  1  0  0  0  0
 15 39  1  0  0  0  0
 15 40  1  0  0  0  0
 16 41  1  0  0  0  0
 16 42  1  0  0  0  0
 17 43  1  0  0  0  0
 17 44  1  0  0  0  0
 18 45  1  0  0  0  0
 18 46  1  0  0  0  0
 19 47  1  0  0  0  0
 19 48  1  0  0  0  0
 20 49  1  0  0  0  0
 20 50  1  0  0  0  0
M  END
> <id>
EN300-37135

> <smiles>
C1COC=2C=CC=CC2OCCOCCOC=3C=CC=CC3OCCO1

> <MDLNUMBER>
MFCD00005098

> <IUPAC Name>
2,5,8,15,18,21-hexaoxatricyclo[20.4.0.0,9,14]hexacosa-1(22),9(14),10,12,23,25-hexaene

> <CAS>
14187-32-7

> <Purity>
95

> <URL>
https://www.enaminestore.com/catalog/EN300-37135

> <MP>
163-164

> <ROCS_ShapeQuery>
_x0404_0B

> <ROCS_TanimotoCombo>
0.434 

> <ROCS_ShapeTanimoto>
0.338 

> <ROCS_ColorTanimoto>
0.096 

> <ROCS_RefTversky>
0.307 

> <ROCS_RefColorTversky>
0.101 

> <ROCS_RefTverskyCombo>
0.408 

> <ROCS_FitTversky>
1.420 

> <ROCS_FitColorTversky>
0.641 

> <ROCS_FitTverskyCombo>
2.061 

> <ROCS_ColorScore>
-7.295

> <ROCS_Overlap>
2053.983

> <ROCS_Rank>
15                  

$$$$
untitled-dbase-10097_39
  -OEChem-08212314543D

 46 48  0     0  0  0  0  0  0999 V2000
   -9.2078    4.3048  -17.3043 C   0  0  0  0  0  0  0  0  0  0  0  0
   -8.1380    4.5671  -18.1601 C   0  0  0  0  0  0  0  0  0  0  0  0
   -7.2186    6.1149  -16.5473 C   0  0  0  0  0  0  0  0  0  0  0  0
   -9.2767    4.9515  -16.0673 C   0  0  0  0  0  0  0  0  0  0  0  0
   -8.2774    5.8437  -15.6788 C   0  0  0  0  0  0  0  0  0  0  0  0
   -7.1474    5.4741  -17.7846 C   0  0  0  0  0  0  0  0  0  0  0  0
  -10.4237    4.7279  -15.1703 C   0  0  0  0  0  0  0  0  0  0  0  0
   -8.5719    5.1895   -9.2324 C   0  0  0  0  0  0  0  0  0  0  0  0
  -10.4732    5.5901  -13.9366 C   0  0  0  0  0  0  0  0  0  0  0  0
   -8.3102    4.6870  -12.8479 C   0  0  0  0  0  0  0  0  0  0  0  0
   -9.1317    6.9921  -12.3225 C   0  0  0  0  0  0  0  0  0  0  0  0
   -8.9019    4.1898  -11.5305 C   0  0  0  0  0  0  0  0  0  0  0  0
   -9.7237    6.4719  -11.0162 C   0  0  0  0  0  0  0  0  0  0  0  0
   -9.0584    5.9130  -13.4292 C   0  0  0  0  0  0  0  0  0  0  0  0
  -10.1419    3.5804   -7.8779 C   0  0  0  0  0  0  0  0  0  0  0  0
   -8.4636    1.7409   -8.2076 C   0  0  0  0  0  0  0  0  0  0  0  0
   -7.9930    3.5840   -6.5677 C   0  0  0  0  0  0  0  0  0  0  0  0
   -8.6563    3.2234   -7.8961 C   0  0  0  0  0  0  0  0  0  0  0  0
   -9.0147    5.2792  -10.5561 N   0  0  0  0  0  0  0  0  0  0  0  0
  -11.3096    3.9298  -15.4518 O   0  0  0  0  0  0  0  0  0  0  0  0
   -8.6624    6.0979   -8.4084 O   0  0  0  0  0  0  0  0  0  0  0  0
   -8.2676    6.5045  -14.4814 O   0  0  0  0  0  0  0  0  0  0  0  0
   -8.0210    3.9699   -8.9405 O   0  0  0  0  0  0  0  0  0  0  0  0
   -6.1254    5.7294  -18.6123 F   0  0  0  0  0  0  0  0  0  0  0  0
   -9.9771    3.6063  -17.6208 H   0  0  0  0  0  0  0  0  0  0  0  0
   -8.0797    4.0689  -19.1235 H   0  0  0  0  0  0  0  0  0  0  0  0
   -6.4389    6.8165  -16.2626 H   0  0  0  0  0  0  0  0  0  0  0  0
  -11.0080    6.5061  -14.2145 H   0  0  0  0  0  0  0  0  0  0  0  0
  -11.0495    5.0708  -13.1634 H   0  0  0  0  0  0  0  0  0  0  0  0
   -7.2488    4.9211  -12.6703 H   0  0  0  0  0  0  0  0  0  0  0  0
   -8.3224    3.8622  -13.5805 H   0  0  0  0  0  0  0  0  0  0  0  0
   -9.7281    7.8500  -12.6716 H   0  0  0  0  0  0  0  0  0  0  0  0
   -8.1211    7.3737  -12.1090 H   0  0  0  0  0  0  0  0  0  0  0  0
   -9.8825    3.7376  -11.7134 H   0  0  0  0  0  0  0  0  0  0  0  0
   -8.2675    3.4156  -11.0822 H   0  0  0  0  0  0  0  0  0  0  0  0
   -9.6404    7.2254  -10.2222 H   0  0  0  0  0  0  0  0  0  0  0  0
  -10.7916    6.2731  -11.1551 H   0  0  0  0  0  0  0  0  0  0  0  0
  -10.2844    4.6438   -7.6547 H   0  0  0  0  0  0  0  0  0  0  0  0
  -10.6217    3.3590   -8.8368 H   0  0  0  0  0  0  0  0  0  0  0  0
  -10.6676    3.0264   -7.0918 H   0  0  0  0  0  0  0  0  0  0  0  0
   -7.3991    1.4803   -8.2216 H   0  0  0  0  0  0  0  0  0  0  0  0
   -8.8543    1.4970   -9.2021 H   0  0  0  0  0  0  0  0  0  0  0  0
   -8.9666    1.1048   -7.4720 H   0  0  0  0  0  0  0  0  0  0  0  0
   -6.9273    3.3281   -6.5805 H   0  0  0  0  0  0  0  0  0  0  0  0
   -8.0893    4.6518   -6.3455 H   0  0  0  0  0  0  0  0  0  0  0  0
   -8.4377    3.0153   -5.7430 H   0  0  0  0  0  0  0  0  0  0  0  0
  1  2  1  0  0  0  0
  1  4  2  0  0  0  0
  2  6  2  0  0  0  0
  3  5  2  0  0  0  0
  3  6  1  0  0  0  0
  4  5  1  0  0  0  0
  4  7  1  0  0  0  0
  5 22  1  0  0  0  0
  6 24  1  0  0  0  0
  7  9  1  0  0  0  0
  7 20  2  0  0  0  0
  8 19  1  0  0  0  0
  8 21  2  0  0  0  0
  8 23  1  0  0  0  0
  9 14  1  0  0  0  0
 10 12  1  0  0  0  0
 10 14  1  0  0  0  0
 11 13  1  0  0  0  0
 11 14  1  0  0  0  0
 12 19  1  0  0  0  0
 13 19  1  0  0  0  0
 14 22  1  0  0  0  0
 15 18  1  0  0  0  0
 16 18  1  0  0  0  0
 17 18  1  0  0  0  0
 18 23  1  0  0  0  0
  1 25  1  0  0  0  0
  2 26  1  0  0  0  0
  3 27  1  0  0  0  0
  9 28  1  0  0  0  0
  9 29  1  0  0  0  0
 10 30  1  0  0  0  0
 10 31  1  0  0  0  0
 11 32  1  0  0  0  0
 11 33  1  0  0  0  0
 12 34  1  0  0  0  0
 12 35  1  0  0  0  0
 13 36  1  0  0  0  0
 13 37  1  0  0  0  0
 15 38  1  0  0  0  0
 15 39  1  0  0  0  0
 15 40  1  0  0  0  0
 16 41  1  0  0  0  0
 16 42  1  0  0  0  0
 16 43  1  0  0  0  0
 17 44  1  0  0  0  0
 17 45  1  0  0  0  0
 17 46  1  0  0  0  0
M  END
> <id>
EN300-338215

> <smiles>
CC(C)(C)OC(=O)N1CCC2(CC1)CC(=O)C=3C=CC(F)=CC3O2

> <MDLNUMBER>
MFCD12912048

> <IUPAC Name>
tert-butyl 7-fluoro-4-oxo-3,4-dihydrospiro[1-benzopyran-2,4'-piperidine]-1'-carboxylate

> <CAS>
936648-33-8

> <URL>
https://www.enaminestore.com/catalog/EN300-338215

> <ROCS_ShapeQuery>
_x0404_0B

> <ROCS_TanimotoCombo>
0.432 

> <ROCS_ShapeTanimoto>
0.370 

> <ROCS_ColorTanimoto>
0.062 

> <ROCS_RefTversky>
0.326 

> <ROCS_RefColorTversky>
0.067 

> <ROCS_RefTverskyCombo>
0.393 

> <ROCS_FitTversky>
1.572 

> <ROCS_FitColorTversky>
0.461 

> <ROCS_FitTverskyCombo>
2.033 

> <ROCS_ColorScore>
-4.812

> <ROCS_Overlap>
2178.379

> <ROCS_Rank>
16                  

$$$$
untitled-dbase-36986_39
  -OEChem-08212314543D

 49 51  0     0  0  0  0  0  0999 V2000
   -9.2158    4.3098  -17.3046 C   0  0  0  0  0  0  0  0  0  0  0  0
   -8.1445    4.5661  -18.1605 C   0  0  0  0  0  0  0  0  0  0  0  0
   -7.2162    6.1083  -16.5473 C   0  0  0  0  0  0  0  0  0  0  0  0
   -9.2810    4.9565  -16.0675 C   0  0  0  0  0  0  0  0  0  0  0  0
   -7.1487    5.4673  -17.7847 C   0  0  0  0  0  0  0  0  0  0  0  0
   -8.2766    5.8429  -15.6788 C   0  0  0  0  0  0  0  0  0  0  0  0
  -10.4292    4.7393  -15.1705 C   0  0  0  0  0  0  0  0  0  0  0  0
   -8.5749    5.1890   -9.2326 C   0  0  0  0  0  0  0  0  0  0  0  0
  -10.4739    5.6015  -13.9367 C   0  0  0  0  0  0  0  0  0  0  0  0
   -8.3160    4.6858  -12.8482 C   0  0  0  0  0  0  0  0  0  0  0  0
   -9.1244    6.9954  -12.3223 C   0  0  0  0  0  0  0  0  0  0  0  0
   -8.9106    4.1917  -11.5309 C   0  0  0  0  0  0  0  0  0  0  0  0
   -9.7193    6.4784  -11.0161 C   0  0  0  0  0  0  0  0  0  0  0  0
   -9.0572    5.9162  -13.4292 C   0  0  0  0  0  0  0  0  0  0  0  0
   -6.0090    5.7452  -18.7061 C   0  0  0  0  0  0  0  0  0  0  0  0
  -10.1540    3.5885   -7.8784 C   0  0  0  0  0  0  0  0  0  0  0  0
   -8.4863    1.7395   -8.2085 C   0  0  0  0  0  0  0  0  0  0  0  0
   -8.0051    3.5796   -6.5682 C   0  0  0  0  0  0  0  0  0  0  0  0
   -8.6705    3.2231   -7.8967 C   0  0  0  0  0  0  0  0  0  0  0  0
   -9.0171    5.2815  -10.5563 N   0  0  0  0  0  0  0  0  0  0  0  0
  -11.3197    3.9464  -15.4523 O   0  0  0  0  0  0  0  0  0  0  0  0
   -8.6601    6.0976   -8.4084 O   0  0  0  0  0  0  0  0  0  0  0  0
   -8.2631    6.5034  -14.4812 O   0  0  0  0  0  0  0  0  0  0  0  0
   -8.0309    3.9661   -8.9409 O   0  0  0  0  0  0  0  0  0  0  0  0
   -9.9887    3.6151  -17.6210 H   0  0  0  0  0  0  0  0  0  0  0  0
   -8.0979    4.0636  -19.1230 H   0  0  0  0  0  0  0  0  0  0  0  0
   -6.4361    6.8070  -16.2538 H   0  0  0  0  0  0  0  0  0  0  0  0
  -11.0038    6.5203  -14.2148 H   0  0  0  0  0  0  0  0  0  0  0  0
  -11.0531    5.0854  -13.1636 H   0  0  0  0  0  0  0  0  0  0  0  0
   -7.2532    4.9133  -12.6710 H   0  0  0  0  0  0  0  0  0  0  0  0
   -8.3336    3.8611  -13.5808 H   0  0  0  0  0  0  0  0  0  0  0  0
   -9.7165    7.8565  -12.6712 H   0  0  0  0  0  0  0  0  0  0  0  0
   -8.1115    7.3714  -12.1094 H   0  0  0  0  0  0  0  0  0  0  0  0
   -9.8935    3.7448  -11.7138 H   0  0  0  0  0  0  0  0  0  0  0  0
   -8.2801    3.4142  -11.0827 H   0  0  0  0  0  0  0  0  0  0  0  0
   -9.6321    7.2312  -10.2220 H   0  0  0  0  0  0  0  0  0  0  0  0
  -10.7884    6.2859  -11.1550 H   0  0  0  0  0  0  0  0  0  0  0  0
   -6.2508    6.5840  -19.3701 H   0  0  0  0  0  0  0  0  0  0  0  0
   -5.0974    5.9945  -18.1480 H   0  0  0  0  0  0  0  0  0  0  0  0
   -5.7737    4.8687  -19.3239 H   0  0  0  0  0  0  0  0  0  0  0  0
  -10.2905    4.6527   -7.6550 H   0  0  0  0  0  0  0  0  0  0  0  0
  -10.6351    3.3701   -8.8374 H   0  0  0  0  0  0  0  0  0  0  0  0
  -10.6829    3.0374   -7.0925 H   0  0  0  0  0  0  0  0  0  0  0  0
   -7.4233    1.4728   -8.2227 H   0  0  0  0  0  0  0  0  0  0  0  0
   -8.8783    1.4981   -9.2032 H   0  0  0  0  0  0  0  0  0  0  0  0
   -8.9929    1.1062   -7.4731 H   0  0  0  0  0  0  0  0  0  0  0  0
   -6.9410    3.3176   -6.5811 H   0  0  0  0  0  0  0  0  0  0  0  0
   -8.0953    4.6478   -6.3458 H   0  0  0  0  0  0  0  0  0  0  0  0
   -8.4531    3.0132   -5.7437 H   0  0  0  0  0  0  0  0  0  0  0  0
  1  2  1  0  0  0  0
  1  4  2  0  0  0  0
  2  5  2  0  0  0  0
  3  5  1  0  0  0  0
  3  6  2  0  0  0  0
  4  6  1  0  0  0  0
  4  7  1  0  0  0  0
  5 15  1  0  0  0  0
  6 23  1  0  0  0  0
  7  9  1  0  0  0  0
  7 21  2  0  0  0  0
  8 20  1  0  0  0  0
  8 22  2  0  0  0  0
  8 24  1  0  0  0  0
  9 14  1  0  0  0  0
 10 12  1  0  0  0  0
 10 14  1  0  0  0  0
 11 13  1  0  0  0  0
 11 14  1  0  0  0  0
 12 20  1  0  0  0  0
 13 20  1  0  0  0  0
 14 23  1  0  0  0  0
 16 19  1  0  0  0  0
 17 19  1  0  0  0  0
 18 19  1  0  0  0  0
 19 24  1  0  0  0  0
  1 25  1  0  0  0  0
  2 26  1  0  0  0  0
  3 27  1  0  0  0  0
  9 28  1  0  0  0  0
  9 29  1  0  0  0  0
 10 30  1  0  0  0  0
 10 31  1  0  0  0  0
 11 32  1  0  0  0  0
 11 33  1  0  0  0  0
 12 34  1  0  0  0  0
 12 35  1  0  0  0  0
 13 36  1  0  0  0  0
 13 37  1  0  0  0  0
 15 38  1  0  0  0  0
 15 39  1  0  0  0  0
 15 40  1  0  0  0  0
 16 41  1  0  0  0  0
 16 42  1  0  0  0  0
 16 43  1  0  0  0  0
 17 44  1  0  0  0  0
 17 45  1  0  0  0  0
 17 46  1  0  0  0  0
 18 47  1  0  0  0  0
 18 48  1  0  0  0  0
 18 49  1  0  0  0  0
M  END
> <id>
EN300-338206

> <smiles>
CC=1C=CC=2C(=O)CC3(CCN(CC3)C(=O)OC(C)(C)C)OC2C1

> <MDLNUMBER>
MFCD30499675

> <IUPAC Name>
tert-butyl 7-methyl-4-oxo-3,4-dihydrospiro[1-benzopyran-2,4'-piperidine]-1'-carboxylate

> <CAS>
956605-16-6

> <URL>
https://www.enaminestore.com/catalog/EN300-338206

> <ROCS_ShapeQuery>
_x0404_0B

> <ROCS_TanimotoCombo>
0.431 

> <ROCS_ShapeTanimoto>
0.370 

> <ROCS_ColorTanimoto>
0.062 

> <ROCS_RefTversky>
0.326 

> <ROCS_RefColorTversky>
0.067 

> <ROCS_RefTverskyCombo>
0.392 

> <ROCS_FitTversky>
1.575 

> <ROCS_FitColorTversky>
0.461 

> <ROCS_FitTverskyCombo>
2.036 

> <ROCS_ColorScore>
-4.812

> <ROCS_Overlap>
2175.058

> <ROCS_Rank>
17                  

$$$$
untitled-dbase-26006_161
  -OEChem-08212314543D

 54 56  0     1  0  0  0  0  0999 V2000
  -10.0432    2.0350  -10.1204 C   0  0  0  0  0  0  0  0  0  0  0  0
  -10.0425    3.3964   -9.8262 C   0  0  0  0  0  0  0  0  0  0  0  0
   -8.8589    1.3976  -10.4897 C   0  0  0  0  0  0  0  0  0  0  0  0
   -7.6461    3.4881  -10.2441 C   0  0  0  0  0  0  0  0  0  0  0  0
   -8.8483    4.1183   -9.9095 C   0  0  0  0  0  0  0  0  0  0  0  0
   -7.6696    2.1295  -10.5605 C   0  0  0  0  0  0  0  0  0  0  0  0
   -6.2374    4.4684  -14.8586 C   0  0  0  0  0  0  0  0  0  0  0  0
   -5.7384    3.2619  -14.5545 C   0  0  0  0  0  0  0  0  0  0  0  0
   -8.8889    5.5532   -9.5891 C   0  0  0  0  0  0  0  0  0  0  0  0
   -8.7434    6.0002  -15.1596 C   0  0  0  0  0  0  0  0  0  0  0  0
   -6.6281    4.9303  -16.2313 C   0  0  0  0  0  0  0  0  0  0  0  0
   -5.4328    2.8620  -13.1405 C   0  0  0  0  0  0  0  0  0  0  0  0
   -8.4585    6.2040  -12.0242 C   0  0  0  0  0  0  0  0  0  0  0  0
   -8.6306    5.4998  -17.7527 C   0  0  0  0  0  0  0  0  0  0  0  0
   -8.9362    3.7593  -16.6605 C   0  0  0  0  0  0  0  0  0  0  0  0
   -9.7115    5.8089  -12.8175 C   0  0  1  0  0  0  0  0  0  0  0  0
   -8.1689    5.0801  -16.3182 C   0  0  0  0  0  0  0  0  0  0  0  0
  -10.7326    6.9390  -12.9200 C   0  0  0  0  0  0  0  0  0  0  0  0
   -7.1622    1.0279  -13.5467 C   0  0  0  0  0  0  0  0  0  0  0  0
   -8.7209    6.4684  -10.6135 N   0  0  0  0  0  0  0  0  0  0  0  0
   -9.3246    5.2738  -14.1256 N   0  0  0  0  0  0  0  0  0  0  0  0
   -8.7763    4.0733  -18.0918 N   0  0  0  0  0  0  0  0  0  0  0  0
   -6.0645    1.5721  -12.7054 N   0  0  2  0  0  0  0  0  0  0  0  0
   -9.1089    5.8730   -8.4226 O   0  0  0  0  0  0  0  0  0  0  0  0
   -8.6327    7.2301  -15.1559 O   0  0  0  0  0  0  0  0  0  0  0  0
   -6.3903   -0.1268  -10.7654 O   0  0  0  0  0  0  0  0  0  0  0  0
   -5.0778    1.9647  -10.3200 O   0  0  0  0  0  0  0  0  0  0  0  0
   -6.1682    1.2888  -10.9978 S   0  0  0  0  0  0  0  0  0  0  0  0
  -10.9666    1.4685  -10.0646 H   0  0  0  0  0  0  0  0  0  0  0  0
  -10.9681    3.8793   -9.5269 H   0  0  0  0  0  0  0  0  0  0  0  0
   -8.8783    0.3331  -10.7182 H   0  0  0  0  0  0  0  0  0  0  0  0
   -6.7244    4.0373  -10.2647 H   0  0  0  0  0  0  0  0  0  0  0  0
   -6.3123    5.2137  -14.0714 H   0  0  0  0  0  0  0  0  0  0  0  0
   -5.5059    2.5554  -15.3417 H   0  0  0  0  0  0  0  0  0  0  0  0
   -6.1474    5.8889  -16.4223 H   0  0  0  0  0  0  0  0  0  0  0  0
   -6.2583    4.2354  -16.9845 H   0  0  0  0  0  0  0  0  0  0  0  0
   -4.3357    2.7501  -13.0756 H   0  0  0  0  0  0  0  0  0  0  0  0
   -5.6904    3.6552  -12.4172 H   0  0  0  0  0  0  0  0  0  0  0  0
   -7.7044    5.4022  -12.0607 H   0  0  0  0  0  0  0  0  0  0  0  0
   -7.9981    7.1015  -12.4663 H   0  0  0  0  0  0  0  0  0  0  0  0
   -9.5767    6.0527  -17.7819 H   0  0  0  0  0  0  0  0  0  0  0  0
   -7.8974    6.0372  -18.3600 H   0  0  0  0  0  0  0  0  0  0  0  0
   -8.4629    2.8234  -16.3527 H   0  0  0  0  0  0  0  0  0  0  0  0
   -9.9838    3.7362  -16.3386 H   0  0  0  0  0  0  0  0  0  0  0  0
  -10.1982    4.9648  -12.2585 H   0  0  0  0  0  0  0  0  0  0  0  0
  -10.2993    7.7812  -13.4575 H   0  0  0  0  0  0  0  0  0  0  0  0
  -11.0244    7.2651  -11.9228 H   0  0  0  0  0  0  0  0  0  0  0  0
  -11.6159    6.5919  -13.4541 H   0  0  0  0  0  0  0  0  0  0  0  0
   -7.5270    0.0863  -13.1103 H   0  0  0  0  0  0  0  0  0  0  0  0
   -7.9861    1.7554  -13.5898 H   0  0  0  0  0  0  0  0  0  0  0  0
   -6.7860    0.8393  -14.5630 H   0  0  0  0  0  0  0  0  0  0  0  0
   -8.7904    7.4756  -10.3447 H   0  0  0  0  0  0  0  0  0  0  0  0
   -9.5167    4.2739  -14.2902 H   0  0  0  0  0  0  0  0  0  0  0  0
   -9.5798    3.8498  -18.6733 H   0  0  0  0  0  0  0  0  0  0  0  0
  1  2  2  0  0  0  0
  1  3  1  0  0  0  0
  2  5  1  0  0  0  0
  3  6  2  0  0  0  0
  4  5  2  0  0  0  0
  4  6  1  0  0  0  0
  5  9  1  0  0  0  0
  6 28  1  0  0  0  0
  7  8  2  0  0  0  0
  7 11  1  0  0  0  0
  8 12  1  0  0  0  0
  9 20  1  0  0  0  0
  9 24  2  0  0  0  0
 10 17  1  0  0  0  0
 10 21  1  0  0  0  0
 10 25  2  0  0  0  0
 11 17  1  0  0  0  0
 12 23  1  0  0  0  0
 13 16  1  0  0  0  0
 13 20  1  0  0  0  0
 14 17  1  0  0  0  0
 14 22  1  0  0  0  0
 15 17  1  0  0  0  0
 15 22  1  0  0  0  0
 16 18  1  6  0  0  0
 16 21  1  0  0  0  0
 19 23  1  0  0  0  0
 23 28  1  0  0  0  0
 26 28  2  0  0  0  0
 27 28  2  0  0  0  0
  1 29  1  0  0  0  0
  2 30  1  0  0  0  0
  3 31  1  0  0  0  0
  4 32  1  0  0  0  0
  7 33  1  0  0  0  0
  8 34  1  0  0  0  0
 11 35  1  0  0  0  0
 11 36  1  0  0  0  0
 12 37  1  0  0  0  0
 12 38  1  0  0  0  0
 13 39  1  0  0  0  0
 13 40  1  0  0  0  0
 14 41  1  0  0  0  0
 14 42  1  0  0  0  0
 15 43  1  0  0  0  0
 15 44  1  0  0  0  0
 16 45  1  0  0  0  0
 18 46  1  0  0  0  0
 18 47  1  0  0  0  0
 18 48  1  0  0  0  0
 19 49  1  0  0  0  0
 19 50  1  0  0  0  0
 19 51  1  0  0  0  0
 20 52  1  0  0  0  0
 21 53  1  0  0  0  0
 22 54  1  0  0  0  0
M  END
> <id>
EN300-6733228

> <smiles>
C[C@@H]1CNC(=O)C=2C=CC=C(C2)S(=O)(=O)N(C)C/C=C/CC3(CNC3)C(=O)N1.OC(=O)C(F)(F)F

> <MDLNUMBER>
MFCD31746224

> <IUPAC Name>
(5'E,11'R)-3',11'-dimethyl-2'lambda6-thia-3',10',13'-triazaspiro[azetidine-3,8'-bicyclo[13.3.1]nonadecane]-1'(18'),5',15'(19'),16'-tetraene-2',2',9',14'-tetrone; trifluoroacetic acid

> <CAS>
2648870-05-5

> <URL>
https://www.enaminestore.com/catalog/EN300-6733228

> <Saltdate>
OC(=O)C(F)(F)F

> <ROCS_ShapeQuery>
_x0404_0B

> <ROCS_TanimotoCombo>
0.431 

> <ROCS_ShapeTanimoto>
0.323 

> <ROCS_ColorTanimoto>
0.108 

> <ROCS_RefTversky>
0.299 

> <ROCS_RefColorTversky>
0.116 

> <ROCS_RefTverskyCombo>
0.414 

> <ROCS_FitTversky>
1.335 

> <ROCS_FitColorTversky>
0.629 

> <ROCS_FitTverskyCombo>
1.964 

> <ROCS_ColorScore>
-8.355

> <ROCS_Overlap>
1998.587

> <ROCS_Rank>
18                  

$$$$
untitled-dbase-47896_257
  -OEChem-08212314543D

 47 49  0     0  0  0  0  0  0999 V2000
   -7.3192    5.6658  -16.7366 C   0  0  0  0  0  0  0  0  0  0  0  0
   -7.6221    5.1879  -18.0106 C   0  0  0  0  0  0  0  0  0  0  0  0
   -9.9175    4.8613  -17.3385 C   0  0  0  0  0  0  0  0  0  0  0  0
   -9.6256    5.3513  -16.0583 C   0  0  0  0  0  0  0  0  0  0  0  0
   -8.3144    5.7360  -15.7578 C   0  0  0  0  0  0  0  0  0  0  0  0
   -8.9201    4.7818  -18.3105 C   0  0  0  0  0  0  0  0  0  0  0  0
   -8.6339    5.1406   -9.2273 C   0  0  0  0  0  0  0  0  0  0  0  0
  -10.7093    5.4295  -15.0252 C   0  0  0  0  0  0  0  0  0  0  0  0
  -10.2826    6.3351  -13.8774 C   0  0  0  0  0  0  0  0  0  0  0  0
   -8.6311    4.6290  -12.8418 C   0  0  0  0  0  0  0  0  0  0  0  0
   -8.3951    7.0680  -12.3650 C   0  0  0  0  0  0  0  0  0  0  0  0
   -9.3311    4.4409  -11.4999 C   0  0  0  0  0  0  0  0  0  0  0  0
   -9.0775    6.8687  -11.0139 C   0  0  0  0  0  0  0  0  0  0  0  0
   -8.8352    6.0416  -13.4330 C   0  0  0  0  0  0  0  0  0  0  0  0
  -10.2808    3.2927   -8.3546 C   0  0  0  0  0  0  0  0  0  0  0  0
   -8.5388    1.5596   -8.8754 C   0  0  0  0  0  0  0  0  0  0  0  0
   -8.2570    3.0550   -6.8773 C   0  0  0  0  0  0  0  0  0  0  0  0
   -8.7917    2.9535   -8.3051 C   0  0  0  0  0  0  0  0  0  0  0  0
   -8.9550    5.4841  -10.5460 N   0  0  0  0  0  0  0  0  0  0  0  0
   -8.8174    5.8726   -8.2563 O   0  0  0  0  0  0  0  0  0  0  0  0
   -7.9214    6.2172  -14.5374 O   0  0  0  0  0  0  0  0  0  0  0  0
   -8.0834    3.8903   -9.1250 O   0  0  0  0  0  0  0  0  0  0  0  0
   -9.3291    4.1186  -20.0322 Br  0  0  0  0  0  0  0  0  0  0  0  0
   -6.3053    5.9887  -16.5140 H   0  0  0  0  0  0  0  0  0  0  0  0
   -6.8353    5.1410  -18.7588 H   0  0  0  0  0  0  0  0  0  0  0  0
  -10.9310    4.5386  -17.5676 H   0  0  0  0  0  0  0  0  0  0  0  0
  -11.6245    5.8111  -15.4936 H   0  0  0  0  0  0  0  0  0  0  0  0
  -10.9319    4.4309  -14.6295 H   0  0  0  0  0  0  0  0  0  0  0  0
  -10.4035    7.3852  -14.1674 H   0  0  0  0  0  0  0  0  0  0  0  0
  -10.9590    6.1549  -13.0303 H   0  0  0  0  0  0  0  0  0  0  0  0
   -7.5589    4.4388  -12.6958 H   0  0  0  0  0  0  0  0  0  0  0  0
   -9.0006    3.8705  -13.5462 H   0  0  0  0  0  0  0  0  0  0  0  0
   -8.6032    8.0895  -12.7244 H   0  0  0  0  0  0  0  0  0  0  0  0
   -7.3088    7.0144  -12.1947 H   0  0  0  0  0  0  0  0  0  0  0  0
  -10.4159    4.4151  -11.6565 H   0  0  0  0  0  0  0  0  0  0  0  0
   -9.0546    3.4775  -11.0489 H   0  0  0  0  0  0  0  0  0  0  0  0
   -8.6210    7.5088  -10.2487 H   0  0  0  0  0  0  0  0  0  0  0  0
  -10.1321    7.1564  -11.0860 H   0  0  0  0  0  0  0  0  0  0  0  0
  -10.4665    4.2925   -7.9461 H   0  0  0  0  0  0  0  0  0  0  0  0
  -10.6687    3.2576   -9.3779 H   0  0  0  0  0  0  0  0  0  0  0  0
  -10.8614    2.5950   -7.7403 H   0  0  0  0  0  0  0  0  0  0  0  0
   -7.4716    1.3121   -8.8419 H   0  0  0  0  0  0  0  0  0  0  0  0
   -8.8342    1.5098   -9.9297 H   0  0  0  0  0  0  0  0  0  0  0  0
   -9.0904    0.7913   -8.3241 H   0  0  0  0  0  0  0  0  0  0  0  0
   -7.1889    2.8118   -6.8415 H   0  0  0  0  0  0  0  0  0  0  0  0
   -8.3967    4.0595   -6.4648 H   0  0  0  0  0  0  0  0  0  0  0  0
   -8.7600    2.3359   -6.2208 H   0  0  0  0  0  0  0  0  0  0  0  0
  1  2  1  0  0  0  0
  1  5  2  0  0  0  0
  2  6  2  0  0  0  0
  3  4  2  0  0  0  0
  3  6  1  0  0  0  0
  4  5  1  0  0  0  0
  4  8  1  0  0  0  0
  5 21  1  0  0  0  0
  6 23  1  0  0  0  0
  7 19  1  0  0  0  0
  7 20  2  0  0  0  0
  7 22  1  0  0  0  0
  8  9  1  0  0  0  0
  9 14  1  0  0  0  0
 10 12  1  0  0  0  0
 10 14  1  0  0  0  0
 11 13  1  0  0  0  0
 11 14  1  0  0  0  0
 12 19  1  0  0  0  0
 13 19  1  0  0  0  0
 14 21  1  0  0  0  0
 15 18  1  0  0  0  0
 16 18  1  0  0  0  0
 17 18  1  0  0  0  0
 18 22  1  0  0  0  0
  1 24  1  0  0  0  0
  2 25  1  0  0  0  0
  3 26  1  0  0  0  0
  8 27  1  0  0  0  0
  8 28  1  0  0  0  0
  9 29  1  0  0  0  0
  9 30  1  0  0  0  0
 10 31  1  0  0  0  0
 10 32  1  0  0  0  0
 11 33  1  0  0  0  0
 11 34  1  0  0  0  0
 12 35  1  0  0  0  0
 12 36  1  0  0  0  0
 13 37  1  0  0  0  0
 13 38  1  0  0  0  0
 15 39  1  0  0  0  0
 15 40  1  0  0  0  0
 15 41  1  0  0  0  0
 16 42  1  0  0  0  0
 16 43  1  0  0  0  0
 16 44  1  0  0  0  0
 17 45  1  0  0  0  0
 17 46  1  0  0  0  0
 17 47  1  0  0  0  0
M  END
> <id>
EN300-261705

> <smiles>
CC(C)(C)OC(=O)N1CCC2(CC1)CCC=3C=C(Br)C=CC3O2

> <MDLNUMBER>
MFCD11227132

> <IUPAC Name>
tert-butyl 6-bromo-3,4-dihydrospiro[1-benzopyran-2,4'-piperidine]-1'-carboxylate

> <CAS>
1194374-64-5

> <Purity>
95

> <URL>
https://www.enaminestore.com/catalog/EN300-261705

> <MP>
108-110

> <ROCS_ShapeQuery>
_x0404_0B

> <ROCS_TanimotoCombo>
0.429 

> <ROCS_ShapeTanimoto>
0.367 

> <ROCS_ColorTanimoto>
0.062 

> <ROCS_RefTversky>
0.322 

> <ROCS_RefColorTversky>
0.067 

> <ROCS_RefTverskyCombo>
0.389 

> <ROCS_FitTversky>
1.626 

> <ROCS_FitColorTversky>
0.464 

> <ROCS_FitTverskyCombo>
2.090 

> <ROCS_ColorScore>
-4.842

> <ROCS_Overlap>
2147.806

> <ROCS_Rank>
19                  

$$$$
untitled-dbase-41717_5
  -OEChem-08212314543D

 72 77  0     1  0  0  0  0  0999 V2000
   -8.3419    2.8352   -8.5523 C   0  0  0  0  0  0  0  0  0  0  0  0
   -8.2621    3.8817   -7.7094 C   0  0  0  0  0  0  0  0  0  0  0  0
   -8.3672    2.9320  -10.0464 C   0  0  0  0  0  0  0  0  0  0  0  0
   -8.4881    3.6401   -6.2309 C   0  0  0  0  0  0  0  0  0  0  0  0
   -8.7696    6.8490  -10.2578 C   0  0  0  0  0  0  0  0  0  0  0  0
   -7.6464    4.5147  -18.4359 C   0  0  0  0  0  0  0  0  0  0  0  0
   -8.3466    6.1634   -5.7721 C   0  0  0  0  0  0  0  0  0  0  0  0
   -8.8628    6.2478   -7.2152 C   0  0  0  0  0  0  0  0  0  0  0  0
   -9.3149    6.9116  -11.6970 C   0  0  0  0  0  0  0  0  0  0  0  0
   -7.6583    5.5899  -17.3517 C   0  0  0  0  0  0  0  0  0  0  0  0
   -8.3978    3.5560  -13.1105 C   0  0  0  0  0  0  0  0  0  0  0  0
  -10.0416    4.0626  -17.8612 C   0  0  0  0  0  0  0  0  0  0  0  0
   -8.1762    4.3512  -10.6062 C   0  0  2  0  0  0  0  0  0  0  0  0
   -8.7804    5.4223   -9.6434 C   0  0  1  0  0  0  0  0  0  0  0  0
   -8.8198    4.4970  -11.9876 C   0  0  1  0  0  0  0  0  0  0  0  0
   -9.3224    5.6860  -13.9876 C   0  0  1  0  0  0  0  0  0  0  0  0
   -9.0545    4.3131  -19.0012 C   0  0  2  0  0  0  0  0  0  0  0  0
   -8.8023    6.4172  -15.2304 C   0  0  1  0  0  0  0  0  0  0  0  0
   -9.0931    4.1941  -14.3139 C   0  0  1  0  0  0  0  0  0  0  0  0
   -8.0011    4.7486   -5.3005 C   0  0  2  0  0  0  0  0  0  0  0  0
   -8.1237    5.3202   -8.2112 C   0  0  2  0  0  0  0  0  0  0  0  0
   -8.6167    5.8972  -12.6149 C   0  0  1  0  0  0  0  0  0  0  0  0
   -8.7220    5.2965  -16.2876 C   0  0  1  0  0  0  0  0  0  0  0  0
   -9.0834    3.1748  -20.0153 C   0  0  0  0  0  0  0  0  0  0  0  0
   -9.6693    7.6127  -15.6070 C   0  0  0  0  0  0  0  0  0  0  0  0
   -6.6251    5.7071   -8.2638 C   0  0  0  0  0  0  0  0  0  0  0  0
   -7.1245    6.2871  -12.7670 C   0  0  0  0  0  0  0  0  0  0  0  0
  -10.0055    5.1221  -16.9056 O   0  0  0  0  0  0  0  0  0  0  0  0
   -8.3272    4.1415  -15.5134 O   0  0  0  0  0  0  0  0  0  0  0  0
   -6.5894    4.6407   -5.1184 O   0  0  0  0  0  0  0  0  0  0  0  0
   -8.3900    1.8250   -8.1462 H   0  0  0  0  0  0  0  0  0  0  0  0
   -7.5777    2.2789  -10.4526 H   0  0  0  0  0  0  0  0  0  0  0  0
   -9.3231    2.5054  -10.3928 H   0  0  0  0  0  0  0  0  0  0  0  0
   -9.5652    3.4527   -6.0162 H   0  0  0  0  0  0  0  0  0  0  0  0
   -8.0104    2.6764   -5.9430 H   0  0  0  0  0  0  0  0  0  0  0  0
   -7.7577    7.2624  -10.2565 H   0  0  0  0  0  0  0  0  0  0  0  0
   -9.3748    7.5212   -9.6400 H   0  0  0  0  0  0  0  0  0  0  0  0
   -6.9541    4.8054  -19.2348 H   0  0  0  0  0  0  0  0  0  0  0  0
   -7.2700    3.5738  -18.0151 H   0  0  0  0  0  0  0  0  0  0  0  0
   -7.4654    6.8276   -5.6412 H   0  0  0  0  0  0  0  0  0  0  0  0
   -9.1039    6.6009   -5.0873 H   0  0  0  0  0  0  0  0  0  0  0  0
   -9.9329    5.9996   -7.1981 H   0  0  0  0  0  0  0  0  0  0  0  0
   -8.7946    7.2942   -7.5361 H   0  0  0  0  0  0  0  0  0  0  0  0
  -10.3955    6.7164  -11.6678 H   0  0  0  0  0  0  0  0  0  0  0  0
   -9.1974    7.9293  -12.0903 H   0  0  0  0  0  0  0  0  0  0  0  0
   -6.6615    5.6450  -16.8983 H   0  0  0  0  0  0  0  0  0  0  0  0
   -7.8657    6.5554  -17.8290 H   0  0  0  0  0  0  0  0  0  0  0  0
   -7.3119    3.5071  -13.2388 H   0  0  0  0  0  0  0  0  0  0  0  0
   -8.7553    2.5343  -12.9472 H   0  0  0  0  0  0  0  0  0  0  0  0
  -11.0630    4.0149  -18.2537 H   0  0  0  0  0  0  0  0  0  0  0  0
   -9.8455    3.1090  -17.3567 H   0  0  0  0  0  0  0  0  0  0  0  0
   -7.0886    4.5202  -10.6988 H   0  0  0  0  0  0  0  0  0  0  0  0
   -9.8396    5.1579   -9.5336 H   0  0  0  0  0  0  0  0  0  0  0  0
   -9.9021    4.3407  -11.8436 H   0  0  0  0  0  0  0  0  0  0  0  0
  -10.4036    5.8405  -13.8663 H   0  0  0  0  0  0  0  0  0  0  0  0
   -9.3462    5.2419  -19.5098 H   0  0  0  0  0  0  0  0  0  0  0  0
   -7.7891    6.7914  -15.0654 H   0  0  0  0  0  0  0  0  0  0  0  0
  -10.0550    3.6975  -14.4977 H   0  0  0  0  0  0  0  0  0  0  0  0
   -8.4537    4.5907   -4.2840 H   0  0  0  0  0  0  0  0  0  0  0  0
   -8.7970    2.2404  -19.5334 H   0  0  0  0  0  0  0  0  0  0  0  0
   -8.3874    3.3828  -20.8274 H   0  0  0  0  0  0  0  0  0  0  0  0
  -10.0870    3.0688  -20.4264 H   0  0  0  0  0  0  0  0  0  0  0  0
  -10.6948    7.2884  -15.7825 H   0  0  0  0  0  0  0  0  0  0  0  0
   -9.2856    8.0798  -16.5139 H   0  0  0  0  0  0  0  0  0  0  0  0
   -9.6627    8.3461  -14.8008 H   0  0  0  0  0  0  0  0  0  0  0  0
   -6.5400    6.7254   -8.6197 H   0  0  0  0  0  0  0  0  0  0  0  0
   -6.1144    5.0329   -8.9387 H   0  0  0  0  0  0  0  0  0  0  0  0
   -6.2084    5.6244   -7.2686 H   0  0  0  0  0  0  0  0  0  0  0  0
   -6.6422    5.5675  -13.4144 H   0  0  0  0  0  0  0  0  0  0  0  0
   -6.6625    6.2788  -11.7893 H   0  0  0  0  0  0  0  0  0  0  0  0
   -7.0669    7.2767  -13.1994 H   0  0  0  0  0  0  0  0  0  0  0  0
   -6.4260    3.7679   -4.7278 H   0  0  0  0  0  0  0  0  0  0  0  0
  1  2  2  0  0  0  0
  1  3  1  0  0  0  0
  2  4  1  0  0  0  0
  2 21  1  0  0  0  0
  3 13  1  6  0  0  0
  4 20  1  0  0  0  0
  5  9  1  0  0  0  0
  5 14  1  1  0  0  0
  6 10  1  0  0  0  0
  6 17  1  0  0  0  0
  7  8  1  0  0  0  0
  7 20  1  0  0  0  0
  8 21  1  0  0  0  0
  9 22  1  0  0  0  0
 10 23  1  1  0  0  0
 11 15  1  1  0  0  0
 11 19  1  1  0  0  0
 12 17  1  0  0  0  0
 12 28  1  0  0  0  0
 13 14  1  0  0  0  0
 13 15  1  0  0  0  0
 14 21  1  0  0  0  0
 15 22  1  0  0  0  0
 16 18  1  0  0  0  0
 16 19  1  1  0  0  0
 16 22  1  0  0  0  0
 17 24  1  1  0  0  0
 18 23  1  0  0  0  0
 18 25  1  6  0  0  0
 19 29  1  0  0  0  0
 20 30  1  1  0  0  0
 21 26  1  1  0  0  0
 22 27  1  1  0  0  0
 23 28  1  0  0  0  0
 23 29  1  0  0  0  0
  1 31  1  0  0  0  0
  3 32  1  0  0  0  0
  3 33  1  0  0  0  0
  4 34  1  0  0  0  0
  4 35  1  0  0  0  0
  5 36  1  0  0  0  0
  5 37  1  0  0  0  0
  6 38  1  0  0  0  0
  6 39  1  0  0  0  0
  7 40  1  0  0  0  0
  7 41  1  0  0  0  0
  8 42  1  0  0  0  0
  8 43  1  0  0  0  0
  9 44  1  0  0  0  0
  9 45  1  0  0  0  0
 10 46  1  0  0  0  0
 10 47  1  0  0  0  0
 11 48  1  0  0  0  0
 11 49  1  0  0  0  0
 12 50  1  0  0  0  0
 12 51  1  0  0  0  0
 13 52  1  0  0  0  0
 14 53  1  0  0  0  0
 15 54  1  0  0  0  0
 16 55  1  0  0  0  0
 17 56  1  0  0  0  0
 18 57  1  0  0  0  0
 19 58  1  0  0  0  0
 20 59  1  0  0  0  0
 24 60  1  0  0  0  0
 24 61  1  0  0  0  0
 24 62  1  0  0  0  0
 25 63  1  0  0  0  0
 25 64  1  0  0  0  0
 25 65  1  0  0  0  0
 26 66  1  0  0  0  0
 26 67  1  0  0  0  0
 26 68  1  0  0  0  0
 27 69  1  0  0  0  0
 27 70  1  0  0  0  0
 27 71  1  0  0  0  0
 30 72  1  0  0  0  0
M  END
> <id>
EN300-7388351

> <smiles>
C[C@H]1[C@H]2[C@H](C[C@H]3[C@@H]4CC=C5C[C@@H](O)CC[C@]5(C)[C@H]4CC[C@]23C)O[C@@]61CC[C@@H](C)CO6

> <MDLNUMBER>
MFCD03225546

> <IUPAC Name>
(1'S,2R,2'S,4'S,5R,7'S,8'R,9'S,12'S,13'R,16'S)-5,7',9',13'-tetramethyl-5'-oxaspiro[oxane-2,6'-pentacyclo[10.8.0.0^{2,9}.0^{4,8}.0^{13,18}]icosan]-18'-en-16'-ol

> <CAS>
512-04-9

> <Purity>
95

> <URL>
https://www.enaminestore.com/catalog/EN300-7388351

> <MP>
205-210

> <ROCS_ShapeQuery>
_x0404_0B

> <ROCS_TanimotoCombo>
0.429 

> <ROCS_ShapeTanimoto>
0.374 

> <ROCS_ColorTanimoto>
0.054 

> <ROCS_RefTversky>
0.339 

> <ROCS_RefColorTversky>
0.061 

> <ROCS_RefTverskyCombo>
0.400 

> <ROCS_FitTversky>
1.392 

> <ROCS_FitColorTversky>
0.330 

> <ROCS_FitTverskyCombo>
1.722 

> <ROCS_ColorScore>
-4.407

> <ROCS_Overlap>
2267.421

> <ROCS_Rank>
20                  

$$$$
untitled-dbase-42883_352
  -OEChem-08212314543D

 48 50  0     1  0  0  0  0  0999 V2000
   -8.7141    5.5699  -16.7628 C   0  0  0  0  0  0  0  0  0  0  0  0
   -8.2174    5.2758  -15.5231 C   0  0  0  0  0  0  0  0  0  0  0  0
   -7.5281    4.0644  -15.6608 C   0  0  0  0  0  0  0  0  0  0  0  0
   -9.1943    5.2151   -9.0717 C   0  0  0  0  0  0  0  0  0  0  0  0
   -7.6229    6.4511  -12.1758 C   0  0  0  0  0  0  0  0  0  0  0  0
   -9.1694    4.5568  -12.6646 C   0  0  0  0  0  0  0  0  0  0  0  0
   -6.6671    4.4399  -13.4047 C   0  0  0  0  0  0  0  0  0  0  0  0
   -7.4510    5.9413  -10.7471 C   0  0  0  0  0  0  0  0  0  0  0  0
   -8.9802    4.0401  -11.2425 C   0  0  0  0  0  0  0  0  0  0  0  0
   -6.8054    3.4158  -14.5498 C   0  0  1  0  0  0  0  0  0  0  0  0
   -7.9422    5.3326  -13.1954 C   0  0  0  0  0  0  0  0  0  0  0  0
   -9.4690    4.5306   -6.3060 C   0  0  0  0  0  0  0  0  0  0  0  0
   -9.9381    2.2011   -7.1202 C   0  0  0  0  0  0  0  0  0  0  0  0
   -7.7097    3.2630   -7.5838 C   0  0  0  0  0  0  0  0  0  0  0  0
   -8.6107    4.3584  -18.9561 C   0  0  0  0  0  0  0  0  0  0  0  0
   -9.2079    3.5101   -7.4129 C   0  0  0  0  0  0  0  0  0  0  0  0
   -7.5877    3.5893  -16.9073 N   0  0  0  0  0  0  0  0  0  0  0  0
   -8.3177    4.5246  -17.5525 N   0  0  0  0  0  0  0  0  0  0  0  0
   -8.5859    5.1119  -10.3284 N   0  0  0  0  0  0  0  0  0  0  0  0
   -9.2539    6.2524   -8.4137 O   0  0  0  0  0  0  0  0  0  0  0  0
   -8.3399    6.0283  -14.4114 O   0  0  0  0  0  0  0  0  0  0  0  0
   -7.4886    2.2625  -14.0680 O   0  0  0  0  0  0  0  0  0  0  0  0
   -9.7278    4.0285   -8.6427 O   0  0  0  0  0  0  0  0  0  0  0  0
   -9.2894    6.4006  -17.1481 H   0  0  0  0  0  0  0  0  0  0  0  0
   -8.4237    7.2071  -12.1643 H   0  0  0  0  0  0  0  0  0  0  0  0
   -6.7036    6.9789  -12.4801 H   0  0  0  0  0  0  0  0  0  0  0  0
   -9.3908    3.7069  -13.3267 H   0  0  0  0  0  0  0  0  0  0  0  0
  -10.0531    5.2108  -12.6753 H   0  0  0  0  0  0  0  0  0  0  0  0
   -6.4655    3.8895  -12.4708 H   0  0  0  0  0  0  0  0  0  0  0  0
   -5.7775    5.0640  -13.5747 H   0  0  0  0  0  0  0  0  0  0  0  0
   -6.5147    5.3778  -10.6658 H   0  0  0  0  0  0  0  0  0  0  0  0
   -7.3849    6.7776  -10.0397 H   0  0  0  0  0  0  0  0  0  0  0  0
   -9.9166    3.6148  -10.8550 H   0  0  0  0  0  0  0  0  0  0  0  0
   -8.2440    3.2275  -11.2461 H   0  0  0  0  0  0  0  0  0  0  0  0
   -5.8145    3.0959  -14.8959 H   0  0  0  0  0  0  0  0  0  0  0  0
   -8.9466    5.4716   -6.5124 H   0  0  0  0  0  0  0  0  0  0  0  0
  -10.5376    4.7428   -6.1969 H   0  0  0  0  0  0  0  0  0  0  0  0
   -9.0877    4.1700   -5.3438 H   0  0  0  0  0  0  0  0  0  0  0  0
   -9.7535    1.4660   -7.9118 H   0  0  0  0  0  0  0  0  0  0  0  0
  -11.0225    2.3573   -7.0907 H   0  0  0  0  0  0  0  0  0  0  0  0
   -9.6240    1.7682   -6.1649 H   0  0  0  0  0  0  0  0  0  0  0  0
   -7.5222    2.5311   -8.3777 H   0  0  0  0  0  0  0  0  0  0  0  0
   -7.1744    4.1856   -7.8309 H   0  0  0  0  0  0  0  0  0  0  0  0
   -7.2770    2.8439   -6.6683 H   0  0  0  0  0  0  0  0  0  0  0  0
   -7.8083    4.8332  -19.5267 H   0  0  0  0  0  0  0  0  0  0  0  0
   -8.6686    3.2922  -19.1921 H   0  0  0  0  0  0  0  0  0  0  0  0
   -9.5720    4.8280  -19.1826 H   0  0  0  0  0  0  0  0  0  0  0  0
   -7.5576    1.6478  -14.8155 H   0  0  0  0  0  0  0  0  0  0  0  0
  1  2  2  0  0  0  0
  1 18  1  0  0  0  0
  2  3  1  0  0  0  0
  2 21  1  0  0  0  0
  3 10  1  0  0  0  0
  3 17  2  0  0  0  0
  4 19  1  0  0  0  0
  4 20  2  0  0  0  0
  4 23  1  0  0  0  0
  5  8  1  0  0  0  0
  5 11  1  0  0  0  0
  6  9  1  0  0  0  0
  6 11  1  0  0  0  0
  7 10  1  0  0  0  0
  7 11  1  0  0  0  0
  8 19  1  0  0  0  0
  9 19  1  0  0  0  0
 10 22  1  0  0  0  0
 11 21  1  0  0  0  0
 12 16  1  0  0  0  0
 13 16  1  0  0  0  0
 14 16  1  0  0  0  0
 15 18  1  0  0  0  0
 16 23  1  0  0  0  0
 17 18  1  0  0  0  0
  1 24  1  0  0  0  0
  5 25  1  0  0  0  0
  5 26  1  0  0  0  0
  6 27  1  0  0  0  0
  6 28  1  0  0  0  0
  7 29  1  0  0  0  0
  7 30  1  0  0  0  0
  8 31  1  0  0  0  0
  8 32  1  0  0  0  0
  9 33  1  0  0  0  0
  9 34  1  0  0  0  0
 10 35  1  0  0  0  0
 12 36  1  0  0  0  0
 12 37  1  0  0  0  0
 12 38  1  0  0  0  0
 13 39  1  0  0  0  0
 13 40  1  0  0  0  0
 13 41  1  0  0  0  0
 14 42  1  0  0  0  0
 14 43  1  0  0  0  0
 14 44  1  0  0  0  0
 15 45  1  0  0  0  0
 15 46  1  0  0  0  0
 15 47  1  0  0  0  0
 22 48  1  0  0  0  0
M  END
> <id>
EN300-27718463

> <smiles>
CN1C=C2OC3(CCN(CC3)C(=O)OC(C)(C)C)CC(O)C2=N1

> <IUPAC Name>
tert-butyl 7'-hydroxy-2'-methyl-6',7'-dihydro-2'H-spiro[piperidine-4,5'-pyrano[3,2-c]pyrazole]-1-carboxylate

> <CAS>
2580230-17-5

> <URL>
https://www.enaminestore.com/catalog/EN300-27718463

> <ROCS_ShapeQuery>
_x0404_0B

> <ROCS_TanimotoCombo>
0.428 

> <ROCS_ShapeTanimoto>
0.315 

> <ROCS_ColorTanimoto>
0.114 

> <ROCS_RefTversky>
0.287 

> <ROCS_RefColorTversky>
0.119 

> <ROCS_RefTverskyCombo>
0.407 

> <ROCS_FitTversky>
1.429 

> <ROCS_FitColorTversky>
0.699 

> <ROCS_FitTverskyCombo>
2.128 

> <ROCS_ColorScore>
-8.635

> <ROCS_Overlap>
1919.218

> <ROCS_Rank>
21                  

$$$$
untitled-dbase-21324_38
  -OEChem-08212314543D

 45 47  0     1  0  0  0  0  0999 V2000
   -8.9861    2.5271   -9.0091 C   0  0  0  0  0  0  0  0  0  0  0  0
   -9.0272    2.0917   -7.6795 C   0  0  0  0  0  0  0  0  0  0  0  0
   -9.0523    4.3741   -6.9297 C   0  0  0  0  0  0  0  0  0  0  0  0
   -8.9868    3.8938   -9.3374 C   0  0  0  0  0  0  0  0  0  0  0  0
   -9.0689    3.0149   -6.6407 C   0  0  0  0  0  0  0  0  0  0  0  0
   -8.9896    4.8019   -8.2601 C   0  0  0  0  0  0  0  0  0  0  0  0
   -8.5026    5.8836  -14.6010 C   0  0  0  0  0  0  0  0  0  0  0  0
   -9.1277    3.4651  -11.7926 C   0  0  0  0  0  0  0  0  0  0  0  0
   -9.5678    4.2114  -13.0500 C   0  0  0  0  0  0  0  0  0  0  0  0
   -8.2695    6.1515  -12.1608 C   0  0  0  0  0  0  0  0  0  0  0  0
   -8.3192    6.5046   -9.6824 C   0  0  0  0  0  0  0  0  0  0  0  0
   -8.9952    5.8067  -10.8596 C   0  0  2  0  0  0  0  0  0  0  0  0
   -6.8360    5.9815  -16.9239 C   0  0  0  0  0  0  0  0  0  0  0  0
   -8.1843    4.0286  -17.7470 C   0  0  0  0  0  0  0  0  0  0  0  0
   -9.3068    6.2364  -17.3300 C   0  0  0  0  0  0  0  0  0  0  0  0
   -8.1964    5.2871  -16.8820 C   0  0  0  0  0  0  0  0  0  0  0  0
   -8.9919    4.3600  -10.6469 N   0  0  3  0  0  0  0  0  0  0  0  0
   -8.7715    5.4091  -13.3125 N   0  0  0  0  0  0  0  0  0  0  0  0
   -9.1264    2.5744   -5.3032 N   0  0  0  0  0  0  0  0  0  0  0  0
   -8.3291    7.0697  -14.8763 O   0  0  0  0  0  0  0  0  0  0  0  0
   -8.9558    6.1639   -8.4503 O   0  0  0  0  0  0  0  0  0  0  0  0
   -8.4597    4.8815  -15.5339 O   0  0  0  0  0  0  0  0  0  0  0  0
   -8.9643    1.7565   -9.7725 H   0  0  0  0  0  0  0  0  0  0  0  0
   -9.0305    1.0252   -7.4703 H   0  0  0  0  0  0  0  0  0  0  0  0
   -9.0808    5.1040   -6.1257 H   0  0  0  0  0  0  0  0  0  0  0  0
   -9.8571    2.6804  -11.5571 H   0  0  0  0  0  0  0  0  0  0  0  0
   -8.1776    2.9816  -12.0418 H   0  0  0  0  0  0  0  0  0  0  0  0
   -9.4676    3.5595  -13.9338 H   0  0  0  0  0  0  0  0  0  0  0  0
  -10.6358    4.4685  -12.9746 H   0  0  0  0  0  0  0  0  0  0  0  0
   -8.3260    7.2414  -12.3378 H   0  0  0  0  0  0  0  0  0  0  0  0
   -7.1881    5.9227  -12.0815 H   0  0  0  0  0  0  0  0  0  0  0  0
   -7.2507    6.2659   -9.6162 H   0  0  0  0  0  0  0  0  0  0  0  0
   -8.4004    7.5907   -9.7934 H   0  0  0  0  0  0  0  0  0  0  0  0
  -10.0403    6.1379  -10.9367 H   0  0  0  0  0  0  0  0  0  0  0  0
   -6.8406    6.8853  -16.3043 H   0  0  0  0  0  0  0  0  0  0  0  0
   -6.0357    5.3225  -16.5718 H   0  0  0  0  0  0  0  0  0  0  0  0
   -6.5940    6.3062  -17.9424 H   0  0  0  0  0  0  0  0  0  0  0  0
   -9.1585    3.5271  -17.7198 H   0  0  0  0  0  0  0  0  0  0  0  0
   -7.4534    3.3036  -17.3710 H   0  0  0  0  0  0  0  0  0  0  0  0
   -7.9411    4.2573  -18.7896 H   0  0  0  0  0  0  0  0  0  0  0  0
  -10.2827    5.7385  -17.3000 H   0  0  0  0  0  0  0  0  0  0  0  0
   -9.3544    7.1286  -16.6972 H   0  0  0  0  0  0  0  0  0  0  0  0
   -9.1532    6.5534  -18.3679 H   0  0  0  0  0  0  0  0  0  0  0  0
   -9.1844    1.5937   -5.1127 H   0  0  0  0  0  0  0  0  0  0  0  0
   -9.2035    3.2499   -4.5688 H   0  0  0  0  0  0  0  0  0  0  0  0
  1  2  1  0  0  0  0
  1  4  2  0  0  0  0
  2  5  2  0  0  0  0
  3  5  1  0  0  0  0
  3  6  2  0  0  0  0
  4  6  1  0  0  0  0
  4 17  1  0  0  0  0
  5 19  1  0  0  0  0
  6 21  1  0  0  0  0
  7 18  1  0  0  0  0
  7 20  2  0  0  0  0
  7 22  1  0  0  0  0
  8  9  1  0  0  0  0
  8 17  1  0  0  0  0
  9 18  1  0  0  0  0
 10 12  1  0  0  0  0
 10 18  1  0  0  0  0
 11 12  1  0  0  0  0
 11 21  1  0  0  0  0
 12 17  1  0  0  0  0
 13 16  1  0  0  0  0
 14 16  1  0  0  0  0
 15 16  1  0  0  0  0
 16 22  1  0  0  0  0
  1 23  1  0  0  0  0
  2 24  1  0  0  0  0
  3 25  1  0  0  0  0
  8 26  1  0  0  0  0
  8 27  1  0  0  0  0
  9 28  1  0  0  0  0
  9 29  1  0  0  0  0
 10 30  1  0  0  0  0
 10 31  1  0  0  0  0
 11 32  1  0  0  0  0
 11 33  1  0  0  0  0
 12 34  1  0  0  0  0
 13 35  1  0  0  0  0
 13 36  1  0  0  0  0
 13 37  1  0  0  0  0
 14 38  1  0  0  0  0
 14 39  1  0  0  0  0
 14 40  1  0  0  0  0
 15 41  1  0  0  0  0
 15 42  1  0  0  0  0
 15 43  1  0  0  0  0
 19 44  1  0  0  0  0
 19 45  1  0  0  0  0
M  END
> <id>
EN300-34780412

> <smiles>
CC(C)(C)OC(=O)N1CCN2C(COC=3C=C(N)C=CC23)C1

> <IUPAC Name>
tert-butyl 5-amino-8-oxa-1,12-diazatricyclo[8.4.0.0,2,7]tetradeca-2,4,6-triene-12-carboxylate

> <CAS>
2101540-00-3

> <Purity>
95

> <URL>
https://www.enaminestore.com/catalog/EN300-34780412

> <ROCS_ShapeQuery>
_x0404_0B

> <ROCS_TanimotoCombo>
0.427 

> <ROCS_ShapeTanimoto>
0.351 

> <ROCS_ColorTanimoto>
0.076 

> <ROCS_RefTversky>
0.310 

> <ROCS_RefColorTversky>
0.082 

> <ROCS_RefTverskyCombo>
0.393 

> <ROCS_FitTversky>
1.594 

> <ROCS_FitColorTversky>
0.520 

> <ROCS_FitTverskyCombo>
2.115 

> <ROCS_ColorScore>
-5.927

> <ROCS_Overlap>
2072.659

> <ROCS_Rank>
22                  

$$$$
untitled-dbase-36421_63
  -OEChem-08212314543D

 48 50  0     1  0  0  0  0  0999 V2000
   -9.8015    3.1466   -7.0020 C   0  0  0  0  0  0  0  0  0  0  0  0
   -8.8605    2.2181   -7.4471 C   0  0  0  0  0  0  0  0  0  0  0  0
   -9.9912    4.3399   -7.6986 C   0  0  0  0  0  0  0  0  0  0  0  0
   -8.1021    2.4800   -8.5889 C   0  0  0  0  0  0  0  0  0  0  0  0
   -9.2429    4.5972   -8.8519 C   0  0  0  0  0  0  0  0  0  0  0  0
   -8.2980    3.6675   -9.3003 C   0  0  0  0  0  0  0  0  0  0  0  0
   -9.4958    5.8691   -9.5578 C   0  0  0  0  0  0  0  0  0  0  0  0
   -8.1968    6.2311  -14.6760 C   0  0  0  0  0  0  0  0  0  0  0  0
   -7.2255    3.8868  -15.2717 C   0  0  0  0  0  0  0  0  0  0  0  0
  -10.4015    6.8510  -11.6620 C   0  0  0  0  0  0  0  0  0  0  0  0
   -9.3864    7.2284  -12.7309 C   0  0  0  0  0  0  0  0  0  0  0  0
   -7.9582    5.4413  -17.1807 C   0  0  0  0  0  0  0  0  0  0  0  0
   -9.5686    4.5115  -16.2598 C   0  0  0  0  0  0  0  0  0  0  0  0
   -7.6720    3.0528  -11.4554 C   0  0  0  0  0  0  0  0  0  0  0  0
   -7.6889    3.1483  -14.0045 C   0  0  2  0  0  0  0  0  0  0  0  0
   -7.1089    3.7313  -12.7068 C   0  0  2  0  0  0  0  0  0  0  0  0
   -8.1991    5.0114  -15.6895 C   0  0  0  0  0  0  0  0  0  0  0  0
   -9.9681    5.7244  -10.8520 N   0  0  0  0  0  0  0  0  0  0  0  0
   -9.2237    6.1954  -13.7384 N   0  0  0  0  0  0  0  0  0  0  0  0
   -9.4216    5.4846  -17.3585 N   0  0  0  0  0  0  0  0  0  0  0  0
   -9.3265    6.9241   -8.9559 O   0  0  0  0  0  0  0  0  0  0  0  0
   -7.3485    7.1308  -14.7003 O   0  0  0  0  0  0  0  0  0  0  0  0
   -7.5036    3.9799  -10.3705 O   0  0  0  0  0  0  0  0  0  0  0  0
   -7.2923    1.7800  -14.1318 O   0  0  0  0  0  0  0  0  0  0  0  0
   -5.6875    3.5850  -12.7101 O   0  0  0  0  0  0  0  0  0  0  0  0
  -10.3848    2.9395   -6.1084 H   0  0  0  0  0  0  0  0  0  0  0  0
   -8.7185    1.2900   -6.9012 H   0  0  0  0  0  0  0  0  0  0  0  0
  -10.7254    5.0384   -7.3232 H   0  0  0  0  0  0  0  0  0  0  0  0
   -7.3758    1.7372   -8.8817 H   0  0  0  0  0  0  0  0  0  0  0  0
   -6.2440    4.3478  -15.1112 H   0  0  0  0  0  0  0  0  0  0  0  0
   -7.1038    3.1601  -16.0868 H   0  0  0  0  0  0  0  0  0  0  0  0
  -10.5717    7.7017  -10.9982 H   0  0  0  0  0  0  0  0  0  0  0  0
  -11.3548    6.5738  -12.1171 H   0  0  0  0  0  0  0  0  0  0  0  0
   -9.7231    8.1304  -13.2569 H   0  0  0  0  0  0  0  0  0  0  0  0
   -8.4105    7.4548  -12.2835 H   0  0  0  0  0  0  0  0  0  0  0  0
   -7.4763    6.4177  -17.2991 H   0  0  0  0  0  0  0  0  0  0  0  0
   -7.4441    4.7193  -17.8186 H   0  0  0  0  0  0  0  0  0  0  0  0
   -9.6251    3.4724  -16.5857 H   0  0  0  0  0  0  0  0  0  0  0  0
  -10.4331    4.7176  -15.6189 H   0  0  0  0  0  0  0  0  0  0  0  0
   -8.7278    2.8579  -11.6116 H   0  0  0  0  0  0  0  0  0  0  0  0
   -7.1238    2.1420  -11.2463 H   0  0  0  0  0  0  0  0  0  0  0  0
   -8.7885    3.1425  -13.9316 H   0  0  0  0  0  0  0  0  0  0  0  0
   -7.3247    4.8081  -12.6511 H   0  0  0  0  0  0  0  0  0  0  0  0
  -10.0133    4.7917  -11.2515 H   0  0  0  0  0  0  0  0  0  0  0  0
   -9.8746    5.4292  -13.7591 H   0  0  0  0  0  0  0  0  0  0  0  0
   -9.8490    6.3921  -17.1887 H   0  0  0  0  0  0  0  0  0  0  0  0
   -6.3281    1.7859  -14.2147 H   0  0  0  0  0  0  0  0  0  0  0  0
   -5.3737    4.0147  -11.9027 H   0  0  0  0  0  0  0  0  0  0  0  0
  1  2  2  0  0  0  0
  1  3  1  0  0  0  0
  2  4  1  0  0  0  0
  3  5  2  0  0  0  0
  4  6  2  0  0  0  0
  5  6  1  0  0  0  0
  5  7  1  0  0  0  0
  6 23  1  0  0  0  0
  7 18  1  0  0  0  0
  7 21  2  0  0  0  0
  8 17  1  0  0  0  0
  8 19  1  0  0  0  0
  8 22  2  0  0  0  0
  9 15  1  0  0  0  0
  9 17  1  0  0  0  0
 10 11  1  0  0  0  0
 10 18  1  0  0  0  0
 11 19  1  0  0  0  0
 12 17  1  0  0  0  0
 12 20  1  0  0  0  0
 13 17  1  0  0  0  0
 13 20  1  0  0  0  0
 14 16  1  0  0  0  0
 14 23  1  0  0  0  0
 15 16  1  0  0  0  0
 15 24  1  0  0  0  0
 16 25  1  0  0  0  0
  1 26  1  0  0  0  0
  2 27  1  0  0  0  0
  3 28  1  0  0  0  0
  4 29  1  0  0  0  0
  9 30  1  0  0  0  0
  9 31  1  0  0  0  0
 10 32  1  0  0  0  0
 10 33  1  0  0  0  0
 11 34  1  0  0  0  0
 11 35  1  0  0  0  0
 12 36  1  0  0  0  0
 12 37  1  0  0  0  0
 13 38  1  0  0  0  0
 13 39  1  0  0  0  0
 14 40  1  0  0  0  0
 14 41  1  0  0  0  0
 15 42  1  0  0  0  0
 16 43  1  0  0  0  0
 18 44  1  0  0  0  0
 19 45  1  0  0  0  0
 20 46  1  0  0  0  0
 24 47  1  0  0  0  0
 25 48  1  0  0  0  0
M  END
> <id>
EN300-6493640

> <smiles>
OC1COC=2C=CC=CC2C(=O)NCCNC(=O)C3(CNC3)CC1O

> <MDLNUMBER>
MFCD31720039

> <IUPAC Name>
3',4'-dihydroxy-2',3',4',5',7',8',9',10',11',12'-decahydrospiro[azetidine-3,6'-[1,8,11]benzoxadiazacyclotetradecine]-7',12'-dione

> <CAS>
2648938-78-5

> <URL>
https://www.enaminestore.com/catalog/EN300-6493640

> <ROCS_ShapeQuery>
_x0404_0B

> <ROCS_TanimotoCombo>
0.427 

> <ROCS_ShapeTanimoto>
0.300 

> <ROCS_ColorTanimoto>
0.127 

> <ROCS_RefTversky>
0.279 

> <ROCS_RefColorTversky>
0.138 

> <ROCS_RefTverskyCombo>
0.417 

> <ROCS_FitTversky>
1.332 

> <ROCS_FitColorTversky>
0.618 

> <ROCS_FitTverskyCombo>
1.950 

> <ROCS_ColorScore>
-9.969

> <ROCS_Overlap>
1867.005

> <ROCS_Rank>
23                  

$$$$
untitled-dbase-36361_63
  -OEChem-08212314543D

 48 50  0     1  0  0  0  0  0999 V2000
   -9.8015    3.1466   -7.0020 C   0  0  0  0  0  0  0  0  0  0  0  0
   -8.8605    2.2181   -7.4471 C   0  0  0  0  0  0  0  0  0  0  0  0
   -9.9912    4.3399   -7.6986 C   0  0  0  0  0  0  0  0  0  0  0  0
   -8.1021    2.4800   -8.5889 C   0  0  0  0  0  0  0  0  0  0  0  0
   -9.2429    4.5972   -8.8519 C   0  0  0  0  0  0  0  0  0  0  0  0
   -8.2980    3.6675   -9.3003 C   0  0  0  0  0  0  0  0  0  0  0  0
   -9.4958    5.8691   -9.5578 C   0  0  0  0  0  0  0  0  0  0  0  0
   -8.1968    6.2311  -14.6760 C   0  0  0  0  0  0  0  0  0  0  0  0
   -7.2255    3.8868  -15.2717 C   0  0  0  0  0  0  0  0  0  0  0  0
  -10.4015    6.8510  -11.6620 C   0  0  0  0  0  0  0  0  0  0  0  0
   -9.3864    7.2284  -12.7309 C   0  0  0  0  0  0  0  0  0  0  0  0
   -7.9582    5.4413  -17.1807 C   0  0  0  0  0  0  0  0  0  0  0  0
   -9.5686    4.5115  -16.2598 C   0  0  0  0  0  0  0  0  0  0  0  0
   -7.6720    3.0528  -11.4554 C   0  0  0  0  0  0  0  0  0  0  0  0
   -7.6889    3.1483  -14.0045 C   0  0  2  0  0  0  0  0  0  0  0  0
   -7.1089    3.7313  -12.7068 C   0  0  2  0  0  0  0  0  0  0  0  0
   -8.1991    5.0114  -15.6895 C   0  0  0  0  0  0  0  0  0  0  0  0
   -9.9681    5.7244  -10.8520 N   0  0  0  0  0  0  0  0  0  0  0  0
   -9.2237    6.1954  -13.7384 N   0  0  0  0  0  0  0  0  0  0  0  0
   -9.4216    5.4846  -17.3585 N   0  0  0  0  0  0  0  0  0  0  0  0
   -9.3265    6.9241   -8.9559 O   0  0  0  0  0  0  0  0  0  0  0  0
   -7.3485    7.1308  -14.7003 O   0  0  0  0  0  0  0  0  0  0  0  0
   -7.5036    3.9799  -10.3705 O   0  0  0  0  0  0  0  0  0  0  0  0
   -7.2923    1.7800  -14.1318 O   0  0  0  0  0  0  0  0  0  0  0  0
   -5.6875    3.5850  -12.7101 O   0  0  0  0  0  0  0  0  0  0  0  0
  -10.3848    2.9395   -6.1084 H   0  0  0  0  0  0  0  0  0  0  0  0
   -8.7185    1.2900   -6.9012 H   0  0  0  0  0  0  0  0  0  0  0  0
  -10.7254    5.0384   -7.3232 H   0  0  0  0  0  0  0  0  0  0  0  0
   -7.3758    1.7372   -8.8817 H   0  0  0  0  0  0  0  0  0  0  0  0
   -6.2440    4.3478  -15.1112 H   0  0  0  0  0  0  0  0  0  0  0  0
   -7.1038    3.1601  -16.0868 H   0  0  0  0  0  0  0  0  0  0  0  0
  -10.5717    7.7017  -10.9982 H   0  0  0  0  0  0  0  0  0  0  0  0
  -11.3548    6.5738  -12.1171 H   0  0  0  0  0  0  0  0  0  0  0  0
   -9.7231    8.1304  -13.2569 H   0  0  0  0  0  0  0  0  0  0  0  0
   -8.4105    7.4548  -12.2835 H   0  0  0  0  0  0  0  0  0  0  0  0
   -7.4763    6.4177  -17.2991 H   0  0  0  0  0  0  0  0  0  0  0  0
   -7.4441    4.7193  -17.8186 H   0  0  0  0  0  0  0  0  0  0  0  0
   -9.6251    3.4724  -16.5857 H   0  0  0  0  0  0  0  0  0  0  0  0
  -10.4331    4.7176  -15.6189 H   0  0  0  0  0  0  0  0  0  0  0  0
   -8.7278    2.8579  -11.6116 H   0  0  0  0  0  0  0  0  0  0  0  0
   -7.1238    2.1420  -11.2463 H   0  0  0  0  0  0  0  0  0  0  0  0
   -8.7885    3.1425  -13.9316 H   0  0  0  0  0  0  0  0  0  0  0  0
   -7.3247    4.8081  -12.6511 H   0  0  0  0  0  0  0  0  0  0  0  0
  -10.0133    4.7917  -11.2515 H   0  0  0  0  0  0  0  0  0  0  0  0
   -9.8746    5.4292  -13.7591 H   0  0  0  0  0  0  0  0  0  0  0  0
   -9.8490    6.3921  -17.1887 H   0  0  0  0  0  0  0  0  0  0  0  0
   -6.3281    1.7859  -14.2147 H   0  0  0  0  0  0  0  0  0  0  0  0
   -5.3737    4.0147  -11.9027 H   0  0  0  0  0  0  0  0  0  0  0  0
  1  2  2  0  0  0  0
  1  3  1  0  0  0  0
  2  4  1  0  0  0  0
  3  5  2  0  0  0  0
  4  6  2  0  0  0  0
  5  6  1  0  0  0  0
  5  7  1  0  0  0  0
  6 23  1  0  0  0  0
  7 18  1  0  0  0  0
  7 21  2  0  0  0  0
  8 17  1  0  0  0  0
  8 19  1  0  0  0  0
  8 22  2  0  0  0  0
  9 15  1  0  0  0  0
  9 17  1  0  0  0  0
 10 11  1  0  0  0  0
 10 18  1  0  0  0  0
 11 19  1  0  0  0  0
 12 17  1  0  0  0  0
 12 20  1  0  0  0  0
 13 17  1  0  0  0  0
 13 20  1  0  0  0  0
 14 16  1  0  0  0  0
 14 23  1  0  0  0  0
 15 16  1  0  0  0  0
 15 24  1  0  0  0  0
 16 25  1  0  0  0  0
  1 26  1  0  0  0  0
  2 27  1  0  0  0  0
  3 28  1  0  0  0  0
  4 29  1  0  0  0  0
  9 30  1  0  0  0  0
  9 31  1  0  0  0  0
 10 32  1  0  0  0  0
 10 33  1  0  0  0  0
 11 34  1  0  0  0  0
 11 35  1  0  0  0  0
 12 36  1  0  0  0  0
 12 37  1  0  0  0  0
 13 38  1  0  0  0  0
 13 39  1  0  0  0  0
 14 40  1  0  0  0  0
 14 41  1  0  0  0  0
 15 42  1  0  0  0  0
 16 43  1  0  0  0  0
 18 44  1  0  0  0  0
 19 45  1  0  0  0  0
 20 46  1  0  0  0  0
 24 47  1  0  0  0  0
 25 48  1  0  0  0  0
M  END
> <id>
EN300-6491594

> <smiles>
OC1COC=2C=CC=CC2C(=O)NCCNC(=O)C3(CNC3)CC1O.OC(=O)C(F)(F)F

> <MDLNUMBER>
MFCD31720008

> <IUPAC Name>
3',4'-dihydroxy-2',3',4',5',7',8',9',10',11',12'-decahydrospiro[azetidine-3,6'-[1,8,11]benzoxadiazacyclotetradecine]-7',12'-dione; trifluoroacetic acid

> <CAS>
2648938-79-6

> <URL>
https://www.enaminestore.com/catalog/EN300-6491594

> <Saltdate>
OC(=O)C(F)(F)F

> <ROCS_ShapeQuery>
_x0404_0B

> <ROCS_TanimotoCombo>
0.427 

> <ROCS_ShapeTanimoto>
0.300 

> <ROCS_ColorTanimoto>
0.127 

> <ROCS_RefTversky>
0.279 

> <ROCS_RefColorTversky>
0.138 

> <ROCS_RefTverskyCombo>
0.417 

> <ROCS_FitTversky>
1.332 

> <ROCS_FitColorTversky>
0.618 

> <ROCS_FitTverskyCombo>
1.950 

> <ROCS_ColorScore>
-9.969

> <ROCS_Overlap>
1867.005

> <ROCS_Rank>
24                  

$$$$
untitled-dbase-25848_218
  -OEChem-08212314543D

 57 59  0     1  0  0  0  0  0999 V2000
   -9.4804    4.2239  -17.7104 C   0  0  0  0  0  0  0  0  0  0  0  0
   -8.8560    3.1274  -17.1106 C   0  0  0  0  0  0  0  0  0  0  0  0
   -9.3313    5.5014  -17.1705 C   0  0  0  0  0  0  0  0  0  0  0  0
   -7.9092    4.5929  -15.4287 C   0  0  0  0  0  0  0  0  0  0  0  0
   -8.0792    3.3098  -15.9614 C   0  0  0  0  0  0  0  0  0  0  0  0
   -8.5556    5.6767  -16.0239 C   0  0  0  0  0  0  0  0  0  0  0  0
   -9.2378    7.6681  -13.4160 C   0  0  0  0  0  0  0  0  0  0  0  0
   -9.8430    6.9881  -12.4314 C   0  0  0  0  0  0  0  0  0  0  0  0
   -7.4205    2.1324  -15.3448 C   0  0  0  0  0  0  0  0  0  0  0  0
   -7.6640    3.4239  -10.9507 C   0  0  0  0  0  0  0  0  0  0  0  0
   -9.5310    7.4437  -14.8695 C   0  0  0  0  0  0  0  0  0  0  0  0
   -9.5654    7.1840  -10.9702 C   0  0  0  0  0  0  0  0  0  0  0  0
   -9.5710    2.5260   -9.4642 C   0  0  0  0  0  0  0  0  0  0  0  0
   -7.7853    4.0908   -8.5381 C   0  0  0  0  0  0  0  0  0  0  0  0
   -9.1783    1.7858   -8.1840 C   0  0  0  0  0  0  0  0  0  0  0  0
   -8.5948    3.9794   -7.2464 C   0  0  0  0  0  0  0  0  0  0  0  0
   -6.0873    1.7211  -11.8884 C   0  0  0  0  0  0  0  0  0  0  0  0
   -9.5536    4.9172  -10.2033 C   0  0  0  0  0  0  0  0  0  0  0  0
   -6.7169    1.1236  -13.1581 C   0  0  1  0  0  0  0  0  0  0  0  0
   -8.6369    3.7309   -9.7792 C   0  0  0  0  0  0  0  0  0  0  0  0
   -7.6983   -0.0051  -12.8498 C   0  0  0  0  0  0  0  0  0  0  0  0
   -7.3643    2.1566  -13.9614 N   0  0  0  0  0  0  0  0  0  0  0  0
   -7.0512    2.1825  -10.9000 N   0  0  0  0  0  0  0  0  0  0  0  0
   -9.1592    2.6506   -7.0072 N   0  0  0  0  0  0  0  0  0  0  0  0
   -6.9923    1.2341  -16.0622 O   0  0  0  0  0  0  0  0  0  0  0  0
   -7.4202    4.2535  -11.8284 O   0  0  0  0  0  0  0  0  0  0  0  0
   -8.3493    6.9222  -15.4916 O   0  0  0  0  0  0  0  0  0  0  0  0
   -8.7936    6.1032  -10.4448 O   0  0  0  0  0  0  0  0  0  0  0  0
  -10.0739    4.0814  -18.6095 H   0  0  0  0  0  0  0  0  0  0  0  0
   -8.9742    2.1441  -17.5596 H   0  0  0  0  0  0  0  0  0  0  0  0
   -9.8089    6.3438  -17.6510 H   0  0  0  0  0  0  0  0  0  0  0  0
   -7.2857    4.7267  -14.5578 H   0  0  0  0  0  0  0  0  0  0  0  0
   -8.4601    8.3887  -13.1720 H   0  0  0  0  0  0  0  0  0  0  0  0
  -10.5510    6.2022  -12.6794 H   0  0  0  0  0  0  0  0  0  0  0  0
  -10.3932    6.8189  -15.0624 H   0  0  0  0  0  0  0  0  0  0  0  0
   -9.7202    8.4102  -15.3260 H   0  0  0  0  0  0  0  0  0  0  0  0
   -9.0155    8.1298  -10.7800 H   0  0  0  0  0  0  0  0  0  0  0  0
  -10.5364    7.2721  -10.4366 H   0  0  0  0  0  0  0  0  0  0  0  0
   -9.5921    1.8105  -10.2947 H   0  0  0  0  0  0  0  0  0  0  0  0
  -10.6031    2.8898   -9.3569 H   0  0  0  0  0  0  0  0  0  0  0  0
   -7.4248    5.1188   -8.6291 H   0  0  0  0  0  0  0  0  0  0  0  0
   -6.9062    3.4492   -8.4644 H   0  0  0  0  0  0  0  0  0  0  0  0
   -9.8979    0.9683   -8.0055 H   0  0  0  0  0  0  0  0  0  0  0  0
   -8.1977    1.2912   -8.3055 H   0  0  0  0  0  0  0  0  0  0  0  0
   -7.9886    4.2807   -6.3718 H   0  0  0  0  0  0  0  0  0  0  0  0
   -9.4251    4.7088   -7.2777 H   0  0  0  0  0  0  0  0  0  0  0  0
   -5.4626    0.9658  -11.3890 H   0  0  0  0  0  0  0  0  0  0  0  0
   -5.4223    2.5567  -12.1555 H   0  0  0  0  0  0  0  0  0  0  0  0
  -10.1182    4.6741  -11.1191 H   0  0  0  0  0  0  0  0  0  0  0  0
  -10.2970    5.1171   -9.4114 H   0  0  0  0  0  0  0  0  0  0  0  0
   -5.8968    0.7041  -13.7643 H   0  0  0  0  0  0  0  0  0  0  0  0
   -8.5232    0.3765  -12.2503 H   0  0  0  0  0  0  0  0  0  0  0  0
   -7.1913   -0.7944  -12.2973 H   0  0  0  0  0  0  0  0  0  0  0  0
   -8.0921   -0.4157  -13.7782 H   0  0  0  0  0  0  0  0  0  0  0  0
   -7.7994    2.9398  -13.4757 H   0  0  0  0  0  0  0  0  0  0  0  0
   -7.2869    1.5592  -10.1311 H   0  0  0  0  0  0  0  0  0  0  0  0
  -10.1258    2.7613   -6.6618 H   0  0  0  0  0  0  0  0  0  0  0  0
  1  2  2  0  0  0  0
  1  3  1  0  0  0  0
  2  5  1  0  0  0  0
  3  6  2  0  0  0  0
  4  5  2  0  0  0  0
  4  6  1  0  0  0  0
  5  9  1  0  0  0  0
  6 27  1  0  0  0  0
  7  8  2  0  0  0  0
  7 11  1  0  0  0  0
  8 12  1  0  0  0  0
  9 22  1  0  0  0  0
  9 25  2  0  0  0  0
 10 20  1  0  0  0  0
 10 23  1  0  0  0  0
 10 26  2  0  0  0  0
 11 27  1  0  0  0  0
 12 28  1  0  0  0  0
 13 15  1  0  0  0  0
 13 20  1  0  0  0  0
 14 16  1  0  0  0  0
 14 20  1  0  0  0  0
 15 24  1  0  0  0  0
 16 24  1  0  0  0  0
 17 19  1  0  0  0  0
 17 23  1  0  0  0  0
 18 20  1  0  0  0  0
 18 28  1  0  0  0  0
 19 21  1  6  0  0  0
 19 22  1  0  0  0  0
  1 29  1  0  0  0  0
  2 30  1  0  0  0  0
  3 31  1  0  0  0  0
  4 32  1  0  0  0  0
  7 33  1  0  0  0  0
  8 34  1  0  0  0  0
 11 35  1  0  0  0  0
 11 36  1  0  0  0  0
 12 37  1  0  0  0  0
 12 38  1  0  0  0  0
 13 39  1  0  0  0  0
 13 40  1  0  0  0  0
 14 41  1  0  0  0  0
 14 42  1  0  0  0  0
 15 43  1  0  0  0  0
 15 44  1  0  0  0  0
 16 45  1  0  0  0  0
 16 46  1  0  0  0  0
 17 47  1  0  0  0  0
 17 48  1  0  0  0  0
 18 49  1  0  0  0  0
 18 50  1  0  0  0  0
 19 51  1  0  0  0  0
 21 52  1  0  0  0  0
 21 53  1  0  0  0  0
 21 54  1  0  0  0  0
 22 55  1  0  0  0  0
 23 56  1  0  0  0  0
 24 57  1  0  0  0  0
M  END
> <id>
EN300-6733236

> <smiles>
C[C@@H]1CNC(=O)C2(CCNCC2)COC/C=C/COC=3C=CC=C(C3)C(=O)N1.OC(=O)C(F)(F)F

> <MDLNUMBER>
MFCD31745968

> <IUPAC Name>
(4R,12E)-4-methyl-10,15-dioxa-3,6-diazaspiro[bicyclo[14.3.1]icosane-8,4'-piperidine]-1(19),12,16(20),17-tetraene-2,7-dione; trifluoroacetic acid

> <CAS>
2648861-28-1

> <URL>
https://www.enaminestore.com/catalog/EN300-6733236

> <Saltdate>
OC(=O)C(F)(F)F

> <ROCS_ShapeQuery>
_x0404_0B

> <ROCS_TanimotoCombo>
0.427 

> <ROCS_ShapeTanimoto>
0.311 

> <ROCS_ColorTanimoto>
0.116 

> <ROCS_RefTversky>
0.291 

> <ROCS_RefColorTversky>
0.123 

> <ROCS_RefTverskyCombo>
0.414 

> <ROCS_FitTversky>
1.282 

> <ROCS_FitColorTversky>
0.670 

> <ROCS_FitTverskyCombo>
1.952 

> <ROCS_ColorScore>
-8.895

> <ROCS_Overlap>
1944.974

> <ROCS_Rank>
25                  

$$$$
untitled-dbase-40621_5
  -OEChem-08212314543D

 53 55  0     1  0  0  0  0  0999 V2000
   -9.0916    2.9290   -6.7600 C   0  0  0  0  0  0  0  0  0  0  0  0
   -8.8746    1.7298   -7.4305 C   0  0  0  0  0  0  0  0  0  0  0  0
   -9.1962    4.1240   -7.4756 C   0  0  0  0  0  0  0  0  0  0  0  0
   -8.7573    1.7227   -8.8182 C   0  0  0  0  0  0  0  0  0  0  0  0
   -9.0835    4.1378   -8.8759 C   0  0  0  0  0  0  0  0  0  0  0  0
   -8.8450    2.9207   -9.5404 C   0  0  0  0  0  0  0  0  0  0  0  0
   -7.4018    2.8591  -13.8657 C   0  0  0  0  0  0  0  0  0  0  0  0
   -7.1374    3.0943  -12.5733 C   0  0  0  0  0  0  0  0  0  0  0  0
   -9.1837    5.4748   -9.5512 C   0  0  0  0  0  0  0  0  0  0  0  0
   -8.5184    5.7176  -14.9603 C   0  0  0  0  0  0  0  0  0  0  0  0
   -6.9279    3.7375  -14.9902 C   0  0  0  0  0  0  0  0  0  0  0  0
   -7.6361    2.2382  -11.4507 C   0  0  0  0  0  0  0  0  0  0  0  0
   -7.3607    5.0200  -17.1020 C   0  0  0  0  0  0  0  0  0  0  0  0
   -9.1909    3.5640  -16.2163 C   0  0  0  0  0  0  0  0  0  0  0  0
   -8.3643    5.6042  -18.1004 C   0  0  0  0  0  0  0  0  0  0  0  0
  -10.1345    4.2196  -17.2266 C   0  0  0  0  0  0  0  0  0  0  0  0
  -10.0105    6.4408  -13.0901 C   0  0  0  0  0  0  0  0  0  0  0  0
   -9.3192    6.6901  -11.7421 C   0  0  2  0  0  0  0  0  0  0  0  0
   -8.0290    4.4966  -15.7939 C   0  0  0  0  0  0  0  0  0  0  0  0
   -7.9024    7.2389  -11.9072 C   0  0  0  0  0  0  0  0  0  0  0  0
   -9.3068    5.4755  -10.9317 N   0  0  0  0  0  0  0  0  0  0  0  0
   -9.3709    5.4184  -13.9083 N   0  0  0  0  0  0  0  0  0  0  0  0
   -9.4172    4.6460  -18.4249 N   0  0  0  0  0  0  0  0  0  0  0  0
   -9.1483    6.4984   -8.8709 O   0  0  0  0  0  0  0  0  0  0  0  0
   -8.1442    6.8649  -15.2121 O   0  0  0  0  0  0  0  0  0  0  0  0
   -8.7754    2.9067  -10.9054 O   0  0  0  0  0  0  0  0  0  0  0  0
   -9.1703    2.9399   -5.6760 H   0  0  0  0  0  0  0  0  0  0  0  0
   -8.7837    0.8039   -6.8725 H   0  0  0  0  0  0  0  0  0  0  0  0
   -9.3743    5.0496   -6.9245 H   0  0  0  0  0  0  0  0  0  0  0  0
   -8.5770    0.7765   -9.3212 H   0  0  0  0  0  0  0  0  0  0  0  0
   -8.0204    2.0022  -14.1295 H   0  0  0  0  0  0  0  0  0  0  0  0
   -6.5709    3.9845  -12.2968 H   0  0  0  0  0  0  0  0  0  0  0  0
   -6.1884    4.4676  -14.6011 H   0  0  0  0  0  0  0  0  0  0  0  0
   -6.3432    3.1019  -15.6858 H   0  0  0  0  0  0  0  0  0  0  0  0
   -7.8679    1.2317  -11.8196 H   0  0  0  0  0  0  0  0  0  0  0  0
   -6.8700    2.1640  -10.6721 H   0  0  0  0  0  0  0  0  0  0  0  0
   -6.8281    4.1903  -17.5898 H   0  0  0  0  0  0  0  0  0  0  0  0
   -6.5975    5.7771  -16.8865 H   0  0  0  0  0  0  0  0  0  0  0  0
   -9.7794    3.2460  -15.3505 H   0  0  0  0  0  0  0  0  0  0  0  0
   -8.7817    2.6544  -16.6708 H   0  0  0  0  0  0  0  0  0  0  0  0
   -8.7980    6.5368  -17.7145 H   0  0  0  0  0  0  0  0  0  0  0  0
   -7.8321    5.8657  -19.0238 H   0  0  0  0  0  0  0  0  0  0  0  0
  -10.8997    3.4942  -17.5170 H   0  0  0  0  0  0  0  0  0  0  0  0
  -10.6585    5.0698  -16.7815 H   0  0  0  0  0  0  0  0  0  0  0  0
  -11.0615    6.1761  -12.9289 H   0  0  0  0  0  0  0  0  0  0  0  0
   -9.9975    7.3607  -13.6854 H   0  0  0  0  0  0  0  0  0  0  0  0
   -9.9088    7.4392  -11.2071 H   0  0  0  0  0  0  0  0  0  0  0  0
   -7.2866    6.5152  -12.4380 H   0  0  0  0  0  0  0  0  0  0  0  0
   -7.4655    7.4305  -10.9289 H   0  0  0  0  0  0  0  0  0  0  0  0
   -7.9311    8.1678  -12.4740 H   0  0  0  0  0  0  0  0  0  0  0  0
   -9.3940    4.5747  -11.4095 H   0  0  0  0  0  0  0  0  0  0  0  0
   -9.5583    4.4462  -13.6980 H   0  0  0  0  0  0  0  0  0  0  0  0
  -10.0746    5.0742  -19.0767 H   0  0  0  0  0  0  0  0  0  0  0  0
  1  2  2  0  0  0  0
  1  3  1  0  0  0  0
  2  4  1  0  0  0  0
  3  5  2  0  0  0  0
  4  6  2  0  0  0  0
  5  6  1  0  0  0  0
  5  9  1  0  0  0  0
  6 26  1  0  0  0  0
  7  8  2  0  0  0  0
  7 11  1  0  0  0  0
  8 12  1  0  0  0  0
  9 21  1  0  0  0  0
  9 24  2  0  0  0  0
 10 19  1  0  0  0  0
 10 22  1  0  0  0  0
 10 25  2  0  0  0  0
 11 19  1  0  0  0  0
 12 26  1  0  0  0  0
 13 15  1  0  0  0  0
 13 19  1  0  0  0  0
 14 16  1  0  0  0  0
 14 19  1  0  0  0  0
 15 23  1  0  0  0  0
 16 23  1  0  0  0  0
 17 18  1  0  0  0  0
 17 22  1  0  0  0  0
 18 20  1  1  0  0  0
 18 21  1  0  0  0  0
  1 27  1  0  0  0  0
  2 28  1  0  0  0  0
  3 29  1  0  0  0  0
  4 30  1  0  0  0  0
  7 31  1  0  0  0  0
  8 32  1  0  0  0  0
 11 33  1  0  0  0  0
 11 34  1  0  0  0  0
 12 35  1  0  0  0  0
 12 36  1  0  0  0  0
 13 37  1  0  0  0  0
 13 38  1  0  0  0  0
 14 39  1  0  0  0  0
 14 40  1  0  0  0  0
 15 41  1  0  0  0  0
 15 42  1  0  0  0  0
 16 43  1  0  0  0  0
 16 44  1  0  0  0  0
 17 45  1  0  0  0  0
 17 46  1  0  0  0  0
 18 47  1  0  0  0  0
 20 48  1  0  0  0  0
 20 49  1  0  0  0  0
 20 50  1  0  0  0  0
 21 51  1  0  0  0  0
 22 52  1  0  0  0  0
 23 53  1  0  0  0  0
M  END
> <id>
EN300-6491612

> <smiles>
C[C@H]1CNC(=O)C2(CCNCC2)C/C=C/COC=3C=CC=CC3C(=O)N1.OC(=O)C(F)(F)F

> <MDLNUMBER>
MFCD31719847

> <IUPAC Name>
(3E,10S)-10-methyl-2,5,7,8,9,10,11,12-octahydrospiro[1,8,11-benzoxadiazacyclotetradecine-6,4'-piperidin]-3-ene-7,12-dione; trifluoroacetic acid

> <CAS>
2253619-64-4

> <URL>
https://www.enaminestore.com/catalog/EN300-6491612

> <Saltdate>
OC(=O)C(F)(F)F

> <ROCS_ShapeQuery>
_x0404_0B

> <ROCS_TanimotoCombo>
0.426 

> <ROCS_ShapeTanimoto>
0.365 

> <ROCS_ColorTanimoto>
0.061 

> <ROCS_RefTversky>
0.325 

> <ROCS_RefColorTversky>
0.067 

> <ROCS_RefTverskyCombo>
0.392 

> <ROCS_FitTversky>
1.510 

> <ROCS_FitColorTversky>
0.395 

> <ROCS_FitTverskyCombo>
1.905 

> <ROCS_ColorScore>
-4.874

> <ROCS_Overlap>
2171.712

> <ROCS_Rank>
26                  

$$$$
untitled-dbase-43060_1
  -OEChem-08212314543D

 35 39  0     0  0  0  0  0  0999 V2000
   -9.0449    3.4649   -7.0000 C   0  0  0  0  0  0  0  0  0  0  0  0
   -9.2871    2.1965   -7.5231 C   0  0  0  0  0  0  0  0  0  0  0  0
   -8.8315    4.5597   -7.8451 C   0  0  0  0  0  0  0  0  0  0  0  0
   -9.3231    1.9809   -8.9036 C   0  0  0  0  0  0  0  0  0  0  0  0
   -8.3850    3.7639  -16.3366 C   0  0  0  0  0  0  0  0  0  0  0  0
   -8.2568    4.3429  -17.5902 C   0  0  0  0  0  0  0  0  0  0  0  0
   -8.3569    6.4705  -16.7258 C   0  0  0  0  0  0  0  0  0  0  0  0
   -8.8640    4.3680   -9.2406 C   0  0  0  0  0  0  0  0  0  0  0  0
   -8.5041    4.6076  -15.2328 C   0  0  0  0  0  0  0  0  0  0  0  0
   -8.4891    5.9875  -15.4297 C   0  0  0  0  0  0  0  0  0  0  0  0
   -8.6995    5.2153  -10.3670 C   0  0  0  0  0  0  0  0  0  0  0  0
   -9.1075    3.0832   -9.7385 C   0  0  0  0  0  0  0  0  0  0  0  0
   -8.8366    4.4480  -11.5023 C   0  0  0  0  0  0  0  0  0  0  0  0
   -8.6388    4.0703  -13.8816 C   0  0  0  0  0  0  0  0  0  0  0  0
   -8.6215    6.9060  -14.2746 C   0  0  0  0  0  0  0  0  0  0  0  0
   -8.7463    4.9105  -12.8404 C   0  0  0  0  0  0  0  0  0  0  0  0
   -8.4172    6.6661  -10.4856 C   0  0  0  0  0  0  0  0  0  0  0  0
   -8.9497    7.1936  -11.8326 C   0  0  0  0  0  0  0  0  0  0  0  0
   -8.2395    5.6758  -17.8133 N   0  0  0  0  0  0  0  0  0  0  0  0
   -9.0862    3.1602  -11.1174 N   0  0  0  0  0  0  0  0  0  0  0  0
   -8.7257    6.3071  -13.0053 N   0  0  0  0  0  0  0  0  0  0  0  0
   -8.6428    8.1174  -14.4813 O   0  0  0  0  0  0  0  0  0  0  0  0
   -9.0206    3.6073   -5.9228 H   0  0  0  0  0  0  0  0  0  0  0  0
   -9.4509    1.3606   -6.8481 H   0  0  0  0  0  0  0  0  0  0  0  0
   -8.6442    5.5427   -7.4225 H   0  0  0  0  0  0  0  0  0  0  0  0
   -9.5125    0.9924   -9.3091 H   0  0  0  0  0  0  0  0  0  0  0  0
   -8.3914    2.6836  -16.2334 H   0  0  0  0  0  0  0  0  0  0  0  0
   -8.1613    3.7258  -18.4779 H   0  0  0  0  0  0  0  0  0  0  0  0
   -8.3400    7.5332  -16.9453 H   0  0  0  0  0  0  0  0  0  0  0  0
   -8.6637    2.9908  -13.7763 H   0  0  0  0  0  0  0  0  0  0  0  0
   -8.9109    7.1970   -9.6629 H   0  0  0  0  0  0  0  0  0  0  0  0
   -7.3422    6.8631  -10.4122 H   0  0  0  0  0  0  0  0  0  0  0  0
  -10.0180    7.4190  -11.7381 H   0  0  0  0  0  0  0  0  0  0  0  0
   -8.4510    8.1407  -12.0789 H   0  0  0  0  0  0  0  0  0  0  0  0
   -9.2291    2.3714  -11.7330 H   0  0  0  0  0  0  0  0  0  0  0  0
  1  2  2  0  0  0  0
  1  3  1  0  0  0  0
  2  4  1  0  0  0  0
  3  8  2  0  0  0  0
  4 12  2  0  0  0  0
  5  6  1  0  0  0  0
  5  9  2  0  0  0  0
  6 19  2  0  0  0  0
  7 10  2  0  0  0  0
  7 19  1  0  0  0  0
  8 11  1  0  0  0  0
  8 12  1  0  0  0  0
  9 10  1  0  0  0  0
  9 14  1  0  0  0  0
 10 15  1  0  0  0  0
 11 13  2  0  0  0  0
 11 17  1  0  0  0  0
 12 20  1  0  0  0  0
 13 16  1  0  0  0  0
 13 20  1  0  0  0  0
 14 16  2  0  0  0  0
 15 21  1  0  0  0  0
 15 22  2  0  0  0  0
 16 21  1  0  0  0  0
 17 18  1  0  0  0  0
 18 21  1  0  0  0  0
  1 23  1  0  0  0  0
  2 24  1  0  0  0  0
  3 25  1  0  0  0  0
  4 26  1  0  0  0  0
  5 27  1  0  0  0  0
  6 28  1  0  0  0  0
  7 29  1  0  0  0  0
 14 30  1  0  0  0  0
 17 31  1  0  0  0  0
 17 32  1  0  0  0  0
 18 33  1  0  0  0  0
 18 34  1  0  0  0  0
 20 35  1  0  0  0  0
M  END
> <id>
EN300-27735997

> <smiles>
O=C1N2CCC3=C(NC=4C=CC=CC34)C2=CC=5C=CN=CC15

> <MDLNUMBER>
MFCD33549177

> <IUPAC Name>
3,13,17-triazapentacyclo[11.8.0.0^{2,10}.0^{4,9}.0^{15,20}]henicosa-1(21),2(10),4(9),5,7,15(20),16,18-octaen-14-one

> <CAS>
57103-51-2

> <Purity>
95

> <URL>
https://www.enaminestore.com/catalog/EN300-27735997

> <ROCS_ShapeQuery>
_x0404_0B

> <ROCS_TanimotoCombo>
0.426 

> <ROCS_ShapeTanimoto>
0.362 

> <ROCS_ColorTanimoto>
0.064 

> <ROCS_RefTversky>
0.320 

> <ROCS_RefColorTversky>
0.070 

> <ROCS_RefTverskyCombo>
0.390 

> <ROCS_FitTversky>
1.571 

> <ROCS_FitColorTversky>
0.440 

> <ROCS_FitTverskyCombo>
2.011 

> <ROCS_ColorScore>
-5.024

> <ROCS_Overlap>
2136.706

> <ROCS_Rank>
27                  

$$$$
untitled-dbase-31781_34
  -OEChem-08212314543D

 43 45  0     0  0  0  0  0  0999 V2000
   -7.4832    6.9241  -15.4232 C   0  0  0  0  0  0  0  0  0  0  0  0
   -7.3670    6.5578  -16.7688 C   0  0  0  0  0  0  0  0  0  0  0  0
   -8.4368    4.4201  -16.3346 C   0  0  0  0  0  0  0  0  0  0  0  0
   -8.0849    6.0298  -14.5151 C   0  0  0  0  0  0  0  0  0  0  0  0
   -8.3639    6.0633  -13.1217 C   0  0  0  0  0  0  0  0  0  0  0  0
   -7.8371    5.3246  -17.2153 C   0  0  0  0  0  0  0  0  0  0  0  0
   -8.5472    4.7978  -14.9914 C   0  0  0  0  0  0  0  0  0  0  0  0
   -8.9727    4.8717  -12.7889 C   0  0  0  0  0  0  0  0  0  0  0  0
   -8.7491    5.1445   -9.1111 C   0  0  0  0  0  0  0  0  0  0  0  0
   -8.0927    7.1061  -12.0957 C   0  0  0  0  0  0  0  0  0  0  0  0
   -9.4505    4.4654  -11.4431 C   0  0  0  0  0  0  0  0  0  0  0  0
   -8.9997    6.8873  -10.8726 C   0  0  0  0  0  0  0  0  0  0  0  0
  -10.5592    3.4537   -8.2453 C   0  0  0  0  0  0  0  0  0  0  0  0
   -8.9463    1.5770   -8.6763 C   0  0  0  0  0  0  0  0  0  0  0  0
   -8.6011    3.0948   -6.7052 C   0  0  0  0  0  0  0  0  0  0  0  0
   -7.6988    4.9613  -18.6571 C   0  0  0  0  0  0  0  0  0  0  0  0
   -9.1035    3.0001   -8.1451 C   0  0  0  0  0  0  0  0  0  0  0  0
   -9.0844    4.1150  -13.9201 N   0  0  0  0  0  0  0  0  0  0  0  0
   -9.0139    5.4719  -10.4462 N   0  0  0  0  0  0  0  0  0  0  0  0
   -8.9013    5.9138   -8.1642 O   0  0  0  0  0  0  0  0  0  0  0  0
   -8.3015    3.8577   -8.9652 O   0  0  0  0  0  0  0  0  0  0  0  0
   -7.0969    5.9294  -19.4084 F   0  0  0  0  0  0  0  0  0  0  0  0
   -6.9578    3.8340  -18.8662 F   0  0  0  0  0  0  0  0  0  0  0  0
   -8.9021    4.7267  -19.2553 F   0  0  0  0  0  0  0  0  0  0  0  0
   -7.1117    7.8890  -15.0899 H   0  0  0  0  0  0  0  0  0  0  0  0
   -6.9026    7.2516  -17.4657 H   0  0  0  0  0  0  0  0  0  0  0  0
   -8.8047    3.4576  -16.6762 H   0  0  0  0  0  0  0  0  0  0  0  0
   -7.0406    7.0489  -11.7918 H   0  0  0  0  0  0  0  0  0  0  0  0
   -8.2684    8.1059  -12.5074 H   0  0  0  0  0  0  0  0  0  0  0  0
  -10.5452    4.4368  -11.4145 H   0  0  0  0  0  0  0  0  0  0  0  0
   -9.0676    3.4752  -11.1796 H   0  0  0  0  0  0  0  0  0  0  0  0
   -8.6786    7.5378  -10.0527 H   0  0  0  0  0  0  0  0  0  0  0  0
  -10.0373    7.1522  -11.1130 H   0  0  0  0  0  0  0  0  0  0  0  0
  -10.6762    4.4748   -7.8650 H   0  0  0  0  0  0  0  0  0  0  0  0
  -10.9209    3.4238   -9.2783 H   0  0  0  0  0  0  0  0  0  0  0  0
  -11.2095    2.8192   -7.6323 H   0  0  0  0  0  0  0  0  0  0  0  0
   -7.9034    1.2474   -8.6063 H   0  0  0  0  0  0  0  0  0  0  0  0
   -9.2162    1.5243   -9.7372 H   0  0  0  0  0  0  0  0  0  0  0  0
   -9.5717    0.8682   -8.1238 H   0  0  0  0  0  0  0  0  0  0  0  0
   -7.5570    2.7695   -6.6331 H   0  0  0  0  0  0  0  0  0  0  0  0
   -8.6720    4.1171   -6.3197 H   0  0  0  0  0  0  0  0  0  0  0  0
   -9.1770    2.4339   -6.0473 H   0  0  0  0  0  0  0  0  0  0  0  0
   -9.4965    3.1933  -13.9696 H   0  0  0  0  0  0  0  0  0  0  0  0
  1  2  1  0  0  0  0
  1  4  2  0  0  0  0
  2  6  2  0  0  0  0
  3  6  1  0  0  0  0
  3  7  2  0  0  0  0
  4  5  1  0  0  0  0
  4  7  1  0  0  0  0
  5  8  2  0  0  0  0
  5 10  1  0  0  0  0
  6 16  1  0  0  0  0
  7 18  1  0  0  0  0
  8 11  1  0  0  0  0
  8 18  1  0  0  0  0
  9 19  1  0  0  0  0
  9 20  2  0  0  0  0
  9 21  1  0  0  0  0
 10 12  1  0  0  0  0
 11 19  1  0  0  0  0
 12 19  1  0  0  0  0
 13 17  1  0  0  0  0
 14 17  1  0  0  0  0
 15 17  1  0  0  0  0
 16 22  1  0  0  0  0
 16 23  1  0  0  0  0
 16 24  1  0  0  0  0
 17 21  1  0  0  0  0
  1 25  1  0  0  0  0
  2 26  1  0  0  0  0
  3 27  1  0  0  0  0
 10 28  1  0  0  0  0
 10 29  1  0  0  0  0
 11 30  1  0  0  0  0
 11 31  1  0  0  0  0
 12 32  1  0  0  0  0
 12 33  1  0  0  0  0
 13 34  1  0  0  0  0
 13 35  1  0  0  0  0
 13 36  1  0  0  0  0
 14 37  1  0  0  0  0
 14 38  1  0  0  0  0
 14 39  1  0  0  0  0
 15 40  1  0  0  0  0
 15 41  1  0  0  0  0
 15 42  1  0  0  0  0
 18 43  1  0  0  0  0
M  END
> <id>
EN300-27143516

> <smiles>
CC(C)(C)OC(=O)N1CCC2=C(C1)NC=3C=C(C=CC23)C(F)(F)F

> <MDLNUMBER>
MFCD32852992

> <IUPAC Name>
tert-butyl 7-(trifluoromethyl)-1H,2H,3H,4H,9H-pyrido[3,4-b]indole-2-carboxylate

> <CAS>
2490430-23-2

> <Purity>
95

> <URL>
https://www.enaminestore.com/catalog/EN300-27143516

> <ROCS_ShapeQuery>
_x0404_0B

> <ROCS_TanimotoCombo>
0.425 

> <ROCS_ShapeTanimoto>
0.378 

> <ROCS_ColorTanimoto>
0.047 

> <ROCS_RefTversky>
0.332 

> <ROCS_RefColorTversky>
0.051 

> <ROCS_RefTverskyCombo>
0.383 

> <ROCS_FitTversky>
1.584 

> <ROCS_FitColorTversky>
0.384 

> <ROCS_FitTverskyCombo>
1.969 

> <ROCS_ColorScore>
-3.658

> <ROCS_Overlap>
2218.790

> <ROCS_Rank>
28                  

$$$$
untitled-dbase-27241_41
  -OEChem-08212314543D

 43 45  0     1  0  0  0  0  0999 V2000
   -8.9993    2.0755   -7.6911 C   0  0  0  0  0  0  0  0  0  0  0  0
   -8.9829    2.9658   -6.6234 C   0  0  0  0  0  0  0  0  0  0  0  0
   -9.0105    2.5525   -9.0067 C   0  0  0  0  0  0  0  0  0  0  0  0
   -8.9617    4.3334   -6.8702 C   0  0  0  0  0  0  0  0  0  0  0  0
   -9.0063    3.9292   -9.2914 C   0  0  0  0  0  0  0  0  0  0  0  0
   -8.9523    4.8030   -8.1879 C   0  0  0  0  0  0  0  0  0  0  0  0
   -8.4866    5.8161  -14.5326 C   0  0  0  0  0  0  0  0  0  0  0  0
   -9.3319    3.5773  -11.7369 C   0  0  0  0  0  0  0  0  0  0  0  0
   -9.7603    4.3879  -12.9567 C   0  0  0  0  0  0  0  0  0  0  0  0
   -8.3879    6.2750  -12.0730 C   0  0  0  0  0  0  0  0  0  0  0  0
   -8.3363    6.5478   -9.5845 C   0  0  0  0  0  0  0  0  0  0  0  0
   -9.0625    5.8878  -10.7541 C   0  0  2  0  0  0  0  0  0  0  0  0
   -6.6942    5.5283  -16.7438 C   0  0  0  0  0  0  0  0  0  0  0  0
   -8.1464    3.5980  -17.4327 C   0  0  0  0  0  0  0  0  0  0  0  0
   -9.1115    5.9145  -17.3290 C   0  0  0  0  0  0  0  0  0  0  0  0
   -8.1056    4.9438  -16.7119 C   0  0  0  0  0  0  0  0  0  0  0  0
   -9.0592    4.4349  -10.5857 N   0  0  3  0  0  0  0  0  0  0  0  0
   -8.8578    5.5011  -13.2217 N   0  0  0  0  0  0  0  0  0  0  0  0
   -8.2052    6.9471  -14.9236 O   0  0  0  0  0  0  0  0  0  0  0  0
   -8.9181    6.1699   -8.3366 O   0  0  0  0  0  0  0  0  0  0  0  0
   -8.4727    4.7135  -15.3470 O   0  0  0  0  0  0  0  0  0  0  0  0
   -9.0082    1.0058   -7.5041 H   0  0  0  0  0  0  0  0  0  0  0  0
   -8.9846    2.5945   -5.6027 H   0  0  0  0  0  0  0  0  0  0  0  0
   -9.0325    1.8070   -9.7946 H   0  0  0  0  0  0  0  0  0  0  0  0
   -8.9457    5.0279   -6.0361 H   0  0  0  0  0  0  0  0  0  0  0  0
  -10.1185    2.8595  -11.4774 H   0  0  0  0  0  0  0  0  0  0  0  0
   -8.4436    3.0154  -12.0402 H   0  0  0  0  0  0  0  0  0  0  0  0
   -9.7617    3.7518  -13.8538 H   0  0  0  0  0  0  0  0  0  0  0  0
  -10.7890    4.7467  -12.8212 H   0  0  0  0  0  0  0  0  0  0  0  0
   -8.5183    7.3603  -12.2495 H   0  0  0  0  0  0  0  0  0  0  0  0
   -7.2906    6.1204  -12.0144 H   0  0  0  0  0  0  0  0  0  0  0  0
   -7.2656    6.3075   -9.5723 H   0  0  0  0  0  0  0  0  0  0  0  0
   -8.4202    7.6373   -9.6584 H   0  0  0  0  0  0  0  0  0  0  0  0
  -10.1086    6.2266  -10.7784 H   0  0  0  0  0  0  0  0  0  0  0  0
   -6.6608    6.4943  -16.2275 H   0  0  0  0  0  0  0  0  0  0  0  0
   -5.9688    4.8569  -16.2728 H   0  0  0  0  0  0  0  0  0  0  0  0
   -6.3725    5.7173  -17.7744 H   0  0  0  0  0  0  0  0  0  0  0  0
   -9.1572    3.1749  -17.4122 H   0  0  0  0  0  0  0  0  0  0  0  0
   -7.4966    2.8690  -16.9352 H   0  0  0  0  0  0  0  0  0  0  0  0
   -7.8297    3.6891  -18.4767 H   0  0  0  0  0  0  0  0  0  0  0  0
  -10.1239    5.4954  -17.3063 H   0  0  0  0  0  0  0  0  0  0  0  0
   -9.1225    6.8736  -16.8011 H   0  0  0  0  0  0  0  0  0  0  0  0
   -8.8773    6.1001  -18.3835 H   0  0  0  0  0  0  0  0  0  0  0  0
  1  2  2  0  0  0  0
  1  3  1  0  0  0  0
  2  4  1  0  0  0  0
  3  5  2  0  0  0  0
  4  6  2  0  0  0  0
  5  6  1  0  0  0  0
  5 17  1  0  0  0  0
  6 20  1  0  0  0  0
  7 18  1  0  0  0  0
  7 19  2  0  0  0  0
  7 21  1  0  0  0  0
  8  9  1  0  0  0  0
  8 17  1  0  0  0  0
  9 18  1  0  0  0  0
 10 12  1  0  0  0  0
 10 18  1  0  0  0  0
 11 12  1  0  0  0  0
 11 20  1  0  0  0  0
 12 17  1  0  0  0  0
 13 16  1  0  0  0  0
 14 16  1  0  0  0  0
 15 16  1  0  0  0  0
 16 21  1  0  0  0  0
  1 22  1  0  0  0  0
  2 23  1  0  0  0  0
  3 24  1  0  0  0  0
  4 25  1  0  0  0  0
  8 26  1  0  0  0  0
  8 27  1  0  0  0  0
  9 28  1  0  0  0  0
  9 29  1  0  0  0  0
 10 30  1  0  0  0  0
 10 31  1  0  0  0  0
 11 32  1  0  0  0  0
 11 33  1  0  0  0  0
 12 34  1  0  0  0  0
 13 35  1  0  0  0  0
 13 36  1  0  0  0  0
 13 37  1  0  0  0  0
 14 38  1  0  0  0  0
 14 39  1  0  0  0  0
 14 40  1  0  0  0  0
 15 41  1  0  0  0  0
 15 42  1  0  0  0  0
 15 43  1  0  0  0  0
M  END
> <id>
EN300-37432269

> <smiles>
CC(C)(C)OC(=O)N1CCN2C(COC=3C=CC=CC23)C1

> <IUPAC Name>
tert-butyl 8-oxa-1,12-diazatricyclo[8.4.0.0,2,7]tetradeca-2,4,6-triene-12-carboxylate

> <URL>
https://www.enaminestore.com/catalog/EN300-37432269

> <ROCS_ShapeQuery>
_x0404_0B

> <ROCS_TanimotoCombo>
0.424 

> <ROCS_ShapeTanimoto>
0.344 

> <ROCS_ColorTanimoto>
0.080 

> <ROCS_RefTversky>
0.304 

> <ROCS_RefColorTversky>
0.084 

> <ROCS_RefTverskyCombo>
0.388 

> <ROCS_FitTversky>
1.613 

> <ROCS_FitColorTversky>
0.639 

> <ROCS_FitTverskyCombo>
2.253 

> <ROCS_ColorScore>
-6.067

> <ROCS_Overlap>
2028.712

> <ROCS_Rank>
29                  

$$$$
untitled-dbase-9942_35
  -OEChem-08212314543D

 46 48  0     0  0  0  0  0  0999 V2000
   -7.2194    6.1250  -16.5460 C   0  0  0  0  0  0  0  0  0  0  0  0
   -7.1458    5.4854  -17.7837 C   0  0  0  0  0  0  0  0  0  0  0  0
   -9.2016    4.3078  -17.3043 C   0  0  0  0  0  0  0  0  0  0  0  0
   -9.2730    4.9532  -16.0668 C   0  0  0  0  0  0  0  0  0  0  0  0
   -8.2771    5.8490  -15.6776 C   0  0  0  0  0  0  0  0  0  0  0  0
   -8.1328    4.5749  -18.1600 C   0  0  0  0  0  0  0  0  0  0  0  0
  -10.4190    4.7246  -15.1699 C   0  0  0  0  0  0  0  0  0  0  0  0
   -8.5689    5.1887   -9.2318 C   0  0  0  0  0  0  0  0  0  0  0  0
  -10.4719    5.5856  -13.9356 C   0  0  0  0  0  0  0  0  0  0  0  0
   -8.3054    4.6900  -12.8477 C   0  0  0  0  0  0  0  0  0  0  0  0
   -9.1358    6.9915  -12.3204 C   0  0  0  0  0  0  0  0  0  0  0  0
   -8.8951    4.1895  -11.5306 C   0  0  0  0  0  0  0  0  0  0  0  0
   -9.7257    6.4681  -11.0145 C   0  0  0  0  0  0  0  0  0  0  0  0
   -9.0584    5.9136  -13.4279 C   0  0  0  0  0  0  0  0  0  0  0  0
  -10.1327    3.5725   -7.8784 C   0  0  0  0  0  0  0  0  0  0  0  0
   -8.4473    1.7397   -8.2096 C   0  0  0  0  0  0  0  0  0  0  0  0
   -7.9838    3.5835   -6.5682 C   0  0  0  0  0  0  0  0  0  0  0  0
   -8.6457    3.2213   -7.8970 C   0  0  0  0  0  0  0  0  0  0  0  0
   -9.0121    5.2777  -10.5554 N   0  0  0  0  0  0  0  0  0  0  0  0
  -11.3019    3.9233  -15.4520 O   0  0  0  0  0  0  0  0  0  0  0  0
   -8.6629    6.0961   -8.4071 O   0  0  0  0  0  0  0  0  0  0  0  0
   -8.2699    6.5089  -14.4797 O   0  0  0  0  0  0  0  0  0  0  0  0
   -8.0133    3.9710   -8.9408 O   0  0  0  0  0  0  0  0  0  0  0  0
   -8.0586    3.9616  -19.3486 F   0  0  0  0  0  0  0  0  0  0  0  0
   -6.4424    6.8295  -16.2606 H   0  0  0  0  0  0  0  0  0  0  0  0
   -6.3181    5.6961  -18.4546 H   0  0  0  0  0  0  0  0  0  0  0  0
   -9.9682    3.6066  -17.6214 H   0  0  0  0  0  0  0  0  0  0  0  0
  -11.0102    6.4997  -14.2127 H   0  0  0  0  0  0  0  0  0  0  0  0
  -11.0462    5.0635  -13.1628 H   0  0  0  0  0  0  0  0  0  0  0  0
   -7.2449    4.9281  -12.6699 H   0  0  0  0  0  0  0  0  0  0  0  0
   -8.3144    3.8657  -13.5808 H   0  0  0  0  0  0  0  0  0  0  0  0
   -9.7355    7.8474  -12.6688 H   0  0  0  0  0  0  0  0  0  0  0  0
   -8.1266    7.3769  -12.1067 H   0  0  0  0  0  0  0  0  0  0  0  0
   -9.8740    3.7336  -11.7138 H   0  0  0  0  0  0  0  0  0  0  0  0
   -8.2577    3.4174  -11.0829 H   0  0  0  0  0  0  0  0  0  0  0  0
   -9.6453    7.2213  -10.2199 H   0  0  0  0  0  0  0  0  0  0  0  0
  -10.7928    6.2652  -11.1535 H   0  0  0  0  0  0  0  0  0  0  0  0
  -10.2793    4.6352   -7.6544 H   0  0  0  0  0  0  0  0  0  0  0  0
  -10.6117    3.3500   -8.8375 H   0  0  0  0  0  0  0  0  0  0  0  0
  -10.6562    3.0159   -7.0927 H   0  0  0  0  0  0  0  0  0  0  0  0
   -7.3818    1.4833   -8.2239 H   0  0  0  0  0  0  0  0  0  0  0  0
   -8.8370    1.4951   -9.2043 H   0  0  0  0  0  0  0  0  0  0  0  0
   -8.9478    1.1012   -7.4745 H   0  0  0  0  0  0  0  0  0  0  0  0
   -6.9171    3.3316   -6.5813 H   0  0  0  0  0  0  0  0  0  0  0  0
   -8.0842    4.6506   -6.3453 H   0  0  0  0  0  0  0  0  0  0  0  0
   -8.4263    3.0124   -5.7440 H   0  0  0  0  0  0  0  0  0  0  0  0
  1  2  1  0  0  0  0
  1  5  2  0  0  0  0
  2  6  2  0  0  0  0
  3  4  2  0  0  0  0
  3  6  1  0  0  0  0
  4  5  1  0  0  0  0
  4  7  1  0  0  0  0
  5 22  1  0  0  0  0
  6 24  1  0  0  0  0
  7  9  1  0  0  0  0
  7 20  2  0  0  0  0
  8 19  1  0  0  0  0
  8 21  2  0  0  0  0
  8 23  1  0  0  0  0
  9 14  1  0  0  0  0
 10 12  1  0  0  0  0
 10 14  1  0  0  0  0
 11 13  1  0  0  0  0
 11 14  1  0  0  0  0
 12 19  1  0  0  0  0
 13 19  1  0  0  0  0
 14 22  1  0  0  0  0
 15 18  1  0  0  0  0
 16 18  1  0  0  0  0
 17 18  1  0  0  0  0
 18 23  1  0  0  0  0
  1 25  1  0  0  0  0
  2 26  1  0  0  0  0
  3 27  1  0  0  0  0
  9 28  1  0  0  0  0
  9 29  1  0  0  0  0
 10 30  1  0  0  0  0
 10 31  1  0  0  0  0
 11 32  1  0  0  0  0
 11 33  1  0  0  0  0
 12 34  1  0  0  0  0
 12 35  1  0  0  0  0
 13 36  1  0  0  0  0
 13 37  1  0  0  0  0
 15 38  1  0  0  0  0
 15 39  1  0  0  0  0
 15 40  1  0  0  0  0
 16 41  1  0  0  0  0
 16 42  1  0  0  0  0
 16 43  1  0  0  0  0
 17 44  1  0  0  0  0
 17 45  1  0  0  0  0
 17 46  1  0  0  0  0
M  END
> <id>
EN300-338179

> <smiles>
CC(C)(C)OC(=O)N1CCC2(CC1)CC(=O)C=3C=C(F)C=CC3O2

> <MDLNUMBER>
MFCD04037213

> <IUPAC Name>
tert-butyl 6-fluoro-4-oxo-3,4-dihydrospiro[1-benzopyran-2,4'-piperidine]-1'-carboxylate

> <CAS>
721958-63-0

> <URL>
https://www.enaminestore.com/catalog/EN300-338179

> <ROCS_ShapeQuery>
_x0404_0B

> <ROCS_TanimotoCombo>
0.424 

> <ROCS_ShapeTanimoto>
0.362 

> <ROCS_ColorTanimoto>
0.062 

> <ROCS_RefTversky>
0.321 

> <ROCS_RefColorTversky>
0.067 

> <ROCS_RefTverskyCombo>
0.388 

> <ROCS_FitTversky>
1.547 

> <ROCS_FitColorTversky>
0.461 

> <ROCS_FitTverskyCombo>
2.008 

> <ROCS_ColorScore>
-4.812

> <ROCS_Overlap>
2143.821

> <ROCS_Rank>
30                  

$$$$
untitled-dbase-26041_7
  -OEChem-08212314543D

 64 66  0     1  0  0  0  0  0999 V2000
   -4.7598    2.2630   -9.9845 C   0  0  0  0  0  0  0  0  0  0  0  0
   -5.0644    1.6834  -11.2164 C   0  0  0  0  0  0  0  0  0  0  0  0
   -5.7468    2.9261   -9.2556 C   0  0  0  0  0  0  0  0  0  0  0  0
   -7.3606    2.4492  -11.0111 C   0  0  0  0  0  0  0  0  0  0  0  0
   -6.3611    1.7866  -11.7301 C   0  0  0  0  0  0  0  0  0  0  0  0
   -7.0394    3.0107   -9.7739 C   0  0  0  0  0  0  0  0  0  0  0  0
   -7.9651    6.8017  -11.4181 C   0  0  0  0  0  0  0  0  0  0  0  0
   -8.6154    6.2983  -12.4785 C   0  0  0  0  0  0  0  0  0  0  0  0
   -6.6613    1.1369  -13.0218 C   0  0  0  0  0  0  0  0  0  0  0  0
   -8.4797    4.4469  -17.2279 C   0  0  0  0  0  0  0  0  0  0  0  0
   -7.8019    6.1579  -10.0684 C   0  0  0  0  0  0  0  0  0  0  0  0
   -8.7792    7.0263  -13.7753 C   0  0  0  0  0  0  0  0  0  0  0  0
   -8.0084    6.5636  -18.5610 C   0  0  0  0  0  0  0  0  0  0  0  0
   -6.3014    5.7392  -16.9053 C   0  0  0  0  0  0  0  0  0  0  0  0
   -7.1327    5.9849  -19.6763 C   0  0  0  0  0  0  0  0  0  0  0  0
   -5.5212    5.1586  -18.0854 C   0  0  0  0  0  0  0  0  0  0  0  0
   -8.8209    2.3771  -15.8528 C   0  0  0  0  0  0  0  0  0  0  0  0
   -8.5213    6.7071  -16.1079 C   0  0  0  0  0  0  0  0  0  0  0  0
   -7.7385    1.4689  -15.2550 C   0  0  1  0  0  0  0  0  0  0  0  0
   -7.8176    5.8528  -17.1954 C   0  0  0  0  0  0  0  0  0  0  0  0
   -6.5175    1.3722  -16.1729 C   0  0  0  0  0  0  0  0  0  0  0  0
  -10.1446    5.6746   -9.4143 C   0  0  0  0  0  0  0  0  0  0  0  0
   -7.3551    1.9284  -13.9205 N   0  0  0  0  0  0  0  0  0  0  0  0
   -8.3466    3.7377  -16.0446 N   0  0  0  0  0  0  0  0  0  0  0  0
   -5.7233    5.9524  -19.2947 N   0  0  0  0  0  0  0  0  0  0  0  0
   -8.8258    5.0901   -9.8122 N   0  0  2  0  0  0  0  0  0  0  0  0
   -6.2724   -0.0097  -13.2186 O   0  0  0  0  0  0  0  0  0  0  0  0
   -9.0655    4.0136  -18.2195 O   0  0  0  0  0  0  0  0  0  0  0  0
   -9.3925    2.7752   -8.7494 O   0  0  0  0  0  0  0  0  0  0  0  0
   -7.7396    4.2837   -7.5993 O   0  0  0  0  0  0  0  0  0  0  0  0
   -8.1812    6.2413  -14.8013 O   0  0  0  0  0  0  0  0  0  0  0  0
   -8.3258    3.7568   -8.8176 S   0  0  0  0  0  0  0  0  0  0  0  0
   -3.7472    2.2090   -9.5968 H   0  0  0  0  0  0  0  0  0  0  0  0
   -4.2730    1.1803  -11.7603 H   0  0  0  0  0  0  0  0  0  0  0  0
   -5.4861    3.3705   -8.2989 H   0  0  0  0  0  0  0  0  0  0  0  0
   -8.3628    2.5406  -11.4111 H   0  0  0  0  0  0  0  0  0  0  0  0
   -7.4796    7.7931  -11.5372 H   0  0  0  0  0  0  0  0  0  0  0  0
   -9.0369    5.2955  -12.4175 H   0  0  0  0  0  0  0  0  0  0  0  0
   -6.7766    5.7413   -9.9497 H   0  0  0  0  0  0  0  0  0  0  0  0
   -7.8672    6.9443   -9.2835 H   0  0  0  0  0  0  0  0  0  0  0  0
   -9.8323    7.1967  -14.0113 H   0  0  0  0  0  0  0  0  0  0  0  0
   -8.2585    7.9845  -13.7020 H   0  0  0  0  0  0  0  0  0  0  0  0
   -7.8025    7.6386  -18.4756 H   0  0  0  0  0  0  0  0  0  0  0  0
   -9.0601    6.4763  -18.8695 H   0  0  0  0  0  0  0  0  0  0  0  0
   -6.1431    5.0880  -16.0339 H   0  0  0  0  0  0  0  0  0  0  0  0
   -5.8647    6.7071  -16.6351 H   0  0  0  0  0  0  0  0  0  0  0  0
   -7.4608    4.9636  -19.8965 H   0  0  0  0  0  0  0  0  0  0  0  0
   -7.2509    6.5512  -20.6055 H   0  0  0  0  0  0  0  0  0  0  0  0
   -4.4515    5.0873  -17.8517 H   0  0  0  0  0  0  0  0  0  0  0  0
   -5.8645    4.1348  -18.2766 H   0  0  0  0  0  0  0  0  0  0  0  0
   -9.1795    1.9794  -16.8056 H   0  0  0  0  0  0  0  0  0  0  0  0
   -9.6730    2.4399  -15.1717 H   0  0  0  0  0  0  0  0  0  0  0  0
   -8.2015    7.7526  -16.2128 H   0  0  0  0  0  0  0  0  0  0  0  0
   -9.6121    6.6827  -16.2129 H   0  0  0  0  0  0  0  0  0  0  0  0
   -8.1648    0.4495  -15.1575 H   0  0  0  0  0  0  0  0  0  0  0  0
   -6.0677    2.3565  -16.2951 H   0  0  0  0  0  0  0  0  0  0  0  0
   -6.8177    0.9943  -17.1491 H   0  0  0  0  0  0  0  0  0  0  0  0
   -5.7819    0.6958  -15.7398 H   0  0  0  0  0  0  0  0  0  0  0  0
  -10.8665    4.8640   -9.2357 H   0  0  0  0  0  0  0  0  0  0  0  0
  -10.0213    6.2650   -8.4944 H   0  0  0  0  0  0  0  0  0  0  0  0
  -10.5156    6.3247  -10.2203 H   0  0  0  0  0  0  0  0  0  0  0  0
   -7.6317    2.8697  -13.6634 H   0  0  0  0  0  0  0  0  0  0  0  0
   -7.8869    4.1996  -15.2589 H   0  0  0  0  0  0  0  0  0  0  0  0
   -5.1835    5.5406  -20.0559 H   0  0  0  0  0  0  0  0  0  0  0  0
  1  2  1  0  0  0  0
  1  3  2  0  0  0  0
  2  5  2  0  0  0  0
  3  6  1  0  0  0  0
  4  5  1  0  0  0  0
  4  6  2  0  0  0  0
  5  9  1  0  0  0  0
  6 32  1  0  0  0  0
  7  8  2  3  0  0  0
  7 11  1  0  0  0  0
  8 12  1  0  0  0  0
  9 23  1  0  0  0  0
  9 27  2  0  0  0  0
 10 20  1  0  0  0  0
 10 24  1  0  0  0  0
 10 28  2  0  0  0  0
 11 26  1  0  0  0  0
 12 31  1  0  0  0  0
 13 15  1  0  0  0  0
 13 20  1  0  0  0  0
 14 16  1  0  0  0  0
 14 20  1  0  0  0  0
 15 25  1  0  0  0  0
 16 25  1  0  0  0  0
 17 19  1  0  0  0  0
 17 24  1  0  0  0  0
 18 20  1  0  0  0  0
 18 31  1  0  0  0  0
 19 21  1  6  0  0  0
 19 23  1  0  0  0  0
 22 26  1  0  0  0  0
 26 32  1  0  0  0  0
 29 32  2  0  0  0  0
 30 32  2  0  0  0  0
  1 33  1  0  0  0  0
  2 34  1  0  0  0  0
  3 35  1  0  0  0  0
  4 36  1  0  0  0  0
  7 37  1  0  0  0  0
  8 38  1  0  0  0  0
 11 39  1  0  0  0  0
 11 40  1  0  0  0  0
 12 41  1  0  0  0  0
 12 42  1  0  0  0  0
 13 43  1  0  0  0  0
 13 44  1  0  0  0  0
 14 45  1  0  0  0  0
 14 46  1  0  0  0  0
 15 47  1  0  0  0  0
 15 48  1  0  0  0  0
 16 49  1  0  0  0  0
 16 50  1  0  0  0  0
 17 51  1  0  0  0  0
 17 52  1  0  0  0  0
 18 53  1  0  0  0  0
 18 54  1  0  0  0  0
 19 55  1  0  0  0  0
 21 56  1  0  0  0  0
 21 57  1  0  0  0  0
 21 58  1  0  0  0  0
 22 59  1  0  0  0  0
 22 60  1  0  0  0  0
 22 61  1  0  0  0  0
 23 62  1  0  0  0  0
 24 63  1  0  0  0  0
 25 64  1  0  0  0  0
M  END
> <id>
EN300-6733326

> <smiles>
C[C@@H]1CNC(=O)C2(CCNCC2)COCC=CCN(C)S(=O)(=O)C=3C=CC=C(C3)C(=O)N1.OC(=O)C(F)(F)F

> <IUPAC Name>
(4R)-4,15-dimethyl-10-oxa-16lambda6-thia-3,6,15-triazaspiro[bicyclo[15.3.1]henicosane-8,4'-piperidine]-1(20),12,17(21),18-tetraene-2,7,16,16-tetrone; trifluoroacetic acid

> <CAS>
2648861-66-7

> <URL>
https://www.enaminestore.com/catalog/EN300-6733326

> <Saltdate>
OC(=O)C(F)(F)F

> <ROCS_ShapeQuery>
_x0404_0B

> <ROCS_TanimotoCombo>
0.423 

> <ROCS_ShapeTanimoto>
0.343 

> <ROCS_ColorTanimoto>
0.080 

> <ROCS_RefTversky>
0.318 

> <ROCS_RefColorTversky>
0.089 

> <ROCS_RefTverskyCombo>
0.407 

> <ROCS_FitTversky>
1.285 

> <ROCS_FitColorTversky>
0.451 

> <ROCS_FitTverskyCombo>
1.736 

> <ROCS_ColorScore>
-6.418

> <ROCS_Overlap>
2131.969

> <ROCS_Rank>
31                  

$$$$
untitled-dbase-24291_1
  -OEChem-08212314543D

 35 39  0     0  0  0  0  0  0999 V2000
   -9.0376    3.4434   -7.0135 C   0  0  0  0  0  0  0  0  0  0  0  0
   -8.2015    5.7413  -17.7342 C   0  0  0  0  0  0  0  0  0  0  0  0
   -8.2485    4.3646  -17.5259 C   0  0  0  0  0  0  0  0  0  0  0  0
   -9.2830    2.1785   -7.5435 C   0  0  0  0  0  0  0  0  0  0  0  0
   -8.8268    4.5431   -7.8530 C   0  0  0  0  0  0  0  0  0  0  0  0
   -8.3111    6.6146  -16.6533 C   0  0  0  0  0  0  0  0  0  0  0  0
   -8.4050    3.8580  -16.2348 C   0  0  0  0  0  0  0  0  0  0  0  0
   -9.3240    1.9718   -8.9252 C   0  0  0  0  0  0  0  0  0  0  0  0
   -8.8667    4.3608   -9.2498 C   0  0  0  0  0  0  0  0  0  0  0  0
   -8.4669    6.1022  -15.3604 C   0  0  0  0  0  0  0  0  0  0  0  0
   -8.7020    5.2158  -10.3722 C   0  0  0  0  0  0  0  0  0  0  0  0
   -8.5161    4.7217  -15.1389 C   0  0  0  0  0  0  0  0  0  0  0  0
   -9.1120    3.0796   -9.7537 C   0  0  0  0  0  0  0  0  0  0  0  0
   -8.8540    4.4581  -11.5148 C   0  0  0  0  0  0  0  0  0  0  0  0
   -8.5977    7.0170  -14.2049 C   0  0  0  0  0  0  0  0  0  0  0  0
   -8.7464    4.9835  -12.8517 C   0  0  0  0  0  0  0  0  0  0  0  0
   -8.3945    6.6650  -10.4624 C   0  0  0  0  0  0  0  0  0  0  0  0
   -8.9654    7.2317  -11.7704 C   0  0  0  0  0  0  0  0  0  0  0  0
   -8.6651    4.1714  -13.8573 N   0  0  0  0  0  0  0  0  0  0  0  0
   -9.0898    3.1661  -11.1294 N   0  0  0  0  0  0  0  0  0  0  0  0
   -8.7117    6.3860  -12.9603 N   0  0  0  0  0  0  0  0  0  0  0  0
   -8.6207    8.2300  -14.3915 O   0  0  0  0  0  0  0  0  0  0  0  0
   -9.0091    3.5792   -5.9356 H   0  0  0  0  0  0  0  0  0  0  0  0
   -8.0785    6.1341  -18.7393 H   0  0  0  0  0  0  0  0  0  0  0  0
   -8.1628    3.6846  -18.3685 H   0  0  0  0  0  0  0  0  0  0  0  0
   -9.4468    1.3389   -6.8730 H   0  0  0  0  0  0  0  0  0  0  0  0
   -8.6333    5.5225   -7.4247 H   0  0  0  0  0  0  0  0  0  0  0  0
   -8.2734    7.6847  -16.8368 H   0  0  0  0  0  0  0  0  0  0  0  0
   -8.4403    2.7810  -16.0883 H   0  0  0  0  0  0  0  0  0  0  0  0
   -9.5157    0.9864   -9.3366 H   0  0  0  0  0  0  0  0  0  0  0  0
   -8.8425    7.1841   -9.6069 H   0  0  0  0  0  0  0  0  0  0  0  0
   -7.3133    6.8369  -10.4285 H   0  0  0  0  0  0  0  0  0  0  0  0
  -10.0400    7.4135  -11.6595 H   0  0  0  0  0  0  0  0  0  0  0  0
   -8.4958    8.2003  -11.9870 H   0  0  0  0  0  0  0  0  0  0  0  0
   -9.2216    2.3865  -11.7591 H   0  0  0  0  0  0  0  0  0  0  0  0
  1  4  2  0  0  0  0
  1  5  1  0  0  0  0
  2  3  2  0  0  0  0
  2  6  1  0  0  0  0
  3  7  1  0  0  0  0
  4  8  1  0  0  0  0
  5  9  2  0  0  0  0
  6 10  2  0  0  0  0
  7 12  2  0  0  0  0
  8 13  2  0  0  0  0
  9 11  1  0  0  0  0
  9 13  1  0  0  0  0
 10 12  1  0  0  0  0
 10 15  1  0  0  0  0
 11 14  2  0  0  0  0
 11 17  1  0  0  0  0
 12 19  1  0  0  0  0
 13 20  1  0  0  0  0
 14 16  1  0  0  0  0
 14 20  1  0  0  0  0
 15 21  1  0  0  0  0
 15 22  2  0  0  0  0
 16 19  2  0  0  0  0
 16 21  1  0  0  0  0
 17 18  1  0  0  0  0
 18 21  1  0  0  0  0
  1 23  1  0  0  0  0
  2 24  1  0  0  0  0
  3 25  1  0  0  0  0
  4 26  1  0  0  0  0
  5 27  1  0  0  0  0
  6 28  1  0  0  0  0
  7 29  1  0  0  0  0
  8 30  1  0  0  0  0
 17 31  1  0  0  0  0
 17 32  1  0  0  0  0
 18 33  1  0  0  0  0
 18 34  1  0  0  0  0
 20 35  1  0  0  0  0
M  END
> <id>
EN300-302963

> <smiles>
O=C1N2CCC3=C(NC=4C=CC=CC34)C2=NC=5C=CC=CC15

> <MDLNUMBER>
MFCD00210551

> <IUPAC Name>
3,13,21-triazapentacyclo[11.8.0.0^{2,10}.0^{4,9}.0^{15,20}]henicosa-1(21),2(10),4(9),5,7,15(20),16,18-octaen-14-one

> <CAS>
84-26-4

> <Purity>
95

> <URL>
https://www.enaminestore.com/catalog/EN300-302963

> <ROCS_ShapeQuery>
_x0404_0B

> <ROCS_TanimotoCombo>
0.423 

> <ROCS_ShapeTanimoto>
0.360 

> <ROCS_ColorTanimoto>
0.063 

> <ROCS_RefTversky>
0.318 

> <ROCS_RefColorTversky>
0.069 

> <ROCS_RefTverskyCombo>
0.387 

> <ROCS_FitTversky>
1.563 

> <ROCS_FitColorTversky>
0.435 

> <ROCS_FitTverskyCombo>
1.998 

> <ROCS_ColorScore>
-4.964

> <ROCS_Overlap>
2126.524

> <ROCS_Rank>
32                  

$$$$
untitled-dbase-48396_35
  -OEChem-08212314543D

 49 51  0     0  0  0  0  0  0999 V2000
   -7.1447    5.4865  -17.7834 C   0  0  0  0  0  0  0  0  0  0  0  0
   -7.2193    6.1263  -16.5458 C   0  0  0  0  0  0  0  0  0  0  0  0
   -9.1987    4.3058  -17.3036 C   0  0  0  0  0  0  0  0  0  0  0  0
   -9.2711    4.9514  -16.0663 C   0  0  0  0  0  0  0  0  0  0  0  0
   -8.1303    4.5743  -18.1594 C   0  0  0  0  0  0  0  0  0  0  0  0
   -8.2767    5.8488  -15.6773 C   0  0  0  0  0  0  0  0  0  0  0  0
  -10.4168    4.7212  -15.1694 C   0  0  0  0  0  0  0  0  0  0  0  0
   -8.5676    5.1898   -9.2314 C   0  0  0  0  0  0  0  0  0  0  0  0
  -10.4711    5.5824  -13.9353 C   0  0  0  0  0  0  0  0  0  0  0  0
   -8.3032    4.6906  -12.8471 C   0  0  0  0  0  0  0  0  0  0  0  0
   -9.1372    6.9909  -12.3205 C   0  0  0  0  0  0  0  0  0  0  0  0
   -8.8922    4.1895  -11.5299 C   0  0  0  0  0  0  0  0  0  0  0  0
   -9.7263    6.4669  -11.0145 C   0  0  0  0  0  0  0  0  0  0  0  0
   -9.0581    5.9128  -13.4277 C   0  0  0  0  0  0  0  0  0  0  0  0
   -8.0457    3.8909  -19.4827 C   0  0  0  0  0  0  0  0  0  0  0  0
  -10.1288    3.5715   -7.8776 C   0  0  0  0  0  0  0  0  0  0  0  0
   -8.4406    1.7412   -8.2083 C   0  0  0  0  0  0  0  0  0  0  0  0
   -7.9800    3.5861   -6.5674 C   0  0  0  0  0  0  0  0  0  0  0  0
   -8.6413    3.2226   -7.8960 C   0  0  0  0  0  0  0  0  0  0  0  0
   -9.0109    5.2777  -10.5550 N   0  0  0  0  0  0  0  0  0  0  0  0
  -11.2984    3.9184  -15.4514 O   0  0  0  0  0  0  0  0  0  0  0  0
   -8.6630    6.0972   -8.4069 O   0  0  0  0  0  0  0  0  0  0  0  0
   -8.2705    6.5091  -14.4796 O   0  0  0  0  0  0  0  0  0  0  0  0
   -8.0101    3.9730   -8.9400 O   0  0  0  0  0  0  0  0  0  0  0  0
   -6.3127    5.7042  -18.4480 H   0  0  0  0  0  0  0  0  0  0  0  0
   -6.4437    6.8325  -16.2611 H   0  0  0  0  0  0  0  0  0  0  0  0
   -9.9693    3.6041  -17.6125 H   0  0  0  0  0  0  0  0  0  0  0  0
  -11.0111    6.4954  -14.2129 H   0  0  0  0  0  0  0  0  0  0  0  0
  -11.0447    5.0601  -13.1621 H   0  0  0  0  0  0  0  0  0  0  0  0
   -7.2429    4.9300  -12.6700 H   0  0  0  0  0  0  0  0  0  0  0  0
   -8.3115    3.8660  -13.5799 H   0  0  0  0  0  0  0  0  0  0  0  0
   -9.7389    7.8453  -12.6694 H   0  0  0  0  0  0  0  0  0  0  0  0
   -8.1286    7.3782  -12.1079 H   0  0  0  0  0  0  0  0  0  0  0  0
   -9.8701    3.7317  -11.7130 H   0  0  0  0  0  0  0  0  0  0  0  0
   -8.2531    3.4189  -11.0819 H   0  0  0  0  0  0  0  0  0  0  0  0
   -9.6476    7.2203  -10.2199 H   0  0  0  0  0  0  0  0  0  0  0  0
  -10.7932    6.2625  -11.1536 H   0  0  0  0  0  0  0  0  0  0  0  0
   -7.4822    2.9543  -19.3931 H   0  0  0  0  0  0  0  0  0  0  0  0
   -9.0440    3.6605  -19.8763 H   0  0  0  0  0  0  0  0  0  0  0  0
   -7.5492    4.5262  -20.2276 H   0  0  0  0  0  0  0  0  0  0  0  0
  -10.2772    4.6340   -7.6539 H   0  0  0  0  0  0  0  0  0  0  0  0
  -10.6075    3.3480   -8.8367 H   0  0  0  0  0  0  0  0  0  0  0  0
  -10.6515    3.0142   -7.0918 H   0  0  0  0  0  0  0  0  0  0  0  0
   -7.3747    1.4865   -8.2225 H   0  0  0  0  0  0  0  0  0  0  0  0
   -8.8299    1.4958   -9.2029 H   0  0  0  0  0  0  0  0  0  0  0  0
   -8.9400    1.1021   -7.4730 H   0  0  0  0  0  0  0  0  0  0  0  0
   -6.9130    3.3360   -6.5803 H   0  0  0  0  0  0  0  0  0  0  0  0
   -8.0821    4.6532   -6.3447 H   0  0  0  0  0  0  0  0  0  0  0  0
   -8.4216    3.0145   -5.7431 H   0  0  0  0  0  0  0  0  0  0  0  0
  1  2  1  0  0  0  0
  1  5  2  0  0  0  0
  2  6  2  0  0  0  0
  3  4  2  0  0  0  0
  3  5  1  0  0  0  0
  4  6  1  0  0  0  0
  4  7  1  0  0  0  0
  5 15  1  0  0  0  0
  6 23  1  0  0  0  0
  7  9  1  0  0  0  0
  7 21  2  0  0  0  0
  8 20  1  0  0  0  0
  8 22  2  0  0  0  0
  8 24  1  0  0  0  0
  9 14  1  0  0  0  0
 10 12  1  0  0  0  0
 10 14  1  0  0  0  0
 11 13  1  0  0  0  0
 11 14  1  0  0  0  0
 12 20  1  0  0  0  0
 13 20  1  0  0  0  0
 14 23  1  0  0  0  0
 16 19  1  0  0  0  0
 17 19  1  0  0  0  0
 18 19  1  0  0  0  0
 19 24  1  0  0  0  0
  1 25  1  0  0  0  0
  2 26  1  0  0  0  0
  3 27  1  0  0  0  0
  9 28  1  0  0  0  0
  9 29  1  0  0  0  0
 10 30  1  0  0  0  0
 10 31  1  0  0  0  0
 11 32  1  0  0  0  0
 11 33  1  0  0  0  0
 12 34  1  0  0  0  0
 12 35  1  0  0  0  0
 13 36  1  0  0  0  0
 13 37  1  0  0  0  0
 15 38  1  0  0  0  0
 15 39  1  0  0  0  0
 15 40  1  0  0  0  0
 16 41  1  0  0  0  0
 16 42  1  0  0  0  0
 16 43  1  0  0  0  0
 17 44  1  0  0  0  0
 17 45  1  0  0  0  0
 17 46  1  0  0  0  0
 18 47  1  0  0  0  0
 18 48  1  0  0  0  0
 18 49  1  0  0  0  0
M  END
> <id>
EN300-338197

> <smiles>
CC=1C=CC=2OC3(CCN(CC3)C(=O)OC(C)(C)C)CC(=O)C2C1

> <MDLNUMBER>
MFCD11840351

> <IUPAC Name>
tert-butyl 6-methyl-4-oxo-3,4-dihydrospiro[1-benzopyran-2,4'-piperidine]-1'-carboxylate

> <CAS>
958575-85-4

> <URL>
https://www.enaminestore.com/catalog/EN300-338197

> <ROCS_ShapeQuery>
_x0404_0B

> <ROCS_TanimotoCombo>
0.422 

> <ROCS_ShapeTanimoto>
0.360 

> <ROCS_ColorTanimoto>
0.062 

> <ROCS_RefTversky>
0.320 

> <ROCS_RefColorTversky>
0.067 

> <ROCS_RefTverskyCombo>
0.386 

> <ROCS_FitTversky>
1.546 

> <ROCS_FitColorTversky>
0.461 

> <ROCS_FitTverskyCombo>
2.007 

> <ROCS_ColorScore>
-4.813

> <ROCS_Overlap>
2134.949

> <ROCS_Rank>
33                  

$$$$
untitled-dbase-52567_33
  -OEChem-08212314543D

 47 49  0     0  0  0  0  0  0999 V2000
   -8.0507    3.9222  -19.4268 C   0  0  0  0  0  0  0  0  0  0  0  0
   -7.1451    5.4874  -17.7822 C   0  0  0  0  0  0  0  0  0  0  0  0
   -7.2193    6.1269  -16.5444 C   0  0  0  0  0  0  0  0  0  0  0  0
   -9.2000    4.3082  -17.3029 C   0  0  0  0  0  0  0  0  0  0  0  0
   -8.1315    4.5761  -18.1585 C   0  0  0  0  0  0  0  0  0  0  0  0
   -9.2720    4.9535  -16.0654 C   0  0  0  0  0  0  0  0  0  0  0  0
   -8.2769    5.8500  -15.6761 C   0  0  0  0  0  0  0  0  0  0  0  0
  -10.4179    4.7239  -15.1686 C   0  0  0  0  0  0  0  0  0  0  0  0
   -8.5685    5.1892   -9.2303 C   0  0  0  0  0  0  0  0  0  0  0  0
  -10.4715    5.5848  -13.9342 C   0  0  0  0  0  0  0  0  0  0  0  0
   -8.3044    4.6909  -12.8462 C   0  0  0  0  0  0  0  0  0  0  0  0
   -9.1366    6.9917  -12.3189 C   0  0  0  0  0  0  0  0  0  0  0  0
   -8.8938    4.1899  -11.5292 C   0  0  0  0  0  0  0  0  0  0  0  0
   -9.7261    6.4677  -11.0131 C   0  0  0  0  0  0  0  0  0  0  0  0
   -9.0582    5.9139  -13.4265 C   0  0  0  0  0  0  0  0  0  0  0  0
  -10.1310    3.5717   -7.8772 C   0  0  0  0  0  0  0  0  0  0  0  0
   -8.4442    1.7402   -8.2083 C   0  0  0  0  0  0  0  0  0  0  0  0
   -7.9822    3.5843   -6.5669 C   0  0  0  0  0  0  0  0  0  0  0  0
   -8.6438    3.2217   -7.8956 C   0  0  0  0  0  0  0  0  0  0  0  0
   -7.9851    3.3912  -20.4566 N   0  0  0  0  0  0  0  0  0  0  0  0
   -9.0117    5.2779  -10.5539 N   0  0  0  0  0  0  0  0  0  0  0  0
  -11.3001    3.9219  -15.4508 O   0  0  0  0  0  0  0  0  0  0  0  0
   -8.6632    6.0965   -8.4056 O   0  0  0  0  0  0  0  0  0  0  0  0
   -8.2702    6.5099  -14.4782 O   0  0  0  0  0  0  0  0  0  0  0  0
   -8.0119    3.9719   -8.9394 O   0  0  0  0  0  0  0  0  0  0  0  0
   -6.3100    5.7093  -18.4426 H   0  0  0  0  0  0  0  0  0  0  0  0
   -6.4429    6.8321  -16.2592 H   0  0  0  0  0  0  0  0  0  0  0  0
   -9.9744    3.6074  -17.6064 H   0  0  0  0  0  0  0  0  0  0  0  0
  -11.0107    6.4985  -14.2113 H   0  0  0  0  0  0  0  0  0  0  0  0
  -11.0457    5.0625  -13.1615 H   0  0  0  0  0  0  0  0  0  0  0  0
   -7.2439    4.9294  -12.6689 H   0  0  0  0  0  0  0  0  0  0  0  0
   -8.3133    3.8666  -13.5793 H   0  0  0  0  0  0  0  0  0  0  0  0
   -9.7377    7.8466  -12.6676 H   0  0  0  0  0  0  0  0  0  0  0  0
   -8.1277    7.3782  -12.1056 H   0  0  0  0  0  0  0  0  0  0  0  0
   -9.8721    3.7331  -11.7125 H   0  0  0  0  0  0  0  0  0  0  0  0
   -8.2553    3.4187  -11.0815 H   0  0  0  0  0  0  0  0  0  0  0  0
   -9.6470    7.2210  -10.2184 H   0  0  0  0  0  0  0  0  0  0  0  0
  -10.7932    6.2643  -11.1521 H   0  0  0  0  0  0  0  0  0  0  0  0
  -10.2785    4.6343   -7.6531 H   0  0  0  0  0  0  0  0  0  0  0  0
  -10.6098    3.3489   -8.8363 H   0  0  0  0  0  0  0  0  0  0  0  0
  -10.6541    3.0146   -7.0915 H   0  0  0  0  0  0  0  0  0  0  0  0
   -7.3785    1.4846   -8.2226 H   0  0  0  0  0  0  0  0  0  0  0  0
   -8.8337    1.4954   -9.2031 H   0  0  0  0  0  0  0  0  0  0  0  0
   -8.9442    1.1013   -7.4733 H   0  0  0  0  0  0  0  0  0  0  0  0
   -6.9153    3.3333   -6.5798 H   0  0  0  0  0  0  0  0  0  0  0  0
   -8.0834    4.6513   -6.3438 H   0  0  0  0  0  0  0  0  0  0  0  0
   -8.4242    3.0128   -5.7427 H   0  0  0  0  0  0  0  0  0  0  0  0
  1  5  1  0  0  0  0
  1 20  3  0  0  0  0
  2  3  1  0  0  0  0
  2  5  2  0  0  0  0
  3  7  2  0  0  0  0
  4  5  1  0  0  0  0
  4  6  2  0  0  0  0
  6  7  1  0  0  0  0
  6  8  1  0  0  0  0
  7 24  1  0  0  0  0
  8 10  1  0  0  0  0
  8 22  2  0  0  0  0
  9 21  1  0  0  0  0
  9 23  2  0  0  0  0
  9 25  1  0  0  0  0
 10 15  1  0  0  0  0
 11 13  1  0  0  0  0
 11 15  1  0  0  0  0
 12 14  1  0  0  0  0
 12 15  1  0  0  0  0
 13 21  1  0  0  0  0
 14 21  1  0  0  0  0
 15 24  1  0  0  0  0
 16 19  1  0  0  0  0
 17 19  1  0  0  0  0
 18 19  1  0  0  0  0
 19 25  1  0  0  0  0
  2 26  1  0  0  0  0
  3 27  1  0  0  0  0
  4 28  1  0  0  0  0
 10 29  1  0  0  0  0
 10 30  1  0  0  0  0
 11 31  1  0  0  0  0
 11 32  1  0  0  0  0
 12 33  1  0  0  0  0
 12 34  1  0  0  0  0
 13 35  1  0  0  0  0
 13 36  1  0  0  0  0
 14 37  1  0  0  0  0
 14 38  1  0  0  0  0
 16 39  1  0  0  0  0
 16 40  1  0  0  0  0
 16 41  1  0  0  0  0
 17 42  1  0  0  0  0
 17 43  1  0  0  0  0
 17 44  1  0  0  0  0
 18 45  1  0  0  0  0
 18 46  1  0  0  0  0
 18 47  1  0  0  0  0
M  END
> <id>
EN300-18742275

> <smiles>
CC(C)(C)OC(=O)N1CCC2(CC1)CC(=O)C=3C=C(C#N)C=CC3O2

> <MDLNUMBER>
MFCD11227140

> <IUPAC Name>
tert-butyl 6-cyano-4-oxo-3,4-dihydrospiro[1-benzopyran-2,4'-piperidine]-1'-carboxylate

> <CAS>
921760-47-6

> <Purity>
95

> <URL>
https://www.enaminestore.com/catalog/EN300-18742275

> <ROCS_ShapeQuery>
_x0404_0B

> <ROCS_TanimotoCombo>
0.422 

> <ROCS_ShapeTanimoto>
0.361 

> <ROCS_ColorTanimoto>
0.061 

> <ROCS_RefTversky>
0.322 

> <ROCS_RefColorTversky>
0.067 

> <ROCS_RefTverskyCombo>
0.389 

> <ROCS_FitTversky>
1.508 

> <ROCS_FitColorTversky>
0.423 

> <ROCS_FitTverskyCombo>
1.931 

> <ROCS_ColorScore>
-4.812

> <ROCS_Overlap>
2150.931

> <ROCS_Rank>
34                  

$$$$
untitled-dbase-22802_78
  -OEChem-08212314543D

 45 47  0     0  0  0  0  0  0999 V2000
   -9.0622    1.9803   -8.4600 C   0  0  0  0  0  0  0  0  0  0  0  0
   -8.9325    2.7237   -9.6380 C   0  0  0  0  0  0  0  0  0  0  0  0
   -9.1904    2.6178   -7.2114 C   0  0  0  0  0  0  0  0  0  0  0  0
   -8.9344    4.1019   -9.5359 C   0  0  0  0  0  0  0  0  0  0  0  0
   -9.0624    4.7251   -8.2911 C   0  0  0  0  0  0  0  0  0  0  0  0
   -9.1914    4.0108   -7.1163 C   0  0  0  0  0  0  0  0  0  0  0  0
   -8.8235    5.1817  -10.5108 C   0  0  0  0  0  0  0  0  0  0  0  0
   -8.6824    5.0946  -11.8414 C   0  0  0  0  0  0  0  0  0  0  0  0
   -8.8931    6.4878   -9.7736 C   0  0  0  0  0  0  0  0  0  0  0  0
   -8.7190    4.9609  -16.1557 C   0  0  0  0  0  0  0  0  0  0  0  0
   -8.5819    6.3235  -12.7093 C   0  0  0  0  0  0  0  0  0  0  0  0
   -8.6194    3.7672  -12.5522 C   0  0  0  0  0  0  0  0  0  0  0  0
   -7.9225    6.0044  -14.0502 C   0  0  0  0  0  0  0  0  0  0  0  0
   -9.2251    3.8609  -13.9520 C   0  0  0  0  0  0  0  0  0  0  0  0
   -7.7733    4.3159  -18.7777 C   0  0  0  0  0  0  0  0  0  0  0  0
   -5.7394    5.6607  -18.1745 C   0  0  0  0  0  0  0  0  0  0  0  0
   -6.3030    3.5911  -16.8678 C   0  0  0  0  0  0  0  0  0  0  0  0
   -6.8685    4.7832  -17.6385 C   0  0  0  0  0  0  0  0  0  0  0  0
   -9.0379    6.1171   -8.4329 N   0  0  0  0  0  0  0  0  0  0  0  0
   -8.6246    4.9314  -14.7607 N   0  0  0  0  0  0  0  0  0  0  0  0
   -8.8343    7.6028  -10.2582 O   0  0  0  0  0  0  0  0  0  0  0  0
   -9.6518    4.4825  -16.7980 O   0  0  0  0  0  0  0  0  0  0  0  0
   -7.6450    5.5815  -16.7380 O   0  0  0  0  0  0  0  0  0  0  0  0
   -9.3477    4.7799   -5.5903 Cl  0  0  0  0  0  0  0  0  0  0  0  0
   -9.0641    0.8943   -8.5079 H   0  0  0  0  0  0  0  0  0  0  0  0
   -8.8342    2.2218  -10.5943 H   0  0  0  0  0  0  0  0  0  0  0  0
   -9.2889    2.0026   -6.3195 H   0  0  0  0  0  0  0  0  0  0  0  0
   -9.5932    6.7232  -12.8801 H   0  0  0  0  0  0  0  0  0  0  0  0
   -8.0126    7.1200  -12.2072 H   0  0  0  0  0  0  0  0  0  0  0  0
   -7.5836    3.4046  -12.6301 H   0  0  0  0  0  0  0  0  0  0  0  0
   -9.1684    3.0187  -11.9606 H   0  0  0  0  0  0  0  0  0  0  0  0
   -7.8685    6.9177  -14.6565 H   0  0  0  0  0  0  0  0  0  0  0  0
   -6.8868    5.6640  -13.8974 H   0  0  0  0  0  0  0  0  0  0  0  0
   -9.0726    2.9180  -14.5044 H   0  0  0  0  0  0  0  0  0  0  0  0
  -10.3144    4.0053  -13.8751 H   0  0  0  0  0  0  0  0  0  0  0  0
   -8.5851    3.6857  -18.3971 H   0  0  0  0  0  0  0  0  0  0  0  0
   -8.2130    5.1616  -19.3164 H   0  0  0  0  0  0  0  0  0  0  0  0
   -7.2151    3.7019  -19.4937 H   0  0  0  0  0  0  0  0  0  0  0  0
   -5.0877    5.9983  -17.3605 H   0  0  0  0  0  0  0  0  0  0  0  0
   -6.1388    6.5661  -18.6458 H   0  0  0  0  0  0  0  0  0  0  0  0
   -5.1280    5.1279  -18.9099 H   0  0  0  0  0  0  0  0  0  0  0  0
   -5.6540    3.9261  -16.0507 H   0  0  0  0  0  0  0  0  0  0  0  0
   -7.0991    2.9702  -16.4445 H   0  0  0  0  0  0  0  0  0  0  0  0
   -5.6822    2.9652  -17.5190 H   0  0  0  0  0  0  0  0  0  0  0  0
   -9.1151    6.7718   -7.6636 H   0  0  0  0  0  0  0  0  0  0  0  0
  1  2  2  0  0  0  0
  1  3  1  0  0  0  0
  2  4  1  0  0  0  0
  3  6  2  0  0  0  0
  4  5  2  0  0  0  0
  4  7  1  0  0  0  0
  5  6  1  0  0  0  0
  5 19  1  0  0  0  0
  6 24  1  0  0  0  0
  7  8  2  0  0  0  0
  7  9  1  0  0  0  0
  8 11  1  0  0  0  0
  8 12  1  0  0  0  0
  9 19  1  0  0  0  0
  9 21  2  0  0  0  0
 10 20  1  0  0  0  0
 10 22  2  0  0  0  0
 10 23  1  0  0  0  0
 11 13  1  0  0  0  0
 12 14  1  0  0  0  0
 13 20  1  0  0  0  0
 14 20  1  0  0  0  0
 15 18  1  0  0  0  0
 16 18  1  0  0  0  0
 17 18  1  0  0  0  0
 18 23  1  0  0  0  0
  1 25  1  0  0  0  0
  2 26  1  0  0  0  0
  3 27  1  0  0  0  0
 11 28  1  0  0  0  0
 11 29  1  0  0  0  0
 12 30  1  0  0  0  0
 12 31  1  0  0  0  0
 13 32  1  0  0  0  0
 13 33  1  0  0  0  0
 14 34  1  0  0  0  0
 14 35  1  0  0  0  0
 15 36  1  0  0  0  0
 15 37  1  0  0  0  0
 15 38  1  0  0  0  0
 16 39  1  0  0  0  0
 16 40  1  0  0  0  0
 16 41  1  0  0  0  0
 17 42  1  0  0  0  0
 17 43  1  0  0  0  0
 17 44  1  0  0  0  0
 19 45  1  0  0  0  0
M  END
> <id>
EN300-6762532

> <smiles>
CC(C)(C)OC(=O)N1CCC(=C2C(=O)NC=3C2=CC=CC3Cl)CC1

> <MDLNUMBER>
MFCD32711479

> <IUPAC Name>
tert-butyl 4-(7-chloro-2-oxo-2,3-dihydro-1H-indol-3-ylidene)piperidine-1-carboxylate

> <CAS>
2470437-84-2

> <Purity>
95

> <URL>
https://www.enaminestore.com/catalog/EN300-6762532

> <ROCS_ShapeQuery>
_x0404_0B

> <ROCS_TanimotoCombo>
0.422 

> <ROCS_ShapeTanimoto>
0.385 

> <ROCS_ColorTanimoto>
0.037 

> <ROCS_RefTversky>
0.336 

> <ROCS_RefColorTversky>
0.040 

> <ROCS_RefTverskyCombo>
0.376 

> <ROCS_FitTversky>
1.627 

> <ROCS_FitColorTversky>
0.280 

> <ROCS_FitTverskyCombo>
1.907 

> <ROCS_ColorScore>
-2.922

> <ROCS_Overlap>
2241.154

> <ROCS_Rank>
35                  

$$$$
untitled-dbase-44050_10
  -OEChem-08212314543D

 51 53  0     1  0  0  0  0  0999 V2000
   -9.1212    2.9424   -6.8049 C   0  0  0  0  0  0  0  0  0  0  0  0
   -8.8433    1.7550   -7.4747 C   0  0  0  0  0  0  0  0  0  0  0  0
   -9.2492    4.1366   -7.5177 C   0  0  0  0  0  0  0  0  0  0  0  0
   -8.6885    1.7587   -8.8589 C   0  0  0  0  0  0  0  0  0  0  0  0
   -9.0998    4.1600   -8.9140 C   0  0  0  0  0  0  0  0  0  0  0  0
   -8.8003    2.9561   -9.5780 C   0  0  0  0  0  0  0  0  0  0  0  0
   -7.3879    2.9156  -13.8901 C   0  0  0  0  0  0  0  0  0  0  0  0
   -7.0593    3.1427  -12.6111 C   0  0  0  0  0  0  0  0  0  0  0  0
   -9.2240    5.4944   -9.5890 C   0  0  0  0  0  0  0  0  0  0  0  0
   -8.5043    5.7452  -14.9755 C   0  0  0  0  0  0  0  0  0  0  0  0
   -6.9204    3.7596  -15.0437 C   0  0  0  0  0  0  0  0  0  0  0  0
   -7.5430    2.3017  -11.4702 C   0  0  0  0  0  0  0  0  0  0  0  0
   -9.4838    4.5671  -18.2886 C   0  0  0  0  0  0  0  0  0  0  0  0
  -10.0437    6.4421  -13.1354 C   0  0  0  0  0  0  0  0  0  0  0  0
   -7.4217    4.9985  -17.1576 C   0  0  0  0  0  0  0  0  0  0  0  0
  -10.0947    4.1334  -16.9651 C   0  0  0  0  0  0  0  0  0  0  0  0
   -9.3656    6.7028  -11.7829 C   0  0  2  0  0  0  0  0  0  0  0  0
   -8.0355    4.5242  -15.8118 C   0  0  2  0  0  0  0  0  0  0  0  0
   -7.9549    7.2701  -11.9359 C   0  0  0  0  0  0  0  0  0  0  0  0
   -9.3437    5.4908  -10.9701 N   0  0  0  0  0  0  0  0  0  0  0  0
   -9.3879    5.4308  -13.9536 N   0  0  0  0  0  0  0  0  0  0  0  0
   -8.4309    5.5580  -18.0646 N   0  0  0  0  0  0  0  0  0  0  0  0
   -9.2086    6.5181   -8.9083 O   0  0  0  0  0  0  0  0  0  0  0  0
   -8.1045    6.8859  -15.2100 O   0  0  0  0  0  0  0  0  0  0  0  0
   -8.6936    2.9599  -10.9401 O   0  0  0  0  0  0  0  0  0  0  0  0
   -9.0947    3.6071  -16.0918 O   0  0  0  0  0  0  0  0  0  0  0  0
   -9.2298    2.9443   -5.7235 H   0  0  0  0  0  0  0  0  0  0  0  0
   -8.7346    0.8301   -6.9181 H   0  0  0  0  0  0  0  0  0  0  0  0
   -9.4747    5.0522   -6.9682 H   0  0  0  0  0  0  0  0  0  0  0  0
   -8.4602    0.8223   -9.3603 H   0  0  0  0  0  0  0  0  0  0  0  0
   -8.0662    2.0935  -14.1251 H   0  0  0  0  0  0  0  0  0  0  0  0
   -6.4522    4.0108  -12.3595 H   0  0  0  0  0  0  0  0  0  0  0  0
   -6.1543    4.4834  -14.6912 H   0  0  0  0  0  0  0  0  0  0  0  0
   -6.3664    3.0842  -15.7258 H   0  0  0  0  0  0  0  0  0  0  0  0
   -7.7580    1.2840  -11.8187 H   0  0  0  0  0  0  0  0  0  0  0  0
   -6.7748    2.2566  -10.6912 H   0  0  0  0  0  0  0  0  0  0  0  0
   -9.0660    3.7004  -18.8139 H   0  0  0  0  0  0  0  0  0  0  0  0
  -10.2543    4.9986  -18.9407 H   0  0  0  0  0  0  0  0  0  0  0  0
  -11.0937    6.1631  -12.9805 H   0  0  0  0  0  0  0  0  0  0  0  0
  -10.0429    7.3641  -13.7306 H   0  0  0  0  0  0  0  0  0  0  0  0
   -6.6509    5.7602  -16.9751 H   0  0  0  0  0  0  0  0  0  0  0  0
   -6.9156    4.1702  -17.6682 H   0  0  0  0  0  0  0  0  0  0  0  0
  -10.5382    4.9994  -16.4658 H   0  0  0  0  0  0  0  0  0  0  0  0
  -10.8953    3.4024  -17.1052 H   0  0  0  0  0  0  0  0  0  0  0  0
   -9.9699    7.4451  -11.2529 H   0  0  0  0  0  0  0  0  0  0  0  0
   -7.3251    6.5543  -12.4610 H   0  0  0  0  0  0  0  0  0  0  0  0
   -7.5290    7.4678  -10.9540 H   0  0  0  0  0  0  0  0  0  0  0  0
   -7.9909    8.1983  -12.5035 H   0  0  0  0  0  0  0  0  0  0  0  0
   -9.4211    4.5878  -11.4458 H   0  0  0  0  0  0  0  0  0  0  0  0
   -9.5866    4.4566  -13.7674 H   0  0  0  0  0  0  0  0  0  0  0  0
   -7.9951    5.7958  -18.9527 H   0  0  0  0  0  0  0  0  0  0  0  0
  1  2  2  0  0  0  0
  1  3  1  0  0  0  0
  2  4  1  0  0  0  0
  3  5  2  0  0  0  0
  4  6  2  0  0  0  0
  5  6  1  0  0  0  0
  5  9  1  0  0  0  0
  6 25  1  0  0  0  0
  7  8  2  0  0  0  0
  7 11  1  0  0  0  0
  8 12  1  0  0  0  0
  9 20  1  0  0  0  0
  9 23  2  0  0  0  0
 10 18  1  0  0  0  0
 10 21  1  0  0  0  0
 10 24  2  0  0  0  0
 11 18  1  0  0  0  0
 12 25  1  0  0  0  0
 13 16  1  0  0  0  0
 13 22  1  0  0  0  0
 14 17  1  0  0  0  0
 14 21  1  0  0  0  0
 15 18  1  0  0  0  0
 15 22  1  0  0  0  0
 16 26  1  0  0  0  0
 17 19  1  1  0  0  0
 17 20  1  0  0  0  0
 18 26  1  0  0  0  0
  1 27  1  0  0  0  0
  2 28  1  0  0  0  0
  3 29  1  0  0  0  0
  4 30  1  0  0  0  0
  7 31  1  0  0  0  0
  8 32  1  0  0  0  0
 11 33  1  0  0  0  0
 11 34  1  0  0  0  0
 12 35  1  0  0  0  0
 12 36  1  0  0  0  0
 13 37  1  0  0  0  0
 13 38  1  0  0  0  0
 14 39  1  0  0  0  0
 14 40  1  0  0  0  0
 15 41  1  0  0  0  0
 15 42  1  0  0  0  0
 16 43  1  0  0  0  0
 16 44  1  0  0  0  0
 17 45  1  0  0  0  0
 19 46  1  0  0  0  0
 19 47  1  0  0  0  0
 19 48  1  0  0  0  0
 20 49  1  0  0  0  0
 21 50  1  0  0  0  0
 22 51  1  0  0  0  0
M  END
> <id>
EN300-6491606

> <smiles>
C[C@H]1CNC(=O)C2(CNCCO2)C/C=C/COC=3C=CC=CC3C(=O)N1.OC(=O)C(F)(F)F

> <MDLNUMBER>
MFCD31719846

> <IUPAC Name>
(3E,10S)-10-methyl-2,5,7,8,9,10,11,12-octahydrospiro[1,8,11-benzoxadiazacyclotetradecine-6,2'-morpholin]-3-ene-7,12-dione; trifluoroacetic acid

> <CAS>
2253621-01-9

> <Purity>
95

> <URL>
https://www.enaminestore.com/catalog/EN300-6491606

> <Saltdate>
OC(=O)C(F)(F)F

> <ROCS_ShapeQuery>
_x0404_0B

> <ROCS_TanimotoCombo>
0.422 

> <ROCS_ShapeTanimoto>
0.363 

> <ROCS_ColorTanimoto>
0.059 

> <ROCS_RefTversky>
0.324 

> <ROCS_RefColorTversky>
0.066 

> <ROCS_RefTverskyCombo>
0.390 

> <ROCS_FitTversky>
1.494 

> <ROCS_FitColorTversky>
0.359 

> <ROCS_FitTverskyCombo>
1.853 

> <ROCS_ColorScore>
-4.761

> <ROCS_Overlap>
2165.604

> <ROCS_Rank>
36                  

$$$$
untitled-dbase-10136_485
  -OEChem-08212314543D

 51 53  0     0  0  0  0  0  0999 V2000
   -7.6528    5.1699  -17.2117 C   0  0  0  0  0  0  0  0  0  0  0  0
   -9.5476    4.8022  -18.4051 C   0  0  0  0  0  0  0  0  0  0  0  0
   -8.6478    5.4250   -8.7168 C   0  0  0  0  0  0  0  0  0  0  0  0
   -8.9466    6.3856  -15.4135 C   0  0  0  0  0  0  0  0  0  0  0  0
   -8.5300    3.8543  -15.2497 C   0  0  0  0  0  0  0  0  0  0  0  0
   -8.1599    6.3755  -14.1021 C   0  0  0  0  0  0  0  0  0  0  0  0
   -9.2092    4.0505  -13.8962 C   0  0  0  0  0  0  0  0  0  0  0  0
   -7.4332    4.8479  -12.2422 C   0  0  0  0  0  0  0  0  0  0  0  0
   -9.7881    5.8298  -12.2118 C   0  0  0  0  0  0  0  0  0  0  0  0
   -7.8323    4.3717  -10.8491 C   0  0  0  0  0  0  0  0  0  0  0  0
   -9.2730    6.4150  -10.9015 C   0  0  0  0  0  0  0  0  0  0  0  0
   -8.7748    5.0594  -16.1689 C   0  0  0  0  0  0  0  0  0  0  0  0
   -8.6486    5.2746  -13.1147 C   0  0  0  0  0  0  0  0  0  0  0  0
  -10.1645    3.4518   -7.8889 C   0  0  0  0  0  0  0  0  0  0  0  0
   -8.0909    2.1129   -7.4233 C   0  0  0  0  0  0  0  0  0  0  0  0
   -8.7311    3.9995   -5.8939 C   0  0  0  0  0  0  0  0  0  0  0  0
   -8.7410    3.4920   -7.3351 C   0  0  0  0  0  0  0  0  0  0  0  0
   -8.1900    5.0074  -18.4648 N   0  0  0  0  0  0  0  0  0  0  0  0
   -9.9011    4.8318  -17.0576 N   0  0  0  0  0  0  0  0  0  0  0  0
   -8.5733    5.4008  -10.1128 N   0  0  0  0  0  0  0  0  0  0  0  0
   -6.4739    5.3738  -16.9530 O   0  0  0  0  0  0  0  0  0  0  0  0
  -10.3048    4.6271  -19.3498 O   0  0  0  0  0  0  0  0  0  0  0  0
   -9.2599    6.2727   -8.0699 O   0  0  0  0  0  0  0  0  0  0  0  0
   -7.9643    4.3872   -8.1391 O   0  0  0  0  0  0  0  0  0  0  0  0
   -9.9995    6.5491  -15.1934 H   0  0  0  0  0  0  0  0  0  0  0  0
   -8.6024    7.2201  -16.0213 H   0  0  0  0  0  0  0  0  0  0  0  0
   -7.4637    3.7088  -15.0882 H   0  0  0  0  0  0  0  0  0  0  0  0
   -8.9189    2.9517  -15.7155 H   0  0  0  0  0  0  0  0  0  0  0  0
   -7.1015    6.2187  -14.3217 H   0  0  0  0  0  0  0  0  0  0  0  0
   -8.2374    7.3590  -13.6336 H   0  0  0  0  0  0  0  0  0  0  0  0
  -10.2829    4.1433  -14.0558 H   0  0  0  0  0  0  0  0  0  0  0  0
   -9.0657    3.1494  -13.2958 H   0  0  0  0  0  0  0  0  0  0  0  0
   -6.7484    5.6986  -12.1336 H   0  0  0  0  0  0  0  0  0  0  0  0
   -6.8659    4.0567  -12.7453 H   0  0  0  0  0  0  0  0  0  0  0  0
  -10.5269    5.0578  -11.9872 H   0  0  0  0  0  0  0  0  0  0  0  0
  -10.3221    6.6185  -12.7538 H   0  0  0  0  0  0  0  0  0  0  0  0
   -8.4757    3.4851  -10.9026 H   0  0  0  0  0  0  0  0  0  0  0  0
   -6.9355    4.0772  -10.2917 H   0  0  0  0  0  0  0  0  0  0  0  0
   -8.6220    7.2649  -11.1199 H   0  0  0  0  0  0  0  0  0  0  0  0
  -10.0961    6.7939  -10.2877 H   0  0  0  0  0  0  0  0  0  0  0  0
  -10.6346    4.4398   -7.8274 H   0  0  0  0  0  0  0  0  0  0  0  0
  -10.1820    3.1227   -8.9330 H   0  0  0  0  0  0  0  0  0  0  0  0
  -10.7935    2.7731   -7.3015 H   0  0  0  0  0  0  0  0  0  0  0  0
   -7.0693    2.1371   -7.0270 H   0  0  0  0  0  0  0  0  0  0  0  0
   -8.0098    1.7856   -8.4661 H   0  0  0  0  0  0  0  0  0  0  0  0
   -8.6607    1.3614   -6.8673 H   0  0  0  0  0  0  0  0  0  0  0  0
   -7.7101    4.0285   -5.4964 H   0  0  0  0  0  0  0  0  0  0  0  0
   -9.1605    5.0037   -5.8170 H   0  0  0  0  0  0  0  0  0  0  0  0
   -9.2985    3.3272   -5.2401 H   0  0  0  0  0  0  0  0  0  0  0  0
   -7.6542    5.0352  -19.3243 H   0  0  0  0  0  0  0  0  0  0  0  0
  -10.8541    4.7068  -16.7342 H   0  0  0  0  0  0  0  0  0  0  0  0
  1 12  1  0  0  0  0
  1 18  1  0  0  0  0
  1 21  2  0  0  0  0
  2 18  1  0  0  0  0
  2 19  1  0  0  0  0
  2 22  2  0  0  0  0
  3 20  1  0  0  0  0
  3 23  2  0  0  0  0
  3 24  1  0  0  0  0
  4  6  1  0  0  0  0
  4 12  1  0  0  0  0
  5  7  1  0  0  0  0
  5 12  1  0  0  0  0
  6 13  1  0  0  0  0
  7 13  1  0  0  0  0
  8 10  1  0  0  0  0
  8 13  1  0  0  0  0
  9 11  1  0  0  0  0
  9 13  1  0  0  0  0
 10 20  1  0  0  0  0
 11 20  1  0  0  0  0
 12 19  1  0  0  0  0
 14 17  1  0  0  0  0
 15 17  1  0  0  0  0
 16 17  1  0  0  0  0
 17 24  1  0  0  0  0
  4 25  1  0  0  0  0
  4 26  1  0  0  0  0
  5 27  1  0  0  0  0
  5 28  1  0  0  0  0
  6 29  1  0  0  0  0
  6 30  1  0  0  0  0
  7 31  1  0  0  0  0
  7 32  1  0  0  0  0
  8 33  1  0  0  0  0
  8 34  1  0  0  0  0
  9 35  1  0  0  0  0
  9 36  1  0  0  0  0
 10 37  1  0  0  0  0
 10 38  1  0  0  0  0
 11 39  1  0  0  0  0
 11 40  1  0  0  0  0
 14 41  1  0  0  0  0
 14 42  1  0  0  0  0
 14 43  1  0  0  0  0
 15 44  1  0  0  0  0
 15 45  1  0  0  0  0
 15 46  1  0  0  0  0
 16 47  1  0  0  0  0
 16 48  1  0  0  0  0
 16 49  1  0  0  0  0
 18 50  1  0  0  0  0
 19 51  1  0  0  0  0
M  END
> <id>
EN300-359091

> <smiles>
CC(C)(C)OC(=O)N1CCC2(CC1)CCC3(CC2)NC(=O)NC3=O

> <MDLNUMBER>
MFCD30537852

> <IUPAC Name>
tert-butyl 2,4-dioxo-1,3,11-triazadispiro[4.2.5^{8}.2^{5}]pentadecane-11-carboxylate

> <CAS>
2137744-73-9

> <URL>
https://www.enaminestore.com/catalog/EN300-359091

> <ROCS_ShapeQuery>
_x0404_0B

> <ROCS_TanimotoCombo>
0.422 

> <ROCS_ShapeTanimoto>
0.373 

> <ROCS_ColorTanimoto>
0.048 

> <ROCS_RefTversky>
0.328 

> <ROCS_RefColorTversky>
0.054 

> <ROCS_RefTverskyCombo>
0.382 

> <ROCS_FitTversky>
1.595 

> <ROCS_FitColorTversky>
0.315 

> <ROCS_FitTverskyCombo>
1.911 

> <ROCS_ColorScore>
-3.894

> <ROCS_Overlap>
2188.759

> <ROCS_Rank>
37                  

$$$$
untitled-dbase-8967_69
  -OEChem-08212314543D

 47 48  0     0  0  0  0  0  0999 V2000
   -8.6938    5.4881   -9.1189 C   0  0  0  0  0  0  0  0  0  0  0  0
   -8.5681    5.8102  -14.7089 C   0  0  0  0  0  0  0  0  0  0  0  0
   -8.7446    3.5483   -6.2038 C   0  0  0  0  0  0  0  0  0  0  0  0
   -9.7745    2.2960   -7.9940 C   0  0  0  0  0  0  0  0  0  0  0  0
   -7.7923    4.2117   -7.1938 C   0  0  0  0  0  0  0  0  0  0  0  0
   -8.8578    2.9581   -9.0257 C   0  0  0  0  0  0  0  0  0  0  0  0
   -7.7070    4.7546  -11.3243 C   0  0  0  0  0  0  0  0  0  0  0  0
   -9.1341    6.7615  -11.1864 C   0  0  0  0  0  0  0  0  0  0  0  0
   -8.3042    4.4075  -12.6811 C   0  0  0  0  0  0  0  0  0  0  0  0
   -9.7274    6.4382  -12.5540 C   0  0  0  0  0  0  0  0  0  0  0  0
   -6.8436    5.5526  -16.9783 C   0  0  0  0  0  0  0  0  0  0  0  0
   -8.0135    3.3677  -17.3866 C   0  0  0  0  0  0  0  0  0  0  0  0
   -9.3131    5.5155  -17.4628 C   0  0  0  0  0  0  0  0  0  0  0  0
   -8.1478    4.7748  -16.8085 C   0  0  0  0  0  0  0  0  0  0  0  0
   -9.1474    2.2219   -6.6740 N   0  0  0  0  0  0  0  0  0  0  0  0
   -8.3770    4.2545   -8.5330 N   0  0  0  0  0  0  0  0  0  0  0  0
   -8.6327    5.5613  -10.5196 N   0  0  0  0  0  0  0  0  0  0  0  0
   -8.8291    5.5970  -13.3513 N   0  0  0  0  0  0  0  0  0  0  0  0
   -9.0207    6.4664   -8.4354 O   0  0  0  0  0  0  0  0  0  0  0  0
   -8.4765    6.9201  -15.2308 O   0  0  0  0  0  0  0  0  0  0  0  0
   -8.4202    4.6419  -15.4087 O   0  0  0  0  0  0  0  0  0  0  0  0
   -8.2494    3.4442   -5.2333 H   0  0  0  0  0  0  0  0  0  0  0  0
   -9.6296    4.1736   -6.0433 H   0  0  0  0  0  0  0  0  0  0  0  0
  -10.7221    2.8447   -7.9241 H   0  0  0  0  0  0  0  0  0  0  0  0
  -10.0242    1.2825   -8.3277 H   0  0  0  0  0  0  0  0  0  0  0  0
   -7.4837    5.1976   -6.8445 H   0  0  0  0  0  0  0  0  0  0  0  0
   -6.8692    3.6238   -7.2752 H   0  0  0  0  0  0  0  0  0  0  0  0
   -7.9801    2.3373   -9.2245 H   0  0  0  0  0  0  0  0  0  0  0  0
   -9.3929    3.0972   -9.9672 H   0  0  0  0  0  0  0  0  0  0  0  0
   -7.3778    3.8590  -10.7956 H   0  0  0  0  0  0  0  0  0  0  0  0
   -6.8057    5.3646  -11.4632 H   0  0  0  0  0  0  0  0  0  0  0  0
   -8.2940    7.4603  -11.2848 H   0  0  0  0  0  0  0  0  0  0  0  0
   -9.8911    7.2457  -10.5590 H   0  0  0  0  0  0  0  0  0  0  0  0
   -7.5477    3.9072  -13.2938 H   0  0  0  0  0  0  0  0  0  0  0  0
   -9.1412    3.7080  -12.5644 H   0  0  0  0  0  0  0  0  0  0  0  0
  -10.6644    5.8819  -12.4379 H   0  0  0  0  0  0  0  0  0  0  0  0
   -9.9606    7.3645  -13.0867 H   0  0  0  0  0  0  0  0  0  0  0  0
   -6.9360    6.5632  -16.5646 H   0  0  0  0  0  0  0  0  0  0  0  0
   -6.0065    5.0494  -16.4836 H   0  0  0  0  0  0  0  0  0  0  0  0
   -6.5962    5.6743  -18.0391 H   0  0  0  0  0  0  0  0  0  0  0  0
   -8.9469    2.8059  -17.2669 H   0  0  0  0  0  0  0  0  0  0  0  0
   -7.2411    2.7996  -16.8555 H   0  0  0  0  0  0  0  0  0  0  0  0
   -7.7568    3.3908  -18.4506 H   0  0  0  0  0  0  0  0  0  0  0  0
  -10.2488    4.9577  -17.3411 H   0  0  0  0  0  0  0  0  0  0  0  0
   -9.4478    6.5140  -17.0343 H   0  0  0  0  0  0  0  0  0  0  0  0
   -9.1527    5.6184  -18.5421 H   0  0  0  0  0  0  0  0  0  0  0  0
   -8.3182    1.6305   -6.7377 H   0  0  0  0  0  0  0  0  0  0  0  0
  1 16  1  0  0  0  0
  1 17  1  0  0  0  0
  1 19  2  0  0  0  0
  2 18  1  0  0  0  0
  2 20  2  0  0  0  0
  2 21  1  0  0  0  0
  3  5  1  0  0  0  0
  3 15  1  0  0  0  0
  4  6  1  0  0  0  0
  4 15  1  0  0  0  0
  5 16  1  0  0  0  0
  6 16  1  0  0  0  0
  7  9  1  0  0  0  0
  7 17  1  0  0  0  0
  8 10  1  0  0  0  0
  8 17  1  0  0  0  0
  9 18  1  0  0  0  0
 10 18  1  0  0  0  0
 11 14  1  0  0  0  0
 12 14  1  0  0  0  0
 13 14  1  0  0  0  0
 14 21  1  0  0  0  0
  3 22  1  0  0  0  0
  3 23  1  0  0  0  0
  4 24  1  0  0  0  0
  4 25  1  0  0  0  0
  5 26  1  0  0  0  0
  5 27  1  0  0  0  0
  6 28  1  0  0  0  0
  6 29  1  0  0  0  0
  7 30  1  0  0  0  0
  7 31  1  0  0  0  0
  8 32  1  0  0  0  0
  8 33  1  0  0  0  0
  9 34  1  0  0  0  0
  9 35  1  0  0  0  0
 10 36  1  0  0  0  0
 10 37  1  0  0  0  0
 11 38  1  0  0  0  0
 11 39  1  0  0  0  0
 11 40  1  0  0  0  0
 12 41  1  0  0  0  0
 12 42  1  0  0  0  0
 12 43  1  0  0  0  0
 13 44  1  0  0  0  0
 13 45  1  0  0  0  0
 13 46  1  0  0  0  0
 15 47  1  0  0  0  0
M  END
> <id>
EN300-314882

> <smiles>
CC(C)(C)OC(=O)N1CCN(CC1)C(=O)N2CCNCC2

> <MDLNUMBER>
MFCD24469802

> <IUPAC Name>
tert-butyl 4-(piperazine-1-carbonyl)piperazine-1-carboxylate

> <CAS>
203520-35-8

> <Purity>
95

> <URL>
https://www.enaminestore.com/catalog/EN300-314882

> <ROCS_ShapeQuery>
_x0404_0B

> <ROCS_TanimotoCombo>
0.421 

> <ROCS_ShapeTanimoto>
0.334 

> <ROCS_ColorTanimoto>
0.087 

> <ROCS_RefTversky>
0.296 

> <ROCS_RefColorTversky>
0.092 

> <ROCS_RefTverskyCombo>
0.388 

> <ROCS_FitTversky>
1.615 

> <ROCS_FitColorTversky>
0.635 

> <ROCS_FitTverskyCombo>
2.250 

> <ROCS_ColorScore>
-6.622

> <ROCS_Overlap>
1976.681

> <ROCS_Rank>
38                  

$$$$
untitled-dbase-12659_28
  -OEChem-08212314543D

 48 50  0     0  0  0  0  0  0999 V2000
   -9.1623    2.5324   -6.5784 C   0  0  0  0  0  0  0  0  0  0  0  0
   -9.1658    1.9577   -7.8489 C   0  0  0  0  0  0  0  0  0  0  0  0
   -9.2445    3.9179   -6.4361 C   0  0  0  0  0  0  0  0  0  0  0  0
   -9.2508    2.7665   -8.9818 C   0  0  0  0  0  0  0  0  0  0  0  0
   -9.3131    4.7327   -7.5715 C   0  0  0  0  0  0  0  0  0  0  0  0
   -9.3052    4.1554   -8.8467 C   0  0  0  0  0  0  0  0  0  0  0  0
   -9.4212    6.1952   -7.3769 C   0  0  0  0  0  0  0  0  0  0  0  0
   -8.4398    5.6919  -14.6467 C   0  0  0  0  0  0  0  0  0  0  0  0
   -7.3908    5.0053  -11.2146 C   0  0  0  0  0  0  0  0  0  0  0  0
   -9.0951    6.8517  -11.2765 C   0  0  0  0  0  0  0  0  0  0  0  0
   -7.9846    4.4347  -12.5027 C   0  0  0  0  0  0  0  0  0  0  0  0
   -9.6638    6.2571  -12.5658 C   0  0  0  0  0  0  0  0  0  0  0  0
   -7.7248    6.4745   -9.1922 C   0  0  0  0  0  0  0  0  0  0  0  0
   -8.4296    5.7835  -10.3750 C   0  0  0  0  0  0  0  0  0  0  0  0
   -6.7130    5.6524  -16.9290 C   0  0  0  0  0  0  0  0  0  0  0  0
   -7.5144    3.2954  -17.2630 C   0  0  0  0  0  0  0  0  0  0  0  0
   -9.1470    5.2002  -17.3828 C   0  0  0  0  0  0  0  0  0  0  0  0
   -7.8718    4.6781  -16.7223 C   0  0  0  0  0  0  0  0  0  0  0  0
   -8.6716    6.9907   -8.2220 N   0  0  0  0  0  0  0  0  0  0  0  0
   -8.6562    5.4782  -13.2815 N   0  0  0  0  0  0  0  0  0  0  0  0
  -10.1417    6.6368   -6.4863 O   0  0  0  0  0  0  0  0  0  0  0  0
   -8.5339    6.7861  -15.2002 O   0  0  0  0  0  0  0  0  0  0  0  0
   -9.4921    4.8841   -9.9863 O   0  0  0  0  0  0  0  0  0  0  0  0
   -8.1088    4.5436  -15.3162 O   0  0  0  0  0  0  0  0  0  0  0  0
   -9.1022    1.8996   -5.6976 H   0  0  0  0  0  0  0  0  0  0  0  0
   -9.1130    0.8781   -7.9559 H   0  0  0  0  0  0  0  0  0  0  0  0
   -9.2467    4.3470   -5.4375 H   0  0  0  0  0  0  0  0  0  0  0  0
   -9.2778    2.3076   -9.9665 H   0  0  0  0  0  0  0  0  0  0  0  0
   -6.9783    4.1738  -10.6305 H   0  0  0  0  0  0  0  0  0  0  0  0
   -6.5506    5.6634  -11.4718 H   0  0  0  0  0  0  0  0  0  0  0  0
   -8.3699    7.6331  -11.5374 H   0  0  0  0  0  0  0  0  0  0  0  0
   -9.9180    7.3375  -10.7374 H   0  0  0  0  0  0  0  0  0  0  0  0
   -7.1934    3.9509  -13.0820 H   0  0  0  0  0  0  0  0  0  0  0  0
   -8.7342    3.6671  -12.2787 H   0  0  0  0  0  0  0  0  0  0  0  0
  -10.5005    5.5833  -12.3474 H   0  0  0  0  0  0  0  0  0  0  0  0
  -10.0542    7.0597  -13.1997 H   0  0  0  0  0  0  0  0  0  0  0  0
   -7.0601    5.7776   -8.6670 H   0  0  0  0  0  0  0  0  0  0  0  0
   -7.1048    7.3119   -9.5315 H   0  0  0  0  0  0  0  0  0  0  0  0
   -6.9656    6.6461  -16.5422 H   0  0  0  0  0  0  0  0  0  0  0  0
   -5.8015    5.3066  -16.4306 H   0  0  0  0  0  0  0  0  0  0  0  0
   -6.4964    5.7817  -17.9956 H   0  0  0  0  0  0  0  0  0  0  0  0
   -8.3431    2.5931  -17.1168 H   0  0  0  0  0  0  0  0  0  0  0  0
   -6.6560    2.8761  -16.7257 H   0  0  0  0  0  0  0  0  0  0  0  0
   -7.2727    3.3290  -18.3302 H   0  0  0  0  0  0  0  0  0  0  0  0
   -9.9783    4.5016  -17.2346 H   0  0  0  0  0  0  0  0  0  0  0  0
   -9.4393    6.1756  -16.9804 H   0  0  0  0  0  0  0  0  0  0  0  0
   -9.0132    5.2964  -18.4663 H   0  0  0  0  0  0  0  0  0  0  0  0
   -8.7907    7.9971   -8.1603 H   0  0  0  0  0  0  0  0  0  0  0  0
  1  2  2  0  0  0  0
  1  3  1  0  0  0  0
  2  4  1  0  0  0  0
  3  5  2  0  0  0  0
  4  6  2  0  0  0  0
  5  6  1  0  0  0  0
  5  7  1  0  0  0  0
  6 23  1  0  0  0  0
  7 19  1  0  0  0  0
  7 21  2  0  0  0  0
  8 20  1  0  0  0  0
  8 22  2  0  0  0  0
  8 24  1  0  0  0  0
  9 11  1  0  0  0  0
  9 14  1  0  0  0  0
 10 12  1  0  0  0  0
 10 14  1  0  0  0  0
 11 20  1  0  0  0  0
 12 20  1  0  0  0  0
 13 14  1  0  0  0  0
 13 19  1  0  0  0  0
 14 23  1  0  0  0  0
 15 18  1  0  0  0  0
 16 18  1  0  0  0  0
 17 18  1  0  0  0  0
 18 24  1  0  0  0  0
  1 25  1  0  0  0  0
  2 26  1  0  0  0  0
  3 27  1  0  0  0  0
  4 28  1  0  0  0  0
  9 29  1  0  0  0  0
  9 30  1  0  0  0  0
 10 31  1  0  0  0  0
 10 32  1  0  0  0  0
 11 33  1  0  0  0  0
 11 34  1  0  0  0  0
 12 35  1  0  0  0  0
 12 36  1  0  0  0  0
 13 37  1  0  0  0  0
 13 38  1  0  0  0  0
 15 39  1  0  0  0  0
 15 40  1  0  0  0  0
 15 41  1  0  0  0  0
 16 42  1  0  0  0  0
 16 43  1  0  0  0  0
 16 44  1  0  0  0  0
 17 45  1  0  0  0  0
 17 46  1  0  0  0  0
 17 47  1  0  0  0  0
 19 48  1  0  0  0  0
M  END
> <id>
EN300-370284

> <smiles>
CC(C)(C)OC(=O)N1CCC2(CC1)CNC(=O)C=3C=CC=CC3O2

> <MDLNUMBER>
MFCD31421211

> <IUPAC Name>
tert-butyl 5-oxo-4,5-dihydro-3H-spiro[1,4-benzoxazepine-2,4'-piperidine]-1'-carboxylate

> <CAS>
2138211-63-7

> <Purity>
95

> <URL>
https://www.enaminestore.com/catalog/EN300-370284

> <ROCS_ShapeQuery>
_x0404_0B

> <ROCS_TanimotoCombo>
0.421 

> <ROCS_ShapeTanimoto>
0.347 

> <ROCS_ColorTanimoto>
0.074 

> <ROCS_RefTversky>
0.311 

> <ROCS_RefColorTversky>
0.079 

> <ROCS_RefTverskyCombo>
0.391 

> <ROCS_FitTversky>
1.502 

> <ROCS_FitColorTversky>
0.503 

> <ROCS_FitTverskyCombo>
2.005 

> <ROCS_ColorScore>
-5.730

> <ROCS_Overlap>
2079.251

> <ROCS_Rank>
39                  

$$$$
untitled-dbase-27259_112
  -OEChem-08212314543D

 56 58  0     1  0  0  0  0  0999 V2000
   -9.9687    2.6603   -7.4320 C   0  0  0  0  0  0  0  0  0  0  0  0
   -9.0150    1.7446   -7.8731 C   0  0  0  0  0  0  0  0  0  0  0  0
   -9.9919    3.9491   -7.9593 C   0  0  0  0  0  0  0  0  0  0  0  0
   -8.0794    2.1105   -8.8449 C   0  0  0  0  0  0  0  0  0  0  0  0
   -9.0664    4.3109   -8.9436 C   0  0  0  0  0  0  0  0  0  0  0  0
   -8.1041    3.3935   -9.3988 C   0  0  0  0  0  0  0  0  0  0  0  0
   -7.6224    3.2935  -13.7030 C   0  0  0  0  0  0  0  0  0  0  0  0
   -7.8419    2.9378  -12.4283 C   0  0  0  0  0  0  0  0  0  0  0  0
   -9.1340    5.6908   -9.4674 C   0  0  0  0  0  0  0  0  0  0  0  0
   -8.8571    5.8755  -14.7299 C   0  0  0  0  0  0  0  0  0  0  0  0
   -8.7113    3.2994  -14.7432 C   0  0  0  0  0  0  0  0  0  0  0  0
   -6.7956    2.9463  -11.3546 C   0  0  0  0  0  0  0  0  0  0  0  0
  -10.1703    3.6072  -17.6255 C   0  0  0  0  0  0  0  0  0  0  0  0
  -10.1308    4.5565  -16.4217 C   0  0  0  0  0  0  0  0  0  0  0  0
   -7.5462    4.6627  -16.5296 C   0  0  0  0  0  0  0  0  0  0  0  0
   -9.1619    3.8912  -18.7445 C   0  0  0  0  0  0  0  0  0  0  0  0
   -7.6313    5.5455  -17.7876 C   0  0  0  0  0  0  0  0  0  0  0  0
  -10.0834    6.9760  -12.8470 C   0  0  0  0  0  0  0  0  0  0  0  0
   -9.2254    7.0302  -11.5747 C   0  0  2  0  0  0  0  0  0  0  0  0
   -8.8053    4.5961  -15.6137 C   0  0  1  0  0  0  0  0  0  0  0  0
   -7.7693    7.3995  -11.8537 C   0  0  0  0  0  0  0  0  0  0  0  0
   -9.2816    5.7716  -10.8407 N   0  0  0  0  0  0  0  0  0  0  0  0
   -9.8042    5.8429  -13.7167 N   0  0  0  0  0  0  0  0  0  0  0  0
   -8.7040    5.2722  -18.7460 N   0  0  0  0  0  0  0  0  0  0  0  0
   -9.0677    6.6320   -8.6846 O   0  0  0  0  0  0  0  0  0  0  0  0
   -8.1448    6.8544  -14.9568 O   0  0  0  0  0  0  0  0  0  0  0  0
   -7.1729    3.8417  -10.3004 O   0  0  0  0  0  0  0  0  0  0  0  0
  -10.6868    2.3712   -6.6707 H   0  0  0  0  0  0  0  0  0  0  0  0
   -8.9897    0.7434   -7.4496 H   0  0  0  0  0  0  0  0  0  0  0  0
  -10.7345    4.6541   -7.6002 H   0  0  0  0  0  0  0  0  0  0  0  0
   -7.3266    1.3839   -9.1379 H   0  0  0  0  0  0  0  0  0  0  0  0
   -6.6241    3.5614  -14.0163 H   0  0  0  0  0  0  0  0  0  0  0  0
   -8.8300    2.5651  -12.1427 H   0  0  0  0  0  0  0  0  0  0  0  0
   -8.5920    2.4166  -15.3950 H   0  0  0  0  0  0  0  0  0  0  0  0
   -9.6717    3.1388  -14.2240 H   0  0  0  0  0  0  0  0  0  0  0  0
   -6.6276    1.9100  -10.9884 H   0  0  0  0  0  0  0  0  0  0  0  0
   -5.8331    3.2983  -11.7769 H   0  0  0  0  0  0  0  0  0  0  0  0
   -9.9541    2.5845  -17.2499 H   0  0  0  0  0  0  0  0  0  0  0  0
  -11.1988    3.5344  -18.0410 H   0  0  0  0  0  0  0  0  0  0  0  0
  -10.3621    5.5653  -16.7971 H   0  0  0  0  0  0  0  0  0  0  0  0
  -10.9731    4.3084  -15.7571 H   0  0  0  0  0  0  0  0  0  0  0  0
   -7.2848    3.6446  -16.8616 H   0  0  0  0  0  0  0  0  0  0  0  0
   -6.6699    4.9813  -15.9395 H   0  0  0  0  0  0  0  0  0  0  0  0
   -8.3200    3.2102  -18.6804 H   0  0  0  0  0  0  0  0  0  0  0  0
   -9.6601    3.7106  -19.6925 H   0  0  0  0  0  0  0  0  0  0  0  0
   -7.7988    6.5898  -17.4308 H   0  0  0  0  0  0  0  0  0  0  0  0
   -6.6398    5.6130  -18.3054 H   0  0  0  0  0  0  0  0  0  0  0  0
  -11.1481    6.9799  -12.5792 H   0  0  0  0  0  0  0  0  0  0  0  0
   -9.9045    7.8762  -13.4494 H   0  0  0  0  0  0  0  0  0  0  0  0
   -9.6463    7.8075  -10.9273 H   0  0  0  0  0  0  0  0  0  0  0  0
   -7.3153    6.6476  -12.4966 H   0  0  0  0  0  0  0  0  0  0  0  0
   -7.2163    7.4501  -10.9176 H   0  0  0  0  0  0  0  0  0  0  0  0
   -7.7234    8.3679  -12.3488 H   0  0  0  0  0  0  0  0  0  0  0  0
   -9.4370    4.9102  -11.3645 H   0  0  0  0  0  0  0  0  0  0  0  0
  -10.3292    4.9859  -13.5741 H   0  0  0  0  0  0  0  0  0  0  0  0
   -8.3717    5.5005  -19.6810 H   0  0  0  0  0  0  0  0  0  0  0  0
  1  2  2  0  0  0  0
  1  3  1  0  0  0  0
  2  4  1  0  0  0  0
  3  5  2  0  0  0  0
  4  6  2  0  0  0  0
  5  6  1  0  0  0  0
  5  9  1  0  0  0  0
  6 27  1  0  0  0  0
  7  8  2  0  0  0  0
  7 11  1  0  0  0  0
  8 12  1  0  0  0  0
  9 22  1  0  0  0  0
  9 25  2  0  0  0  0
 10 20  1  0  0  0  0
 10 23  1  0  0  0  0
 10 26  2  0  0  0  0
 11 20  1  0  0  0  0
 12 27  1  0  0  0  0
 13 14  1  0  0  0  0
 13 16  1  0  0  0  0
 14 20  1  0  0  0  0
 15 17  1  0  0  0  0
 15 20  1  0  0  0  0
 16 24  1  0  0  0  0
 17 24  1  0  0  0  0
 18 19  1  0  0  0  0
 18 23  1  0  0  0  0
 19 21  1  1  0  0  0
 19 22  1  0  0  0  0
  1 28  1  0  0  0  0
  2 29  1  0  0  0  0
  3 30  1  0  0  0  0
  4 31  1  0  0  0  0
  7 32  1  0  0  0  0
  8 33  1  0  0  0  0
 11 34  1  0  0  0  0
 11 35  1  0  0  0  0
 12 36  1  0  0  0  0
 12 37  1  0  0  0  0
 13 38  1  0  0  0  0
 13 39  1  0  0  0  0
 14 40  1  0  0  0  0
 14 41  1  0  0  0  0
 15 42  1  0  0  0  0
 15 43  1  0  0  0  0
 16 44  1  0  0  0  0
 16 45  1  0  0  0  0
 17 46  1  0  0  0  0
 17 47  1  0  0  0  0
 18 48  1  0  0  0  0
 18 49  1  0  0  0  0
 19 50  1  0  0  0  0
 21 51  1  0  0  0  0
 21 52  1  0  0  0  0
 21 53  1  0  0  0  0
 22 54  1  0  0  0  0
 23 55  1  0  0  0  0
 24 56  1  0  0  0  0
M  END
> <id>
EN300-6493075

> <smiles>
C[C@H]1CNC(=O)C2(CCCNCC2)C/C=C/COC=3C=CC=CC3C(=O)N1

> <MDLNUMBER>
MFCD31720034

> <IUPAC Name>
(3'E,10'S)-10'-methyl-2',5',7',8',9',10',11',12'-octahydrospiro[azepane-4,6'-[1,8,11]benzoxadiazacyclotetradecin]-3'-ene-7',12'-dione

> <URL>
https://www.enaminestore.com/catalog/EN300-6493075

> <ROCS_ShapeQuery>
_x0404_0B

> <ROCS_TanimotoCombo>
0.421 

> <ROCS_ShapeTanimoto>
0.359 

> <ROCS_ColorTanimoto>
0.062 

> <ROCS_RefTversky>
0.322 

> <ROCS_RefColorTversky>
0.068 

> <ROCS_RefTverskyCombo>
0.391 

> <ROCS_FitTversky>
1.462 

> <ROCS_FitColorTversky>
0.400 

> <ROCS_FitTverskyCombo>
1.862 

> <ROCS_ColorScore>
-4.931

> <ROCS_Overlap>
2154.282

> <ROCS_Rank>
40                  

$$$$
untitled-dbase-27258_112
  -OEChem-08212314543D

 56 58  0     1  0  0  0  0  0999 V2000
   -9.9687    2.6603   -7.4320 C   0  0  0  0  0  0  0  0  0  0  0  0
   -9.0150    1.7446   -7.8731 C   0  0  0  0  0  0  0  0  0  0  0  0
   -9.9919    3.9491   -7.9593 C   0  0  0  0  0  0  0  0  0  0  0  0
   -8.0794    2.1105   -8.8449 C   0  0  0  0  0  0  0  0  0  0  0  0
   -9.0664    4.3109   -8.9436 C   0  0  0  0  0  0  0  0  0  0  0  0
   -8.1041    3.3935   -9.3988 C   0  0  0  0  0  0  0  0  0  0  0  0
   -7.6224    3.2935  -13.7030 C   0  0  0  0  0  0  0  0  0  0  0  0
   -7.8419    2.9378  -12.4283 C   0  0  0  0  0  0  0  0  0  0  0  0
   -9.1340    5.6908   -9.4674 C   0  0  0  0  0  0  0  0  0  0  0  0
   -8.8571    5.8755  -14.7299 C   0  0  0  0  0  0  0  0  0  0  0  0
   -8.7113    3.2994  -14.7432 C   0  0  0  0  0  0  0  0  0  0  0  0
   -6.7956    2.9463  -11.3546 C   0  0  0  0  0  0  0  0  0  0  0  0
  -10.1703    3.6072  -17.6255 C   0  0  0  0  0  0  0  0  0  0  0  0
  -10.1308    4.5565  -16.4217 C   0  0  0  0  0  0  0  0  0  0  0  0
   -7.5462    4.6627  -16.5296 C   0  0  0  0  0  0  0  0  0  0  0  0
   -9.1619    3.8912  -18.7445 C   0  0  0  0  0  0  0  0  0  0  0  0
   -7.6313    5.5455  -17.7876 C   0  0  0  0  0  0  0  0  0  0  0  0
  -10.0834    6.9760  -12.8470 C   0  0  0  0  0  0  0  0  0  0  0  0
   -9.2254    7.0302  -11.5747 C   0  0  2  0  0  0  0  0  0  0  0  0
   -8.8053    4.5961  -15.6137 C   0  0  1  0  0  0  0  0  0  0  0  0
   -7.7693    7.3995  -11.8537 C   0  0  0  0  0  0  0  0  0  0  0  0
   -9.2816    5.7716  -10.8407 N   0  0  0  0  0  0  0  0  0  0  0  0
   -9.8042    5.8429  -13.7167 N   0  0  0  0  0  0  0  0  0  0  0  0
   -8.7040    5.2722  -18.7460 N   0  0  0  0  0  0  0  0  0  0  0  0
   -9.0677    6.6320   -8.6846 O   0  0  0  0  0  0  0  0  0  0  0  0
   -8.1448    6.8544  -14.9568 O   0  0  0  0  0  0  0  0  0  0  0  0
   -7.1729    3.8417  -10.3004 O   0  0  0  0  0  0  0  0  0  0  0  0
  -10.6868    2.3712   -6.6707 H   0  0  0  0  0  0  0  0  0  0  0  0
   -8.9897    0.7434   -7.4496 H   0  0  0  0  0  0  0  0  0  0  0  0
  -10.7345    4.6541   -7.6002 H   0  0  0  0  0  0  0  0  0  0  0  0
   -7.3266    1.3839   -9.1379 H   0  0  0  0  0  0  0  0  0  0  0  0
   -6.6241    3.5614  -14.0163 H   0  0  0  0  0  0  0  0  0  0  0  0
   -8.8300    2.5651  -12.1427 H   0  0  0  0  0  0  0  0  0  0  0  0
   -8.5920    2.4166  -15.3950 H   0  0  0  0  0  0  0  0  0  0  0  0
   -9.6717    3.1388  -14.2240 H   0  0  0  0  0  0  0  0  0  0  0  0
   -6.6276    1.9100  -10.9884 H   0  0  0  0  0  0  0  0  0  0  0  0
   -5.8331    3.2983  -11.7769 H   0  0  0  0  0  0  0  0  0  0  0  0
   -9.9541    2.5845  -17.2499 H   0  0  0  0  0  0  0  0  0  0  0  0
  -11.1988    3.5344  -18.0410 H   0  0  0  0  0  0  0  0  0  0  0  0
  -10.3621    5.5653  -16.7971 H   0  0  0  0  0  0  0  0  0  0  0  0
  -10.9731    4.3084  -15.7571 H   0  0  0  0  0  0  0  0  0  0  0  0
   -7.2848    3.6446  -16.8616 H   0  0  0  0  0  0  0  0  0  0  0  0
   -6.6699    4.9813  -15.9395 H   0  0  0  0  0  0  0  0  0  0  0  0
   -8.3200    3.2102  -18.6804 H   0  0  0  0  0  0  0  0  0  0  0  0
   -9.6601    3.7106  -19.6925 H   0  0  0  0  0  0  0  0  0  0  0  0
   -7.7988    6.5898  -17.4308 H   0  0  0  0  0  0  0  0  0  0  0  0
   -6.6398    5.6130  -18.3054 H   0  0  0  0  0  0  0  0  0  0  0  0
  -11.1481    6.9799  -12.5792 H   0  0  0  0  0  0  0  0  0  0  0  0
   -9.9045    7.8762  -13.4494 H   0  0  0  0  0  0  0  0  0  0  0  0
   -9.6463    7.8075  -10.9273 H   0  0  0  0  0  0  0  0  0  0  0  0
   -7.3153    6.6476  -12.4966 H   0  0  0  0  0  0  0  0  0  0  0  0
   -7.2163    7.4501  -10.9176 H   0  0  0  0  0  0  0  0  0  0  0  0
   -7.7234    8.3679  -12.3488 H   0  0  0  0  0  0  0  0  0  0  0  0
   -9.4370    4.9102  -11.3645 H   0  0  0  0  0  0  0  0  0  0  0  0
  -10.3292    4.9859  -13.5741 H   0  0  0  0  0  0  0  0  0  0  0  0
   -8.3717    5.5005  -19.6810 H   0  0  0  0  0  0  0  0  0  0  0  0
  1  2  2  0  0  0  0
  1  3  1  0  0  0  0
  2  4  1  0  0  0  0
  3  5  2  0  0  0  0
  4  6  2  0  0  0  0
  5  6  1  0  0  0  0
  5  9  1  0  0  0  0
  6 27  1  0  0  0  0
  7  8  2  0  0  0  0
  7 11  1  0  0  0  0
  8 12  1  0  0  0  0
  9 22  1  0  0  0  0
  9 25  2  0  0  0  0
 10 20  1  0  0  0  0
 10 23  1  0  0  0  0
 10 26  2  0  0  0  0
 11 20  1  0  0  0  0
 12 27  1  0  0  0  0
 13 14  1  0  0  0  0
 13 16  1  0  0  0  0
 14 20  1  0  0  0  0
 15 17  1  0  0  0  0
 15 20  1  0  0  0  0
 16 24  1  0  0  0  0
 17 24  1  0  0  0  0
 18 19  1  0  0  0  0
 18 23  1  0  0  0  0
 19 21  1  1  0  0  0
 19 22  1  0  0  0  0
  1 28  1  0  0  0  0
  2 29  1  0  0  0  0
  3 30  1  0  0  0  0
  4 31  1  0  0  0  0
  7 32  1  0  0  0  0
  8 33  1  0  0  0  0
 11 34  1  0  0  0  0
 11 35  1  0  0  0  0
 12 36  1  0  0  0  0
 12 37  1  0  0  0  0
 13 38  1  0  0  0  0
 13 39  1  0  0  0  0
 14 40  1  0  0  0  0
 14 41  1  0  0  0  0
 15 42  1  0  0  0  0
 15 43  1  0  0  0  0
 16 44  1  0  0  0  0
 16 45  1  0  0  0  0
 17 46  1  0  0  0  0
 17 47  1  0  0  0  0
 18 48  1  0  0  0  0
 18 49  1  0  0  0  0
 19 50  1  0  0  0  0
 21 51  1  0  0  0  0
 21 52  1  0  0  0  0
 21 53  1  0  0  0  0
 22 54  1  0  0  0  0
 23 55  1  0  0  0  0
 24 56  1  0  0  0  0
M  END
> <id>
EN300-6493074

> <smiles>
C[C@H]1CNC(=O)C2(CCCNCC2)C/C=C/COC=3C=CC=CC3C(=O)N1.OC(=O)C(F)(F)F

> <MDLNUMBER>
MFCD31720033

> <IUPAC Name>
(3'E,10'S)-10'-methyl-2',5',7',8',9',10',11',12'-octahydrospiro[azepane-4,6'-[1,8,11]benzoxadiazacyclotetradecin]-3'-ene-7',12'-dione; trifluoroacetic acid

> <URL>
https://www.enaminestore.com/catalog/EN300-6493074

> <Saltdate>
OC(=O)C(F)(F)F

> <ROCS_ShapeQuery>
_x0404_0B

> <ROCS_TanimotoCombo>
0.421 

> <ROCS_ShapeTanimoto>
0.359 

> <ROCS_ColorTanimoto>
0.062 

> <ROCS_RefTversky>
0.322 

> <ROCS_RefColorTversky>
0.068 

> <ROCS_RefTverskyCombo>
0.391 

> <ROCS_FitTversky>
1.462 

> <ROCS_FitColorTversky>
0.400 

> <ROCS_FitTverskyCombo>
1.862 

> <ROCS_ColorScore>
-4.931

> <ROCS_Overlap>
2154.282

> <ROCS_Rank>
41                  

$$$$
untitled-dbase-38713_288
  -OEChem-08212314543D

 45 47  0     0  0  0  0  0  0999 V2000
   -9.8786    2.5135   -8.8433 C   0  0  0  0  0  0  0  0  0  0  0  0
   -8.7982    4.1668   -7.9221 C   0  0  0  0  0  0  0  0  0  0  0  0
   -8.5045    5.8529  -14.7204 C   0  0  0  0  0  0  0  0  0  0  0  0
   -8.3174    5.5562   -7.7950 C   0  0  0  0  0  0  0  0  0  0  0  0
   -7.9082    6.1387   -9.1596 C   0  0  0  0  0  0  0  0  0  0  0  0
   -7.7369    4.7965  -11.3134 C   0  0  0  0  0  0  0  0  0  0  0  0
   -9.1715    6.8492  -11.2510 C   0  0  0  0  0  0  0  0  0  0  0  0
   -9.9375    4.7711  -10.0112 C   0  0  0  0  0  0  0  0  0  0  0  0
   -8.3083    4.4498  -12.6878 C   0  0  0  0  0  0  0  0  0  0  0  0
   -9.7514    6.4705  -12.6130 C   0  0  0  0  0  0  0  0  0  0  0  0
   -8.7048    5.6270  -10.4205 C   0  0  0  0  0  0  0  0  0  0  0  0
   -6.6836    5.6221  -16.9167 C   0  0  0  0  0  0  0  0  0  0  0  0
   -7.8080    3.4238  -17.3775 C   0  0  0  0  0  0  0  0  0  0  0  0
   -9.1300    5.5555  -17.5041 C   0  0  0  0  0  0  0  0  0  0  0  0
   -7.9839    4.8278  -16.8030 C   0  0  0  0  0  0  0  0  0  0  0  0
   -9.3041    2.0587   -7.7488 N   0  0  0  0  0  0  0  0  0  0  0  0
   -8.6165    3.1108   -7.1613 N   0  0  0  0  0  0  0  0  0  0  0  0
   -9.5887    3.8261   -8.9762 N   0  0  0  0  0  0  0  0  0  0  0  0
   -8.8202    5.6336  -13.3746 N   0  0  0  0  0  0  0  0  0  0  0  0
   -8.4049    6.9647  -15.2364 O   0  0  0  0  0  0  0  0  0  0  0  0
   -8.3129    4.6883  -15.4159 O   0  0  0  0  0  0  0  0  0  0  0  0
  -10.4806    1.9482   -9.5373 H   0  0  0  0  0  0  0  0  0  0  0  0
   -9.1083    6.1721   -7.3529 H   0  0  0  0  0  0  0  0  0  0  0  0
   -7.4612    5.5986   -7.1131 H   0  0  0  0  0  0  0  0  0  0  0  0
   -7.9629    7.2471   -9.1047 H   0  0  0  0  0  0  0  0  0  0  0  0
   -6.8294    5.9223   -9.3229 H   0  0  0  0  0  0  0  0  0  0  0  0
   -7.4508    3.8680  -10.7982 H   0  0  0  0  0  0  0  0  0  0  0  0
   -6.8022    5.3601  -11.4582 H   0  0  0  0  0  0  0  0  0  0  0  0
   -8.3186    7.5192  -11.4173 H   0  0  0  0  0  0  0  0  0  0  0  0
   -9.9215    7.4323  -10.7068 H   0  0  0  0  0  0  0  0  0  0  0  0
  -10.7615    5.3754   -9.6468 H   0  0  0  0  0  0  0  0  0  0  0  0
  -10.2824    4.1727  -10.8531 H   0  0  0  0  0  0  0  0  0  0  0  0
   -7.5343    3.9599  -13.2918 H   0  0  0  0  0  0  0  0  0  0  0  0
   -9.1389    3.7375  -12.5992 H   0  0  0  0  0  0  0  0  0  0  0  0
  -10.6788    5.9009  -12.5007 H   0  0  0  0  0  0  0  0  0  0  0  0
  -10.0031    7.3816  -13.1611 H   0  0  0  0  0  0  0  0  0  0  0  0
   -6.8057    6.6305  -16.5054 H   0  0  0  0  0  0  0  0  0  0  0  0
   -5.8616    5.1281  -16.3883 H   0  0  0  0  0  0  0  0  0  0  0  0
   -6.3936    5.7493  -17.9660 H   0  0  0  0  0  0  0  0  0  0  0  0
   -8.7386    2.8503  -17.2980 H   0  0  0  0  0  0  0  0  0  0  0  0
   -7.0516    2.8641  -16.8157 H   0  0  0  0  0  0  0  0  0  0  0  0
   -7.5074    3.4526  -18.4298 H   0  0  0  0  0  0  0  0  0  0  0  0
  -10.0629    4.9860  -17.4226 H   0  0  0  0  0  0  0  0  0  0  0  0
   -9.2949    6.5513  -17.0798 H   0  0  0  0  0  0  0  0  0  0  0  0
   -8.9259    5.6630  -18.5755 H   0  0  0  0  0  0  0  0  0  0  0  0
  1 16  2  0  0  0  0
  1 18  1  0  0  0  0
  2  4  1  0  0  0  0
  2 17  2  0  0  0  0
  2 18  1  0  0  0  0
  3 19  1  0  0  0  0
  3 20  2  0  0  0  0
  3 21  1  0  0  0  0
  4  5  1  0  0  0  0
  5 11  1  0  0  0  0
  6  9  1  0  0  0  0
  6 11  1  0  0  0  0
  7 10  1  0  0  0  0
  7 11  1  0  0  0  0
  8 11  1  0  0  0  0
  8 18  1  0  0  0  0
  9 19  1  0  0  0  0
 10 19  1  0  0  0  0
 12 15  1  0  0  0  0
 13 15  1  0  0  0  0
 14 15  1  0  0  0  0
 15 21  1  0  0  0  0
 16 17  1  0  0  0  0
  1 22  1  0  0  0  0
  4 23  1  0  0  0  0
  4 24  1  0  0  0  0
  5 25  1  0  0  0  0
  5 26  1  0  0  0  0
  6 27  1  0  0  0  0
  6 28  1  0  0  0  0
  7 29  1  0  0  0  0
  7 30  1  0  0  0  0
  8 31  1  0  0  0  0
  8 32  1  0  0  0  0
  9 33  1  0  0  0  0
  9 34  1  0  0  0  0
 10 35  1  0  0  0  0
 10 36  1  0  0  0  0
 12 37  1  0  0  0  0
 12 38  1  0  0  0  0
 12 39  1  0  0  0  0
 13 40  1  0  0  0  0
 13 41  1  0  0  0  0
 13 42  1  0  0  0  0
 14 43  1  0  0  0  0
 14 44  1  0  0  0  0
 14 45  1  0  0  0  0
M  END
> <id>
EN300-380237

> <smiles>
CC(C)(C)OC(=O)N1CCC2(CC1)CCC3=NN=CN3C2

> <MDLNUMBER>
MFCD30750252

> <IUPAC Name>
tert-butyl 7,8-dihydro-5H-spiro[[1,2,4]triazolo[4,3-a]pyridine-6,4'-piperidine]-1'-carboxylate

> <CAS>
2138187-37-6

> <URL>
https://www.enaminestore.com/catalog/EN300-380237

> <ROCS_ShapeQuery>
_x0404_0B

> <ROCS_TanimotoCombo>
0.419 

> <ROCS_ShapeTanimoto>
0.340 

> <ROCS_ColorTanimoto>
0.079 

> <ROCS_RefTversky>
0.301 

> <ROCS_RefColorTversky>
0.084 

> <ROCS_RefTverskyCombo>
0.385 

> <ROCS_FitTversky>
1.607 

> <ROCS_FitColorTversky>
0.567 

> <ROCS_FitTverskyCombo>
2.174 

> <ROCS_ColorScore>
-6.083

> <ROCS_Overlap>
2009.759

> <ROCS_Rank>
42                  

$$$$
untitled-dbase-45700_158
  -OEChem-08212314543D

 48 50  0     0  0  0  0  0  0999 V2000
   -9.0627    4.3768  -17.9976 C   0  0  0  0  0  0  0  0  0  0  0  0
   -7.8425    4.9868  -18.2735 C   0  0  0  0  0  0  0  0  0  0  0  0
   -9.6197    4.4743  -16.7226 C   0  0  0  0  0  0  0  0  0  0  0  0
   -7.1805    5.7018  -17.2758 C   0  0  0  0  0  0  0  0  0  0  0  0
   -8.9558    5.1901  -15.7169 C   0  0  0  0  0  0  0  0  0  0  0  0
   -7.7353    5.8222  -15.9928 C   0  0  0  0  0  0  0  0  0  0  0  0
   -9.5589    5.2577  -14.3560 C   0  0  0  0  0  0  0  0  0  0  0  0
   -8.7027    5.1127   -8.9334 C   0  0  0  0  0  0  0  0  0  0  0  0
   -6.9872    6.5900  -14.9410 C   0  0  0  0  0  0  0  0  0  0  0  0
   -7.9313    7.1019  -13.8594 C   0  0  0  0  0  0  0  0  0  0  0  0
   -9.7894    6.6085  -12.2323 C   0  0  0  0  0  0  0  0  0  0  0  0
   -7.8823    4.9269  -12.5311 C   0  0  0  0  0  0  0  0  0  0  0  0
   -9.2352    6.6917  -10.8132 C   0  0  0  0  0  0  0  0  0  0  0  0
   -8.5311    4.3388  -11.2816 C   0  0  0  0  0  0  0  0  0  0  0  0
   -8.7843    5.9763  -13.2346 C   0  0  0  0  0  0  0  0  0  0  0  0
  -10.6497    3.5317   -8.1667 C   0  0  0  0  0  0  0  0  0  0  0  0
   -9.0799    1.5801   -8.3573 C   0  0  0  0  0  0  0  0  0  0  0  0
   -8.8586    3.1800   -6.4338 C   0  0  0  0  0  0  0  0  0  0  0  0
   -9.2288    3.0324   -7.9090 C   0  0  0  0  0  0  0  0  0  0  0  0
   -8.8307    5.3801  -10.2999 N   0  0  0  0  0  0  0  0  0  0  0  0
  -10.6254    4.6817  -14.1513 O   0  0  0  0  0  0  0  0  0  0  0  0
   -8.9125    5.9346   -8.0433 O   0  0  0  0  0  0  0  0  0  0  0  0
   -8.3208    3.8197   -8.6879 O   0  0  0  0  0  0  0  0  0  0  0  0
   -9.5797    3.8206  -18.7741 H   0  0  0  0  0  0  0  0  0  0  0  0
   -7.4057    4.9059  -19.2645 H   0  0  0  0  0  0  0  0  0  0  0  0
  -10.5683    3.9790  -16.5318 H   0  0  0  0  0  0  0  0  0  0  0  0
   -6.2260    6.1693  -17.5056 H   0  0  0  0  0  0  0  0  0  0  0  0
   -6.2184    5.9456  -14.5067 H   0  0  0  0  0  0  0  0  0  0  0  0
   -6.4833    7.4480  -15.3957 H   0  0  0  0  0  0  0  0  0  0  0  0
   -7.3421    7.6120  -13.0887 H   0  0  0  0  0  0  0  0  0  0  0  0
   -8.5943    7.8584  -14.3003 H   0  0  0  0  0  0  0  0  0  0  0  0
  -10.7178    6.0402  -12.2194 H   0  0  0  0  0  0  0  0  0  0  0  0
  -10.0280    7.6218  -12.5561 H   0  0  0  0  0  0  0  0  0  0  0  0
   -6.9357    5.3965  -12.2439 H   0  0  0  0  0  0  0  0  0  0  0  0
   -7.6386    4.1026  -13.2066 H   0  0  0  0  0  0  0  0  0  0  0  0
   -8.3970    7.3997  -10.7947 H   0  0  0  0  0  0  0  0  0  0  0  0
   -9.9841    7.0889  -10.1148 H   0  0  0  0  0  0  0  0  0  0  0  0
   -9.4757    3.8387  -11.5287 H   0  0  0  0  0  0  0  0  0  0  0  0
   -7.8708    3.5798  -10.8470 H   0  0  0  0  0  0  0  0  0  0  0  0
  -10.7607    4.5738   -7.8462 H   0  0  0  0  0  0  0  0  0  0  0  0
  -10.9151    3.4638   -9.2267 H   0  0  0  0  0  0  0  0  0  0  0  0
  -11.3788    2.9515   -7.5895 H   0  0  0  0  0  0  0  0  0  0  0  0
   -8.0619    1.2177   -8.1742 H   0  0  0  0  0  0  0  0  0  0  0  0
   -9.2523    1.4849   -9.4355 H   0  0  0  0  0  0  0  0  0  0  0  0
   -9.7815    0.9220   -7.8346 H   0  0  0  0  0  0  0  0  0  0  0  0
   -7.8394    2.8219   -6.2487 H   0  0  0  0  0  0  0  0  0  0  0  0
   -8.9241    4.2219   -6.1039 H   0  0  0  0  0  0  0  0  0  0  0  0
   -9.5188    2.5730   -5.8038 H   0  0  0  0  0  0  0  0  0  0  0  0
  1  2  2  0  0  0  0
  1  3  1  0  0  0  0
  2  4  1  0  0  0  0
  3  5  2  0  0  0  0
  4  6  2  0  0  0  0
  5  6  1  0  0  0  0
  5  7  1  0  0  0  0
  6  9  1  0  0  0  0
  7 15  1  0  0  0  0
  7 21  2  0  0  0  0
  8 20  1  0  0  0  0
  8 22  2  0  0  0  0
  8 23  1  0  0  0  0
  9 10  1  0  0  0  0
 10 15  1  0  0  0  0
 11 13  1  0  0  0  0
 11 15  1  0  0  0  0
 12 14  1  0  0  0  0
 12 15  1  0  0  0  0
 13 20  1  0  0  0  0
 14 20  1  0  0  0  0
 16 19  1  0  0  0  0
 17 19  1  0  0  0  0
 18 19  1  0  0  0  0
 19 23  1  0  0  0  0
  1 24  1  0  0  0  0
  2 25  1  0  0  0  0
  3 26  1  0  0  0  0
  4 27  1  0  0  0  0
  9 28  1  0  0  0  0
  9 29  1  0  0  0  0
 10 30  1  0  0  0  0
 10 31  1  0  0  0  0
 11 32  1  0  0  0  0
 11 33  1  0  0  0  0
 12 34  1  0  0  0  0
 12 35  1  0  0  0  0
 13 36  1  0  0  0  0
 13 37  1  0  0  0  0
 14 38  1  0  0  0  0
 14 39  1  0  0  0  0
 16 40  1  0  0  0  0
 16 41  1  0  0  0  0
 16 42  1  0  0  0  0
 17 43  1  0  0  0  0
 17 44  1  0  0  0  0
 17 45  1  0  0  0  0
 18 46  1  0  0  0  0
 18 47  1  0  0  0  0
 18 48  1  0  0  0  0
M  END
> <id>
EN300-28293105

> <smiles>
CC(C)(C)OC(=O)N1CCC2(CC1)CCC=3C=CC=CC3C2=O

> <IUPAC Name>
tert-butyl 1-oxo-3,4-dihydro-1H-spiro[naphthalene-2,4'-piperidine]-1'-carboxylate

> <CAS>
1228079-30-8

> <URL>
https://www.enaminestore.com/catalog/EN300-28293105

> <ROCS_ShapeQuery>
_x0404_0B

> <ROCS_TanimotoCombo>
0.419 

> <ROCS_ShapeTanimoto>
0.368 

> <ROCS_ColorTanimoto>
0.050 

> <ROCS_RefTversky>
0.323 

> <ROCS_RefColorTversky>
0.054 

> <ROCS_RefTverskyCombo>
0.377 

> <ROCS_FitTversky>
1.620 

> <ROCS_FitColorTversky>
0.413 

> <ROCS_FitTverskyCombo>
2.033 

> <ROCS_ColorScore>
-3.918

> <ROCS_Overlap>
2154.234

> <ROCS_Rank>
43                  

$$$$
untitled-dbase-11453_171
  -OEChem-08212314543D

 49 51  0     1  0  0  0  0  0999 V2000
   -8.6333    3.9864  -17.9058 C   0  0  0  0  0  0  0  0  0  0  0  0
   -8.4884    5.3680  -17.9806 C   0  0  0  0  0  0  0  0  0  0  0  0
   -8.5558    3.3411  -16.6700 C   0  0  0  0  0  0  0  0  0  0  0  0
   -8.2829    6.1063  -16.8179 C   0  0  0  0  0  0  0  0  0  0  0  0
   -8.3197    4.0666  -15.4901 C   0  0  0  0  0  0  0  0  0  0  0  0
   -8.2183    5.4634  -15.5770 C   0  0  0  0  0  0  0  0  0  0  0  0
   -9.1534    5.2373   -9.2156 C   0  0  0  0  0  0  0  0  0  0  0  0
   -7.6051    6.6751  -12.1760 C   0  0  0  0  0  0  0  0  0  0  0  0
   -9.8183    5.7386  -12.9259 C   0  0  0  0  0  0  0  0  0  0  0  0
   -7.6531    4.3279  -13.1055 C   0  0  0  0  0  0  0  0  0  0  0  0
   -8.3973    6.9081  -10.8862 C   0  0  0  0  0  0  0  0  0  0  0  0
  -10.1544    5.2619  -11.5156 C   0  0  0  0  0  0  0  0  0  0  0  0
   -8.2380    3.3713  -14.1503 C   0  0  2  0  0  0  0  0  0  0  0  0
   -8.2975    5.7270  -13.1945 C   0  0  0  0  0  0  0  0  0  0  0  0
  -10.4288    3.9342   -7.0108 C   0  0  0  0  0  0  0  0  0  0  0  0
   -9.6798    1.7898   -8.0830 C   0  0  0  0  0  0  0  0  0  0  0  0
   -7.9742    3.4590   -7.3002 C   0  0  0  0  0  0  0  0  0  0  0  0
   -9.3704    3.2731   -7.8926 C   0  0  0  0  0  0  0  0  0  0  0  0
   -9.2092    5.7568  -10.5122 N   0  0  0  0  0  0  0  0  0  0  0  0
   -7.4078    2.1623  -14.1683 N   0  0  0  0  0  0  0  0  0  0  0  0
   -8.9121    5.9011   -8.2095 O   0  0  0  0  0  0  0  0  0  0  0  0
   -8.0435    6.2904  -14.4977 O   0  0  0  0  0  0  0  0  0  0  0  0
   -9.4035    3.8901   -9.1845 O   0  0  0  0  0  0  0  0  0  0  0  0
   -8.8082    3.4086  -18.8088 H   0  0  0  0  0  0  0  0  0  0  0  0
   -8.5456    5.8706  -18.9415 H   0  0  0  0  0  0  0  0  0  0  0  0
   -8.6832    2.2621  -16.6427 H   0  0  0  0  0  0  0  0  0  0  0  0
   -8.1863    7.1871  -16.8827 H   0  0  0  0  0  0  0  0  0  0  0  0
   -7.4301    7.6583  -12.6473 H   0  0  0  0  0  0  0  0  0  0  0  0
   -6.6091    6.2755  -11.9134 H   0  0  0  0  0  0  0  0  0  0  0  0
  -10.3285    5.0965  -13.6539 H   0  0  0  0  0  0  0  0  0  0  0  0
  -10.2304    6.7466  -13.0380 H   0  0  0  0  0  0  0  0  0  0  0  0
   -7.7753    3.9102  -12.0991 H   0  0  0  0  0  0  0  0  0  0  0  0
   -6.5729    4.4349  -13.2802 H   0  0  0  0  0  0  0  0  0  0  0  0
   -7.6990    7.1862  -10.0818 H   0  0  0  0  0  0  0  0  0  0  0  0
   -9.0827    7.7642  -11.0051 H   0  0  0  0  0  0  0  0  0  0  0  0
  -11.1552    5.6115  -11.2150 H   0  0  0  0  0  0  0  0  0  0  0  0
  -10.1910    4.1622  -11.4963 H   0  0  0  0  0  0  0  0  0  0  0  0
   -9.2536    3.0873  -13.8533 H   0  0  0  0  0  0  0  0  0  0  0  0
  -10.2103    4.9991   -6.8717 H   0  0  0  0  0  0  0  0  0  0  0  0
  -11.4305    3.8383   -7.4422 H   0  0  0  0  0  0  0  0  0  0  0  0
  -10.4387    3.4874   -6.0101 H   0  0  0  0  0  0  0  0  0  0  0  0
   -8.9229    1.3114   -8.7151 H   0  0  0  0  0  0  0  0  0  0  0  0
  -10.6397    1.6538   -8.5943 H   0  0  0  0  0  0  0  0  0  0  0  0
   -9.7183    1.2590   -7.1263 H   0  0  0  0  0  0  0  0  0  0  0  0
   -7.2149    2.9849   -7.9325 H   0  0  0  0  0  0  0  0  0  0  0  0
   -7.7204    4.5184   -7.1908 H   0  0  0  0  0  0  0  0  0  0  0  0
   -7.9010    2.9800   -6.3172 H   0  0  0  0  0  0  0  0  0  0  0  0
   -7.4130    1.7761  -13.2562 H   0  0  0  0  0  0  0  0  0  0  0  0
   -7.8025    1.5326  -14.8232 H   0  0  0  0  0  0  0  0  0  0  0  0
  1  2  2  0  0  0  0
  1  3  1  0  0  0  0
  2  4  1  0  0  0  0
  3  5  2  0  0  0  0
  4  6  2  0  0  0  0
  5  6  1  0  0  0  0
  5 13  1  0  0  0  0
  6 22  1  0  0  0  0
  7 19  1  0  0  0  0
  7 21  2  0  0  0  0
  7 23  1  0  0  0  0
  8 11  1  0  0  0  0
  8 14  1  0  0  0  0
  9 12  1  0  0  0  0
  9 14  1  0  0  0  0
 10 13  1  0  0  0  0
 10 14  1  0  0  0  0
 11 19  1  0  0  0  0
 12 19  1  0  0  0  0
 13 20  1  0  0  0  0
 14 22  1  0  0  0  0
 15 18  1  0  0  0  0
 16 18  1  0  0  0  0
 17 18  1  0  0  0  0
 18 23  1  0  0  0  0
  1 24  1  0  0  0  0
  2 25  1  0  0  0  0
  3 26  1  0  0  0  0
  4 27  1  0  0  0  0
  8 28  1  0  0  0  0
  8 29  1  0  0  0  0
  9 30  1  0  0  0  0
  9 31  1  0  0  0  0
 10 32  1  0  0  0  0
 10 33  1  0  0  0  0
 11 34  1  0  0  0  0
 11 35  1  0  0  0  0
 12 36  1  0  0  0  0
 12 37  1  0  0  0  0
 13 38  1  0  0  0  0
 15 39  1  0  0  0  0
 15 40  1  0  0  0  0
 15 41  1  0  0  0  0
 16 42  1  0  0  0  0
 16 43  1  0  0  0  0
 16 44  1  0  0  0  0
 17 45  1  0  0  0  0
 17 46  1  0  0  0  0
 17 47  1  0  0  0  0
 20 48  1  0  0  0  0
 20 49  1  0  0  0  0
M  END
> <id>
EN300-386157

> <smiles>
CC(C)(C)OC(=O)N1CCC2(CC1)CC(N)C=3C=CC=CC3O2

> <MDLNUMBER>
MFCD12198634

> <IUPAC Name>
tert-butyl 4-amino-3,4-dihydrospiro[1-benzopyran-2,4'-piperidine]-1'-carboxylate

> <CAS>
1160247-73-3

> <Purity>
95

> <URL>
https://www.enaminestore.com/catalog/EN300-386157

> <ROCS_ShapeQuery>
_x0404_0B

> <ROCS_TanimotoCombo>
0.418 

> <ROCS_ShapeTanimoto>
0.328 

> <ROCS_ColorTanimoto>
0.091 

> <ROCS_RefTversky>
0.296 

> <ROCS_RefColorTversky>
0.096 

> <ROCS_RefTverskyCombo>
0.392 

> <ROCS_FitTversky>
1.484 

> <ROCS_FitColorTversky>
0.611 

> <ROCS_FitTverskyCombo>
2.095 

> <ROCS_ColorScore>
-6.958

> <ROCS_Overlap>
1976.016

> <ROCS_Rank>
44                  

$$$$
untitled-dbase-41610_37
  -OEChem-08212314543D

 84 87  0     0  0  0  0  0  0999 V2000
   -5.3405    5.0163  -13.2903 C   0  0  0  0  0  0  0  0  0  0  0  0
   -5.8962    3.2110  -14.7975 C   0  0  0  0  0  0  0  0  0  0  0  0
   -5.3502    4.1231  -12.2154 C   0  0  0  0  0  0  0  0  0  0  0  0
   -5.9071    2.3173  -13.7220 C   0  0  0  0  0  0  0  0  0  0  0  0
   -8.8768    6.7360  -15.3685 C   0  0  0  0  0  0  0  0  0  0  0  0
   -9.4460    4.6070  -14.3663 C   0  0  0  0  0  0  0  0  0  0  0  0
   -8.7174    7.2933  -14.0980 C   0  0  0  0  0  0  0  0  0  0  0  0
   -9.2930    5.1646  -13.0962 C   0  0  0  0  0  0  0  0  0  0  0  0
   -8.1567    2.4708   -8.4913 C   0  0  0  0  0  0  0  0  0  0  0  0
   -7.9133    3.7207   -7.9174 C   0  0  0  0  0  0  0  0  0  0  0  0
  -10.4347    3.1298   -8.9663 C   0  0  0  0  0  0  0  0  0  0  0  0
  -10.1970    4.3743   -8.3793 C   0  0  0  0  0  0  0  0  0  0  0  0
   -5.6008    4.5630  -14.5889 C   0  0  0  0  0  0  0  0  0  0  0  0
   -9.2256    5.3866  -15.5075 C   0  0  0  0  0  0  0  0  0  0  0  0
   -5.6239    2.7676  -12.4277 C   0  0  0  0  0  0  0  0  0  0  0  0
   -8.9137    6.5040  -12.9621 C   0  0  0  0  0  0  0  0  0  0  0  0
   -9.4139    2.1748   -9.0298 C   0  0  0  0  0  0  0  0  0  0  0  0
   -8.9303    4.6789   -7.8717 C   0  0  0  0  0  0  0  0  0  0  0  0
   -5.5448    5.5446  -15.7012 C   0  0  0  0  0  0  0  0  0  0  0  0
   -9.3405    4.7332  -16.8329 C   0  0  0  0  0  0  0  0  0  0  0  0
   -5.5402    1.8425  -11.2714 C   0  0  0  0  0  0  0  0  0  0  0  0
   -8.7395    7.0465  -11.6014 C   0  0  0  0  0  0  0  0  0  0  0  0
   -9.7015    0.8843   -9.6989 C   0  0  0  0  0  0  0  0  0  0  0  0
   -8.6986    6.0367   -7.3328 C   0  0  0  0  0  0  0  0  0  0  0  0
   -6.0747    4.9384  -19.2898 C   0  0  0  0  0  0  0  0  0  0  0  0
   -7.3782    4.1285  -19.2346 C   0  0  0  0  0  0  0  0  0  0  0  0
   -6.6541   -1.6513  -11.0885 C   0  0  0  0  0  0  0  0  0  0  0  0
   -8.1736   -1.4879  -11.2347 C   0  0  0  0  0  0  0  0  0  0  0  0
   -6.2657    7.7563   -9.7660 C   0  0  0  0  0  0  0  0  0  0  0  0
   -5.9195    8.0952   -8.3134 C   0  0  0  0  0  0  0  0  0  0  0  0
   -5.7539    5.7690  -18.0503 C   0  0  0  0  0  0  0  0  0  0  0  0
   -8.6435    4.9752  -19.1060 C   0  0  0  0  0  0  0  0  0  0  0  0
   -5.9122   -0.4053  -10.6176 C   0  0  0  0  0  0  0  0  0  0  0  0
   -7.4278    8.5694  -10.3292 C   0  0  0  0  0  0  0  0  0  0  0  0
   -8.9118   -1.3594   -9.9030 C   0  0  0  0  0  0  0  0  0  0  0  0
   -7.0190    7.7360   -7.3129 C   0  0  0  0  0  0  0  0  0  0  0  0
   -5.3244    6.7340  -15.5344 O   0  0  0  0  0  0  0  0  0  0  0  0
   -9.8355    3.6297  -16.9973 O   0  0  0  0  0  0  0  0  0  0  0  0
   -5.0409    2.1545  -10.2018 O   0  0  0  0  0  0  0  0  0  0  0  0
   -9.3339    6.6040  -10.6321 O   0  0  0  0  0  0  0  0  0  0  0  0
  -10.6606    0.7152  -10.4352 O   0  0  0  0  0  0  0  0  0  0  0  0
   -9.5834    6.7441   -6.8810 O   0  0  0  0  0  0  0  0  0  0  0  0
   -5.7668    4.9255  -16.8887 O   0  0  0  0  0  0  0  0  0  0  0  0
   -8.7655    5.5161  -17.7799 O   0  0  0  0  0  0  0  0  0  0  0  0
   -6.0666    0.6348  -11.5965 O   0  0  0  0  0  0  0  0  0  0  0  0
   -7.8007    8.0284  -11.6118 O   0  0  0  0  0  0  0  0  0  0  0  0
   -8.7684   -0.0383   -9.3534 O   0  0  0  0  0  0  0  0  0  0  0  0
   -7.3964    6.3639   -7.5183 O   0  0  0  0  0  0  0  0  0  0  0  0
   -5.1331    6.0649  -13.0873 H   0  0  0  0  0  0  0  0  0  0  0  0
   -6.1083    2.8283  -15.7923 H   0  0  0  0  0  0  0  0  0  0  0  0
   -5.1348    4.5095  -11.2219 H   0  0  0  0  0  0  0  0  0  0  0  0
   -6.1534    1.2765  -13.9148 H   0  0  0  0  0  0  0  0  0  0  0  0
   -8.7148    7.3720  -16.2347 H   0  0  0  0  0  0  0  0  0  0  0  0
   -9.7164    3.5575  -14.4455 H   0  0  0  0  0  0  0  0  0  0  0  0
   -8.4275    8.3363  -14.0275 H   0  0  0  0  0  0  0  0  0  0  0  0
   -9.4496    4.5322  -12.2283 H   0  0  0  0  0  0  0  0  0  0  0  0
   -7.3503    1.7413   -8.4979 H   0  0  0  0  0  0  0  0  0  0  0  0
   -6.9282    3.9122   -7.5036 H   0  0  0  0  0  0  0  0  0  0  0  0
  -11.4293    2.9167   -9.3494 H   0  0  0  0  0  0  0  0  0  0  0  0
  -11.0192    5.0797   -8.3070 H   0  0  0  0  0  0  0  0  0  0  0  0
   -5.2556    4.2248  -19.4486 H   0  0  0  0  0  0  0  0  0  0  0  0
   -6.0927    5.5992  -20.1652 H   0  0  0  0  0  0  0  0  0  0  0  0
   -7.4440    3.5514  -20.1655 H   0  0  0  0  0  0  0  0  0  0  0  0
   -7.3195    3.4051  -18.4126 H   0  0  0  0  0  0  0  0  0  0  0  0
   -6.4820   -2.4519  -10.3620 H   0  0  0  0  0  0  0  0  0  0  0  0
   -6.2289   -1.9810  -12.0405 H   0  0  0  0  0  0  0  0  0  0  0  0
   -8.3505   -0.5769  -11.8154 H   0  0  0  0  0  0  0  0  0  0  0  0
   -8.5736   -2.3261  -11.8123 H   0  0  0  0  0  0  0  0  0  0  0  0
   -5.3708    7.9081  -10.3958 H   0  0  0  0  0  0  0  0  0  0  0  0
   -6.5226    6.6844   -9.8382 H   0  0  0  0  0  0  0  0  0  0  0  0
   -4.9853    7.5762   -8.0333 H   0  0  0  0  0  0  0  0  0  0  0  0
   -5.7145    9.1774   -8.2303 H   0  0  0  0  0  0  0  0  0  0  0  0
   -4.7557    6.2080  -18.1595 H   0  0  0  0  0  0  0  0  0  0  0  0
   -6.4793    6.5803  -17.9296 H   0  0  0  0  0  0  0  0  0  0  0  0
   -8.6244    5.8157  -19.8079 H   0  0  0  0  0  0  0  0  0  0  0  0
   -9.5307    4.3776  -19.3475 H   0  0  0  0  0  0  0  0  0  0  0  0
   -6.3408   -0.0671   -9.6693 H   0  0  0  0  0  0  0  0  0  0  0  0
   -4.8507   -0.6194  -10.4674 H   0  0  0  0  0  0  0  0  0  0  0  0
   -8.2721    8.5632   -9.6405 H   0  0  0  0  0  0  0  0  0  0  0  0
   -7.1339    9.6067  -10.4858 H   0  0  0  0  0  0  0  0  0  0  0  0
   -9.9838   -1.5518  -10.0301 H   0  0  0  0  0  0  0  0  0  0  0  0
   -8.5399   -2.1026   -9.1855 H   0  0  0  0  0  0  0  0  0  0  0  0
   -6.6791    7.9033   -6.2931 H   0  0  0  0  0  0  0  0  0  0  0  0
   -7.9030    8.3481   -7.4773 H   0  0  0  0  0  0  0  0  0  0  0  0
  1  3  1  0  0  0  0
  1 13  2  0  0  0  0
  2  4  2  0  0  0  0
  2 13  1  0  0  0  0
  3 15  2  0  0  0  0
  4 15  1  0  0  0  0
  5  7  1  0  0  0  0
  5 14  2  0  0  0  0
  6  8  2  0  0  0  0
  6 14  1  0  0  0  0
  7 16  2  0  0  0  0
  8 16  1  0  0  0  0
  9 10  1  0  0  0  0
  9 17  2  0  0  0  0
 10 18  2  0  0  0  0
 11 12  2  0  0  0  0
 11 17  1  0  0  0  0
 12 18  1  0  0  0  0
 13 19  1  0  0  0  0
 14 20  1  0  0  0  0
 15 21  1  0  0  0  0
 16 22  1  0  0  0  0
 17 23  1  0  0  0  0
 18 24  1  0  0  0  0
 19 37  2  0  0  0  0
 19 43  1  0  0  0  0
 20 38  2  0  0  0  0
 20 44  1  0  0  0  0
 21 39  2  0  0  0  0
 21 45  1  0  0  0  0
 22 40  2  0  0  0  0
 22 46  1  0  0  0  0
 23 41  2  0  0  0  0
 23 47  1  0  0  0  0
 24 42  2  0  0  0  0
 24 48  1  0  0  0  0
 25 26  1  0  0  0  0
 25 31  1  0  0  0  0
 26 32  1  0  0  0  0
 27 28  1  0  0  0  0
 27 33  1  0  0  0  0
 28 35  1  0  0  0  0
 29 30  1  0  0  0  0
 29 34  1  0  0  0  0
 30 36  1  0  0  0  0
 31 43  1  0  0  0  0
 32 44  1  0  0  0  0
 33 45  1  0  0  0  0
 34 46  1  0  0  0  0
 35 47  1  0  0  0  0
 36 48  1  0  0  0  0
  1 49  1  0  0  0  0
  2 50  1  0  0  0  0
  3 51  1  0  0  0  0
  4 52  1  0  0  0  0
  5 53  1  0  0  0  0
  6 54  1  0  0  0  0
  7 55  1  0  0  0  0
  8 56  1  0  0  0  0
  9 57  1  0  0  0  0
 10 58  1  0  0  0  0
 11 59  1  0  0  0  0
 12 60  1  0  0  0  0
 25 61  1  0  0  0  0
 25 62  1  0  0  0  0
 26 63  1  0  0  0  0
 26 64  1  0  0  0  0
 27 65  1  0  0  0  0
 27 66  1  0  0  0  0
 28 67  1  0  0  0  0
 28 68  1  0  0  0  0
 29 69  1  0  0  0  0
 29 70  1  0  0  0  0
 30 71  1  0  0  0  0
 30 72  1  0  0  0  0
 31 73  1  0  0  0  0
 31 74  1  0  0  0  0
 32 75  1  0  0  0  0
 32 76  1  0  0  0  0
 33 77  1  0  0  0  0
 33 78  1  0  0  0  0
 34 79  1  0  0  0  0
 34 80  1  0  0  0  0
 35 81  1  0  0  0  0
 35 82  1  0  0  0  0
 36 83  1  0  0  0  0
 36 84  1  0  0  0  0
M  END
> <id>
EN300-20177691

> <smiles>
O=C1OCCCCOC(=O)C=2C=CC(=CC2)C(=O)OCCCCOC(=O)C=3C=CC(=CC3)C(=O)OCCCCOC(=O)C=4C=CC1=CC4

> <MDLNUMBER>
MFCD22572531

> <IUPAC Name>
3,8,15,20,27,32-hexaoxatetracyclo[32.2.2.2^{10,13}.2^{22,25}]dotetraconta-1(36),10,12,22,24,34,37,39,41-nonaene-2,9,14,21,26,33-hexone

> <CAS>
63440-94-8

> <Purity>
95

> <URL>
https://www.enaminestore.com/catalog/EN300-20177691

> <MP>
155-157

> <ROCS_ShapeQuery>
_x0404_0B

> <ROCS_TanimotoCombo>
0.418 

> <ROCS_ShapeTanimoto>
0.364 

> <ROCS_ColorTanimoto>
0.054 

> <ROCS_RefTversky>
0.362 

> <ROCS_RefColorTversky>
0.060 

> <ROCS_RefTverskyCombo>
0.422 

> <ROCS_FitTversky>
1.018 

> <ROCS_FitColorTversky>
0.351 

> <ROCS_FitTverskyCombo>
1.369 

> <ROCS_ColorScore>
-4.331

> <ROCS_Overlap>
2437.319

> <ROCS_Rank>
45                  

$$$$
untitled-dbase-11888_41
  -OEChem-08212314543D

 46 48  0     0  0  0  0  0  0999 V2000
   -9.1152    1.9742   -8.4383 C   0  0  0  0  0  0  0  0  0  0  0  0
   -9.2473    2.5068   -7.1460 C   0  0  0  0  0  0  0  0  0  0  0  0
   -8.9684    2.8146   -9.5436 C   0  0  0  0  0  0  0  0  0  0  0  0
   -9.2346    3.8880   -6.9401 C   0  0  0  0  0  0  0  0  0  0  0  0
   -8.9590    4.1831   -9.3289 C   0  0  0  0  0  0  0  0  0  0  0  0
   -9.0883    4.7147   -8.0421 C   0  0  0  0  0  0  0  0  0  0  0  0
   -8.9044    6.4860   -9.2756 C   0  0  0  0  0  0  0  0  0  0  0  0
   -8.1265    5.7887  -14.5856 C   0  0  0  0  0  0  0  0  0  0  0  0
   -9.9807    5.3728  -11.2969 C   0  0  0  0  0  0  0  0  0  0  0  0
   -7.4264    5.3022  -10.9873 C   0  0  0  0  0  0  0  0  0  0  0  0
   -9.6250    6.0921  -12.5962 C   0  0  0  0  0  0  0  0  0  0  0  0
   -7.5035    4.7698  -12.4153 C   0  0  0  0  0  0  0  0  0  0  0  0
   -8.8058    5.3282  -10.3034 C   0  0  0  0  0  0  0  0  0  0  0  0
   -8.8822    7.9276   -9.6753 C   0  0  0  0  0  0  0  0  0  0  0  0
   -6.2233    6.1654  -16.6882 C   0  0  0  0  0  0  0  0  0  0  0  0
   -6.3013    3.6691  -16.9564 C   0  0  0  0  0  0  0  0  0  0  0  0
   -8.3747    5.0336  -17.3404 C   0  0  0  0  0  0  0  0  0  0  0  0
   -7.0826    4.9114  -16.5339 C   0  0  0  0  0  0  0  0  0  0  0  0
   -9.0569    6.1170   -8.0336 N   0  0  0  0  0  0  0  0  0  0  0  0
   -8.4214    5.5560  -13.2378 N   0  0  0  0  0  0  0  0  0  0  0  0
   -8.4618    6.7961  -15.2057 O   0  0  0  0  0  0  0  0  0  0  0  0
   -7.4212    4.7584  -15.1507 O   0  0  0  0  0  0  0  0  0  0  0  0
   -9.1277    0.8964   -8.5780 H   0  0  0  0  0  0  0  0  0  0  0  0
   -9.3605    1.8360   -6.2983 H   0  0  0  0  0  0  0  0  0  0  0  0
   -8.8652    2.3984  -10.5393 H   0  0  0  0  0  0  0  0  0  0  0  0
   -9.3371    4.2964   -5.9405 H   0  0  0  0  0  0  0  0  0  0  0  0
  -10.8502    5.8566  -10.8488 H   0  0  0  0  0  0  0  0  0  0  0  0
  -10.2851    4.3577  -11.5622 H   0  0  0  0  0  0  0  0  0  0  0  0
   -6.7476    4.6522  -10.4350 H   0  0  0  0  0  0  0  0  0  0  0  0
   -6.9814    6.2959  -11.0001 H   0  0  0  0  0  0  0  0  0  0  0  0
  -10.4820    6.0414  -13.2901 H   0  0  0  0  0  0  0  0  0  0  0  0
   -9.4459    7.1663  -12.4235 H   0  0  0  0  0  0  0  0  0  0  0  0
   -6.5213    4.8041  -12.9062 H   0  0  0  0  0  0  0  0  0  0  0  0
   -7.7938    3.7107  -12.3933 H   0  0  0  0  0  0  0  0  0  0  0  0
   -9.8982    8.2742   -9.8620 H   0  0  0  0  0  0  0  0  0  0  0  0
   -8.2877    8.0508  -10.5805 H   0  0  0  0  0  0  0  0  0  0  0  0
   -8.4386    8.5246   -8.8786 H   0  0  0  0  0  0  0  0  0  0  0  0
   -6.7806    7.0593  -16.3860 H   0  0  0  0  0  0  0  0  0  0  0  0
   -5.3101    6.1051  -16.0872 H   0  0  0  0  0  0  0  0  0  0  0  0
   -5.9388    6.3179  -17.7356 H   0  0  0  0  0  0  0  0  0  0  0  0
   -6.9140    2.7670  -16.8472 H   0  0  0  0  0  0  0  0  0  0  0  0
   -5.4226    3.5246  -16.3173 H   0  0  0  0  0  0  0  0  0  0  0  0
   -5.9662    3.7369  -17.9964 H   0  0  0  0  0  0  0  0  0  0  0  0
   -8.9912    4.1342  -17.2298 H   0  0  0  0  0  0  0  0  0  0  0  0
   -8.9664    5.8991  -17.0253 H   0  0  0  0  0  0  0  0  0  0  0  0
   -8.1583    5.1305  -18.4105 H   0  0  0  0  0  0  0  0  0  0  0  0
  1  2  2  0  0  0  0
  1  3  1  0  0  0  0
  2  4  1  0  0  0  0
  3  5  2  0  0  0  0
  4  6  2  0  0  0  0
  5  6  1  0  0  0  0
  5 13  1  0  0  0  0
  6 19  1  0  0  0  0
  7 13  1  0  0  0  0
  7 14  1  0  0  0  0
  7 19  2  0  0  0  0
  8 20  1  0  0  0  0
  8 21  2  0  0  0  0
  8 22  1  0  0  0  0
  9 11  1  0  0  0  0
  9 13  1  0  0  0  0
 10 12  1  0  0  0  0
 10 13  1  0  0  0  0
 11 20  1  0  0  0  0
 12 20  1  0  0  0  0
 15 18  1  0  0  0  0
 16 18  1  0  0  0  0
 17 18  1  0  0  0  0
 18 22  1  0  0  0  0
  1 23  1  0  0  0  0
  2 24  1  0  0  0  0
  3 25  1  0  0  0  0
  4 26  1  0  0  0  0
  9 27  1  0  0  0  0
  9 28  1  0  0  0  0
 10 29  1  0  0  0  0
 10 30  1  0  0  0  0
 11 31  1  0  0  0  0
 11 32  1  0  0  0  0
 12 33  1  0  0  0  0
 12 34  1  0  0  0  0
 14 35  1  0  0  0  0
 14 36  1  0  0  0  0
 14 37  1  0  0  0  0
 15 38  1  0  0  0  0
 15 39  1  0  0  0  0
 15 40  1  0  0  0  0
 16 41  1  0  0  0  0
 16 42  1  0  0  0  0
 16 43  1  0  0  0  0
 17 44  1  0  0  0  0
 17 45  1  0  0  0  0
 17 46  1  0  0  0  0
M  END
> <id>
EN300-659019

> <smiles>
CC1=NC=2C=CC=CC2C31CCN(CC3)C(=O)OC(C)(C)C

> <MDLNUMBER>
MFCD31421891

> <IUPAC Name>
tert-butyl 2-methylspiro[indole-3,4'-piperidine]-1'-carboxylate

> <CAS>
2137958-00-8

> <Purity>
95

> <URL>
https://www.enaminestore.com/catalog/EN300-659019

> <ROCS_ShapeQuery>
_x0404_0B

> <ROCS_TanimotoCombo>
0.418 

> <ROCS_ShapeTanimoto>
0.328 

> <ROCS_ColorTanimoto>
0.090 

> <ROCS_RefTversky>
0.295 

> <ROCS_RefColorTversky>
0.093 

> <ROCS_RefTverskyCombo>
0.388 

> <ROCS_FitTversky>
1.522 

> <ROCS_FitColorTversky>
0.710 

> <ROCS_FitTverskyCombo>
2.232 

> <ROCS_ColorScore>
-6.741

> <ROCS_Overlap>
1969.161

> <ROCS_Rank>
46                  

$$$$
untitled-dbase-45655_200
  -OEChem-08212314543D

 45 47  0     0  0  0  0  0  0999 V2000
   -8.5869    5.1702  -17.9304 C   0  0  0  0  0  0  0  0  0  0  0  0
   -8.4758    6.0014  -16.8197 C   0  0  0  0  0  0  0  0  0  0  0  0
   -8.3920    3.8095  -17.7494 C   0  0  0  0  0  0  0  0  0  0  0  0
   -8.1841    5.4522  -15.5760 C   0  0  0  0  0  0  0  0  0  0  0  0
   -7.9892    4.0827  -15.5103 C   0  0  0  0  0  0  0  0  0  0  0  0
   -7.6007    3.4740  -14.2331 C   0  0  0  0  0  0  0  0  0  0  0  0
   -9.0217    5.1347   -9.2053 C   0  0  0  0  0  0  0  0  0  0  0  0
   -7.3148    4.4385  -13.1130 C   0  0  0  0  0  0  0  0  0  0  0  0
   -9.7155    5.3661  -12.9382 C   0  0  0  0  0  0  0  0  0  0  0  0
   -7.7367    6.7475  -12.1876 C   0  0  0  0  0  0  0  0  0  0  0  0
   -9.9592    4.8688  -11.5158 C   0  0  0  0  0  0  0  0  0  0  0  0
   -8.6009    6.8670  -10.9304 C   0  0  0  0  0  0  0  0  0  0  0  0
   -8.2244    5.6805  -13.2089 C   0  0  0  0  0  0  0  0  0  0  0  0
  -10.0939    3.7831   -6.9231 C   0  0  0  0  0  0  0  0  0  0  0  0
   -9.1019    1.7017   -7.9195 C   0  0  0  0  0  0  0  0  0  0  0  0
   -7.6040    3.6003   -7.2417 C   0  0  0  0  0  0  0  0  0  0  0  0
   -8.9752    3.2187   -7.7975 C   0  0  0  0  0  0  0  0  0  0  0  0
   -8.0909    3.2398  -16.5616 N   0  0  0  0  0  0  0  0  0  0  0  0
   -9.1609    5.5859  -10.5209 N   0  0  0  0  0  0  0  0  0  0  0  0
   -7.4591    2.2622  -14.1279 O   0  0  0  0  0  0  0  0  0  0  0  0
   -8.8494    5.8665   -8.2328 O   0  0  0  0  0  0  0  0  0  0  0  0
   -8.0945    6.2970  -14.5100 O   0  0  0  0  0  0  0  0  0  0  0  0
   -9.1032    3.7695   -9.1132 O   0  0  0  0  0  0  0  0  0  0  0  0
   -8.8215    5.5754  -18.9083 H   0  0  0  0  0  0  0  0  0  0  0  0
   -8.6274    7.0714  -16.9303 H   0  0  0  0  0  0  0  0  0  0  0  0
   -8.4715    3.1216  -18.5849 H   0  0  0  0  0  0  0  0  0  0  0  0
   -7.4613    3.9285  -12.1563 H   0  0  0  0  0  0  0  0  0  0  0  0
   -6.2604    4.7210  -13.2028 H   0  0  0  0  0  0  0  0  0  0  0  0
  -10.0692    4.6050  -13.6482 H   0  0  0  0  0  0  0  0  0  0  0  0
  -10.3404    6.2548  -13.0948 H   0  0  0  0  0  0  0  0  0  0  0  0
   -7.7097    7.7383  -12.6760 H   0  0  0  0  0  0  0  0  0  0  0  0
   -6.6969    6.5245  -11.8858 H   0  0  0  0  0  0  0  0  0  0  0  0
  -11.0175    4.9965  -11.2342 H   0  0  0  0  0  0  0  0  0  0  0  0
   -9.7539    3.7880  -11.4636 H   0  0  0  0  0  0  0  0  0  0  0  0
   -8.0034    7.3199  -10.1267 H   0  0  0  0  0  0  0  0  0  0  0  0
   -9.4472    7.5491  -11.1088 H   0  0  0  0  0  0  0  0  0  0  0  0
  -10.0065    4.8718   -6.8330 H   0  0  0  0  0  0  0  0  0  0  0  0
  -11.0824    3.5461   -7.3299 H   0  0  0  0  0  0  0  0  0  0  0  0
  -10.0338    3.3829   -5.9046 H   0  0  0  0  0  0  0  0  0  0  0  0
   -8.3012    1.2924   -8.5461 H   0  0  0  0  0  0  0  0  0  0  0  0
  -10.0451    1.4267   -8.4053 H   0  0  0  0  0  0  0  0  0  0  0  0
   -9.0605    1.2128   -6.9409 H   0  0  0  0  0  0  0  0  0  0  0  0
   -6.8013    3.1956   -7.8687 H   0  0  0  0  0  0  0  0  0  0  0  0
   -7.4812    4.6866   -7.1817 H   0  0  0  0  0  0  0  0  0  0  0  0
   -7.4577    3.1776   -6.2411 H   0  0  0  0  0  0  0  0  0  0  0  0
  1  2  1  0  0  0  0
  1  3  2  0  0  0  0
  2  4  2  0  0  0  0
  3 18  1  0  0  0  0
  4  5  1  0  0  0  0
  4 22  1  0  0  0  0
  5  6  1  0  0  0  0
  5 18  2  0  0  0  0
  6  8  1  0  0  0  0
  6 20  2  0  0  0  0
  7 19  1  0  0  0  0
  7 21  2  0  0  0  0
  7 23  1  0  0  0  0
  8 13  1  0  0  0  0
  9 11  1  0  0  0  0
  9 13  1  0  0  0  0
 10 12  1  0  0  0  0
 10 13  1  0  0  0  0
 11 19  1  0  0  0  0
 12 19  1  0  0  0  0
 13 22  1  0  0  0  0
 14 17  1  0  0  0  0
 15 17  1  0  0  0  0
 16 17  1  0  0  0  0
 17 23  1  0  0  0  0
  1 24  1  0  0  0  0
  2 25  1  0  0  0  0
  3 26  1  0  0  0  0
  8 27  1  0  0  0  0
  8 28  1  0  0  0  0
  9 29  1  0  0  0  0
  9 30  1  0  0  0  0
 10 31  1  0  0  0  0
 10 32  1  0  0  0  0
 11 33  1  0  0  0  0
 11 34  1  0  0  0  0
 12 35  1  0  0  0  0
 12 36  1  0  0  0  0
 14 37  1  0  0  0  0
 14 38  1  0  0  0  0
 14 39  1  0  0  0  0
 15 40  1  0  0  0  0
 15 41  1  0  0  0  0
 15 42  1  0  0  0  0
 16 43  1  0  0  0  0
 16 44  1  0  0  0  0
 16 45  1  0  0  0  0
M  END
> <id>
EN300-6496398

> <smiles>
CC(C)(C)OC(=O)N1CCC2(CC1)CC(=O)C=3N=CC=CC3O2

> <MDLNUMBER>
MFCD16660828

> <IUPAC Name>
tert-butyl 4'-oxo-3',4'-dihydrospiro[piperidine-4,2'-pyrano[3,2-b]pyridine]-1-carboxylate

> <CAS>
1051383-43-7

> <URL>
https://www.enaminestore.com/catalog/EN300-6496398

> <ROCS_ShapeQuery>
_x0404_0B

> <ROCS_TanimotoCombo>
0.418 

> <ROCS_ShapeTanimoto>
0.328 

> <ROCS_ColorTanimoto>
0.090 

> <ROCS_RefTversky>
0.297 

> <ROCS_RefColorTversky>
0.096 

> <ROCS_RefTverskyCombo>
0.392 

> <ROCS_FitTversky>
1.471 

> <ROCS_FitColorTversky>
0.607 

> <ROCS_FitTverskyCombo>
2.078 

> <ROCS_ColorScore>
-6.916

> <ROCS_Overlap>
1981.082

> <ROCS_Rank>
47                  

$$$$
untitled-dbase-52304_157
  -OEChem-08212314543D

 44 46  0     0  0  0  0  0  0999 V2000
   -8.7626    5.1657   -9.2256 C   0  0  0  0  0  0  0  0  0  0  0  0
   -7.6070    6.1726  -13.5313 C   0  0  0  0  0  0  0  0  0  0  0  0
   -9.7139    5.6229  -13.6796 C   0  0  0  0  0  0  0  0  0  0  0  0
   -8.1550    4.3849  -15.3468 C   0  0  0  0  0  0  0  0  0  0  0  0
   -8.6468    6.4219  -15.9200 C   0  0  0  0  0  0  0  0  0  0  0  0
   -8.9964    6.5793  -11.3614 C   0  0  0  0  0  0  0  0  0  0  0  0
   -8.4333    4.5159  -11.7087 C   0  0  0  0  0  0  0  0  0  0  0  0
   -8.5224    5.6623  -14.6256 C   0  0  0  0  0  0  0  0  0  0  0  0
   -8.6907    5.7314  -12.5620 C   0  0  0  0  0  0  0  0  0  0  0  0
   -8.7326    5.0390  -16.6427 C   0  0  0  0  0  0  0  0  0  0  0  0
  -10.8201    3.6608   -8.6354 C   0  0  0  0  0  0  0  0  0  0  0  0
   -9.2990    1.6619   -8.6299 C   0  0  0  0  0  0  0  0  0  0  0  0
   -9.2249    3.2951   -6.7233 C   0  0  0  0  0  0  0  0  0  0  0  0
   -7.8411    4.9006  -17.8667 C   0  0  0  0  0  0  0  0  0  0  0  0
   -9.4484    3.1269   -8.2255 C   0  0  0  0  0  0  0  0  0  0  0  0
   -8.7328    5.3813  -10.5755 N   0  0  0  0  0  0  0  0  0  0  0  0
   -9.0411    6.0259   -8.3949 O   0  0  0  0  0  0  0  0  0  0  0  0
  -10.0725    4.6123  -16.9776 O   0  0  0  0  0  0  0  0  0  0  0  0
   -8.4430    3.8714   -8.9221 O   0  0  0  0  0  0  0  0  0  0  0  0
   -7.6404    3.6032  -18.1499 F   0  0  0  0  0  0  0  0  0  0  0  0
   -8.4157    5.4900  -18.9278 F   0  0  0  0  0  0  0  0  0  0  0  0
   -6.6516    5.4820  -17.6419 F   0  0  0  0  0  0  0  0  0  0  0  0
   -6.6668    5.6150  -13.4320 H   0  0  0  0  0  0  0  0  0  0  0  0
   -7.3712    7.2421  -13.5438 H   0  0  0  0  0  0  0  0  0  0  0  0
  -10.4303    6.4423  -13.7685 H   0  0  0  0  0  0  0  0  0  0  0  0
  -10.2612    4.6749  -13.6954 H   0  0  0  0  0  0  0  0  0  0  0  0
   -7.0937    4.1361  -15.3715 H   0  0  0  0  0  0  0  0  0  0  0  0
   -8.7136    3.5067  -15.0141 H   0  0  0  0  0  0  0  0  0  0  0  0
   -9.5611    7.0183  -16.0157 H   0  0  0  0  0  0  0  0  0  0  0  0
   -7.7972    7.0509  -16.2013 H   0  0  0  0  0  0  0  0  0  0  0  0
   -8.2962    7.3916  -11.1408 H   0  0  0  0  0  0  0  0  0  0  0  0
  -10.0276    6.9329  -11.2587 H   0  0  0  0  0  0  0  0  0  0  0  0
   -9.1432    3.6934  -11.8124 H   0  0  0  0  0  0  0  0  0  0  0  0
   -7.4080    4.1418  -11.6963 H   0  0  0  0  0  0  0  0  0  0  0  0
  -10.9312    4.7122   -8.3469 H   0  0  0  0  0  0  0  0  0  0  0  0
  -10.9788    3.5780   -9.7156 H   0  0  0  0  0  0  0  0  0  0  0  0
  -11.6211    3.1139   -8.1250 H   0  0  0  0  0  0  0  0  0  0  0  0
   -8.3162    1.2747   -8.3377 H   0  0  0  0  0  0  0  0  0  0  0  0
   -9.3643    1.5488   -9.7182 H   0  0  0  0  0  0  0  0  0  0  0  0
  -10.0695    1.0351   -8.1694 H   0  0  0  0  0  0  0  0  0  0  0  0
   -8.2410    2.9123   -6.4290 H   0  0  0  0  0  0  0  0  0  0  0  0
   -9.2918    4.3452   -6.4207 H   0  0  0  0  0  0  0  0  0  0  0  0
   -9.9636    2.7206   -6.1528 H   0  0  0  0  0  0  0  0  0  0  0  0
  -10.2994    5.0871  -17.7860 H   0  0  0  0  0  0  0  0  0  0  0  0
  1 16  1  0  0  0  0
  1 17  2  0  0  0  0
  1 19  1  0  0  0  0
  2  8  1  0  0  0  0
  2  9  1  0  0  0  0
  3  8  1  0  0  0  0
  3  9  1  0  0  0  0
  4  8  1  0  0  0  0
  4 10  1  0  0  0  0
  5  8  1  0  0  0  0
  5 10  1  0  0  0  0
  6  9  1  0  0  0  0
  6 16  1  0  0  0  0
  7  9  1  0  0  0  0
  7 16  1  0  0  0  0
 10 14  1  0  0  0  0
 10 18  1  0  0  0  0
 11 15  1  0  0  0  0
 12 15  1  0  0  0  0
 13 15  1  0  0  0  0
 14 20  1  0  0  0  0
 14 21  1  0  0  0  0
 14 22  1  0  0  0  0
 15 19  1  0  0  0  0
  2 23  1  0  0  0  0
  2 24  1  0  0  0  0
  3 25  1  0  0  0  0
  3 26  1  0  0  0  0
  4 27  1  0  0  0  0
  4 28  1  0  0  0  0
  5 29  1  0  0  0  0
  5 30  1  0  0  0  0
  6 31  1  0  0  0  0
  6 32  1  0  0  0  0
  7 33  1  0  0  0  0
  7 34  1  0  0  0  0
 11 35  1  0  0  0  0
 11 36  1  0  0  0  0
 11 37  1  0  0  0  0
 12 38  1  0  0  0  0
 12 39  1  0  0  0  0
 12 40  1  0  0  0  0
 13 41  1  0  0  0  0
 13 42  1  0  0  0  0
 13 43  1  0  0  0  0
 18 44  1  0  0  0  0
M  END
> <id>
EN300-33035860

> <smiles>
CC(C)(C)OC(=O)N1CC2(C1)CC3(CC(O)(C3)C(F)(F)F)C2

> <IUPAC Name>
tert-butyl 8-hydroxy-8-(trifluoromethyl)-2-azadispiro[3.1.3^{6}.1^{4}]decane-2-carboxylate

> <Purity>
95

> <URL>
https://www.enaminestore.com/catalog/EN300-33035860

> <ROCS_ShapeQuery>
_x0404_0B

> <ROCS_TanimotoCombo>
0.417 

> <ROCS_ShapeTanimoto>
0.379 

> <ROCS_ColorTanimoto>
0.038 

> <ROCS_RefTversky>
0.328 

> <ROCS_RefColorTversky>
0.042 

> <ROCS_RefTverskyCombo>
0.371 

> <ROCS_FitTversky>
1.684 

> <ROCS_FitColorTversky>
0.291 

> <ROCS_FitTverskyCombo>
1.975 

> <ROCS_ColorScore>
-3.055

> <ROCS_Overlap>
2192.722

> <ROCS_Rank>
48                  

$$$$
untitled-dbase-31593_24
  -OEChem-08212314543D

 37 38  0     0  0  0  0  0  0999 V2000
   -8.0919    2.5156  -11.4655 C   0  0  0  0  0  0  0  0  0  0  0  0
   -7.8460    1.4651  -10.9377 C   0  0  0  0  0  0  0  0  0  0  0  0
   -9.3490    7.6416  -10.8467 C   0  0  0  0  0  0  0  0  0  0  0  0
   -9.2316    7.2682  -12.1894 C   0  0  0  0  0  0  0  0  0  0  0  0
   -9.1460    6.7196   -9.8277 C   0  0  0  0  0  0  0  0  0  0  0  0
   -8.4043    3.9589  -13.4498 C   0  0  0  0  0  0  0  0  0  0  0  0
   -8.3830    3.7616  -12.0918 C   0  0  0  0  0  0  0  0  0  0  0  0
   -8.6948    4.9957  -11.4747 C   0  0  0  0  0  0  0  0  0  0  0  0
   -8.9023    5.9337  -12.4953 C   0  0  0  0  0  0  0  0  0  0  0  0
   -8.8187    5.3957  -10.1277 C   0  0  0  0  0  0  0  0  0  0  0  0
   -8.8342    5.8508  -14.9970 C   0  0  0  0  0  0  0  0  0  0  0  0
   -7.2591    5.0877  -17.2305 C   0  0  0  0  0  0  0  0  0  0  0  0
   -9.3410    3.9671  -18.0787 C   0  0  0  0  0  0  0  0  0  0  0  0
   -9.3113    6.4548  -17.7346 C   0  0  0  0  0  0  0  0  0  0  0  0
   -7.5488    0.1860  -10.2940 C   0  0  0  0  0  0  0  0  0  0  0  0
   -8.7869    5.1107  -17.2316 C   0  0  0  0  0  0  0  0  0  0  0  0
   -8.7198    5.2795  -13.7184 N   0  0  0  0  0  0  0  0  0  0  0  0
   -8.5814    7.0275  -15.1965 O   0  0  0  0  0  0  0  0  0  0  0  0
   -6.3492   -0.3530  -10.8310 O   0  0  0  0  0  0  0  0  0  0  0  0
   -9.2462    4.9155  -15.8906 O   0  0  0  0  0  0  0  0  0  0  0  0
   -8.6252    4.5224   -9.1295 F   0  0  0  0  0  0  0  0  0  0  0  0
   -9.6030    8.6690  -10.5987 H   0  0  0  0  0  0  0  0  0  0  0  0
   -9.3972    8.0105  -12.9622 H   0  0  0  0  0  0  0  0  0  0  0  0
   -9.2409    7.0283   -8.7905 H   0  0  0  0  0  0  0  0  0  0  0  0
   -8.2186    3.2562  -14.2523 H   0  0  0  0  0  0  0  0  0  0  0  0
   -6.8575    5.9071  -16.6236 H   0  0  0  0  0  0  0  0  0  0  0  0
   -6.8702    4.1421  -16.8391 H   0  0  0  0  0  0  0  0  0  0  0  0
   -6.8652    5.2314  -18.2432 H   0  0  0  0  0  0  0  0  0  0  0  0
  -10.4369    3.9797  -18.0823 H   0  0  0  0  0  0  0  0  0  0  0  0
   -9.0448    2.9962  -17.6653 H   0  0  0  0  0  0  0  0  0  0  0  0
   -8.9902    4.0246  -19.1141 H   0  0  0  0  0  0  0  0  0  0  0  0
  -10.4072    6.4716  -17.7355 H   0  0  0  0  0  0  0  0  0  0  0  0
   -8.9536    7.2843  -17.1161 H   0  0  0  0  0  0  0  0  0  0  0  0
   -8.9985    6.6324  -18.7700 H   0  0  0  0  0  0  0  0  0  0  0  0
   -7.4183    0.3164   -9.2155 H   0  0  0  0  0  0  0  0  0  0  0  0
   -8.3580   -0.5304  -10.4648 H   0  0  0  0  0  0  0  0  0  0  0  0
   -6.4973   -0.4745  -11.7830 H   0  0  0  0  0  0  0  0  0  0  0  0
  1  2  3  0  0  0  0
  1  7  1  0  0  0  0
  2 15  1  0  0  0  0
  3  4  1  0  0  0  0
  3  5  2  0  0  0  0
  4  9  2  0  0  0  0
  5 10  1  0  0  0  0
  6  7  2  0  0  0  0
  6 17  1  0  0  0  0
  7  8  1  0  0  0  0
  8  9  1  0  0  0  0
  8 10  2  0  0  0  0
  9 17  1  0  0  0  0
 10 21  1  0  0  0  0
 11 17  1  0  0  0  0
 11 18  2  0  0  0  0
 11 20  1  0  0  0  0
 12 16  1  0  0  0  0
 13 16  1  0  0  0  0
 14 16  1  0  0  0  0
 15 19  1  0  0  0  0
 16 20  1  0  0  0  0
  3 22  1  0  0  0  0
  4 23  1  0  0  0  0
  5 24  1  0  0  0  0
  6 25  1  0  0  0  0
 12 26  1  0  0  0  0
 12 27  1  0  0  0  0
 12 28  1  0  0  0  0
 13 29  1  0  0  0  0
 13 30  1  0  0  0  0
 13 31  1  0  0  0  0
 14 32  1  0  0  0  0
 14 33  1  0  0  0  0
 14 34  1  0  0  0  0
 15 35  1  0  0  0  0
 15 36  1  0  0  0  0
 19 37  1  0  0  0  0
M  END
> <id>
EN300-697697

> <smiles>
CC(C)(C)OC(=O)N1C=C(C#CCO)C=2C(F)=CC=CC12

> <MDLNUMBER>
MFCD31431498

> <IUPAC Name>
tert-butyl 4-fluoro-3-(3-hydroxyprop-1-yn-1-yl)-1H-indole-1-carboxylate

> <CAS>
2137730-43-7

> <URL>
https://www.enaminestore.com/catalog/EN300-697697

> <ROCS_ShapeQuery>
_x0404_0B

> <ROCS_TanimotoCombo>
0.417 

> <ROCS_ShapeTanimoto>
0.301 

> <ROCS_ColorTanimoto>
0.116 

> <ROCS_RefTversky>
0.275 

> <ROCS_RefColorTversky>
0.118 

> <ROCS_RefTverskyCombo>
0.392 

> <ROCS_FitTversky>
1.468 

> <ROCS_FitColorTversky>
0.893 

> <ROCS_FitTverskyCombo>
2.362 

> <ROCS_ColorScore>
-8.485

> <ROCS_Overlap>
1833.688

> <ROCS_Rank>
49                  

$$$$
untitled-dbase-45586_153
  -OEChem-08212314543D

 45 47  0     0  0  0  0  0  0999 V2000
   -9.7482    4.9628  -16.6269 C   0  0  0  0  0  0  0  0  0  0  0  0
   -9.0792    5.0198  -17.8493 C   0  0  0  0  0  0  0  0  0  0  0  0
   -7.0090    5.6539  -16.7326 C   0  0  0  0  0  0  0  0  0  0  0  0
   -9.0188    5.2527  -15.4880 C   0  0  0  0  0  0  0  0  0  0  0  0
   -7.6753    5.5925  -15.5189 C   0  0  0  0  0  0  0  0  0  0  0  0
   -7.7181    5.3624  -17.9024 C   0  0  0  0  0  0  0  0  0  0  0  0
   -9.4645    5.2589  -14.1036 C   0  0  0  0  0  0  0  0  0  0  0  0
   -8.8645    5.2161   -9.0013 C   0  0  0  0  0  0  0  0  0  0  0  0
   -7.1184    5.8871  -14.1634 C   0  0  0  0  0  0  0  0  0  0  0  0
   -8.5781    6.7647  -12.2681 C   0  0  0  0  0  0  0  0  0  0  0  0
   -7.9365    4.3000  -12.3441 C   0  0  0  0  0  0  0  0  0  0  0  0
   -9.5220    6.4458  -11.1090 C   0  0  0  0  0  0  0  0  0  0  0  0
   -8.9074    4.0524  -11.1913 C   0  0  0  0  0  0  0  0  0  0  0  0
   -8.2812    5.5542  -13.1723 C   0  0  0  0  0  0  0  0  0  0  0  0
  -10.4905    4.2547   -7.3152 C   0  0  0  0  0  0  0  0  0  0  0  0
   -9.7703    2.0227   -8.2145 C   0  0  0  0  0  0  0  0  0  0  0  0
   -8.4885    3.0863   -6.3346 C   0  0  0  0  0  0  0  0  0  0  0  0
   -9.3001    3.3411   -7.6039 C   0  0  0  0  0  0  0  0  0  0  0  0
   -9.0800    5.2549  -10.3823 N   0  0  0  0  0  0  0  0  0  0  0  0
  -10.6189    5.0385  -13.7821 O   0  0  0  0  0  0  0  0  0  0  0  0
   -9.0222    6.1753   -8.2481 O   0  0  0  0  0  0  0  0  0  0  0  0
   -8.4545    3.9842   -8.5644 O   0  0  0  0  0  0  0  0  0  0  0  0
   -7.0932    5.4087  -19.0868 F   0  0  0  0  0  0  0  0  0  0  0  0
  -10.7991    4.7013  -16.5821 H   0  0  0  0  0  0  0  0  0  0  0  0
   -9.6134    4.7973  -18.7689 H   0  0  0  0  0  0  0  0  0  0  0  0
   -5.9585    5.9209  -16.7811 H   0  0  0  0  0  0  0  0  0  0  0  0
   -6.2392    5.2583  -13.9848 H   0  0  0  0  0  0  0  0  0  0  0  0
   -6.8142    6.9374  -14.1021 H   0  0  0  0  0  0  0  0  0  0  0  0
   -9.0071    7.5875  -12.8562 H   0  0  0  0  0  0  0  0  0  0  0  0
   -7.6366    7.1419  -11.8437 H   0  0  0  0  0  0  0  0  0  0  0  0
   -6.9297    4.4109  -11.9232 H   0  0  0  0  0  0  0  0  0  0  0  0
   -7.9166    3.4129  -12.9872 H   0  0  0  0  0  0  0  0  0  0  0  0
   -9.5817    7.3075  -10.4373 H   0  0  0  0  0  0  0  0  0  0  0  0
  -10.5364    6.2498  -11.4708 H   0  0  0  0  0  0  0  0  0  0  0  0
   -9.8966    3.7682  -11.5678 H   0  0  0  0  0  0  0  0  0  0  0  0
   -8.5460    3.2126  -10.5903 H   0  0  0  0  0  0  0  0  0  0  0  0
  -10.1572    5.2022   -6.8768 H   0  0  0  0  0  0  0  0  0  0  0  0
  -11.0607    4.4735   -8.2239 H   0  0  0  0  0  0  0  0  0  0  0  0
  -11.1666    3.7967   -6.5841 H   0  0  0  0  0  0  0  0  0  0  0  0
   -8.9194    1.3641   -8.4232 H   0  0  0  0  0  0  0  0  0  0  0  0
  -10.2710    2.1936   -9.1743 H   0  0  0  0  0  0  0  0  0  0  0  0
  -10.4629    1.4945   -7.5512 H   0  0  0  0  0  0  0  0  0  0  0  0
   -7.6346    2.4311   -6.5414 H   0  0  0  0  0  0  0  0  0  0  0  0
   -8.1116    4.0191   -5.9028 H   0  0  0  0  0  0  0  0  0  0  0  0
   -9.0960    2.5737   -5.5800 H   0  0  0  0  0  0  0  0  0  0  0  0
  1  2  1  0  0  0  0
  1  4  2  0  0  0  0
  2  6  2  0  0  0  0
  3  5  2  0  0  0  0
  3  6  1  0  0  0  0
  4  5  1  0  0  0  0
  4  7  1  0  0  0  0
  5  9  1  0  0  0  0
  6 23  1  0  0  0  0
  7 14  1  0  0  0  0
  7 20  2  0  0  0  0
  8 19  1  0  0  0  0
  8 21  2  0  0  0  0
  8 22  1  0  0  0  0
  9 14  1  0  0  0  0
 10 12  1  0  0  0  0
 10 14  1  0  0  0  0
 11 13  1  0  0  0  0
 11 14  1  0  0  0  0
 12 19  1  0  0  0  0
 13 19  1  0  0  0  0
 15 18  1  0  0  0  0
 16 18  1  0  0  0  0
 17 18  1  0  0  0  0
 18 22  1  0  0  0  0
  1 24  1  0  0  0  0
  2 25  1  0  0  0  0
  3 26  1  0  0  0  0
  9 27  1  0  0  0  0
  9 28  1  0  0  0  0
 10 29  1  0  0  0  0
 10 30  1  0  0  0  0
 11 31  1  0  0  0  0
 11 32  1  0  0  0  0
 12 33  1  0  0  0  0
 12 34  1  0  0  0  0
 13 35  1  0  0  0  0
 13 36  1  0  0  0  0
 15 37  1  0  0  0  0
 15 38  1  0  0  0  0
 15 39  1  0  0  0  0
 16 40  1  0  0  0  0
 16 41  1  0  0  0  0
 16 42  1  0  0  0  0
 17 43  1  0  0  0  0
 17 44  1  0  0  0  0
 17 45  1  0  0  0  0
M  END
> <id>
EN300-7352825

> <smiles>
CC(C)(C)OC(=O)N1CCC2(CC=3C=C(F)C=CC3C2=O)CC1

> <MDLNUMBER>
MFCD32876782

> <IUPAC Name>
tert-butyl 5-fluoro-1-oxo-1,3-dihydrospiro[indene-2,4'-piperidine]-1'-carboxylate

> <CAS>
2377355-10-5

> <URL>
https://www.enaminestore.com/catalog/EN300-7352825

> <ROCS_ShapeQuery>
_x0404_0B

> <ROCS_TanimotoCombo>
0.417 

> <ROCS_ShapeTanimoto>
0.368 

> <ROCS_ColorTanimoto>
0.049 

> <ROCS_RefTversky>
0.323 

> <ROCS_RefColorTversky>
0.053 

> <ROCS_RefTverskyCombo>
0.376 

> <ROCS_FitTversky>
1.612 

> <ROCS_FitColorTversky>
0.399 

> <ROCS_FitTverskyCombo>
2.011 

> <ROCS_ColorScore>
-3.791

> <ROCS_Overlap>
2158.463

> <ROCS_Rank>
50                  

$$$$
untitled-dbase-12197_24
  -OEChem-08212314543D

 40 41  0     0  0  0  0  0  0999 V2000
   -8.0905    2.5223  -11.4494 C   0  0  0  0  0  0  0  0  0  0  0  0
   -7.8439    1.4698  -10.9258 C   0  0  0  0  0  0  0  0  0  0  0  0
   -9.3494    7.6557  -10.8419 C   0  0  0  0  0  0  0  0  0  0  0  0
   -9.1467    6.7379   -9.8191 C   0  0  0  0  0  0  0  0  0  0  0  0
   -9.2314    7.2769  -12.1831 C   0  0  0  0  0  0  0  0  0  0  0  0
   -8.4030    3.9627  -13.4297 C   0  0  0  0  0  0  0  0  0  0  0  0
   -8.3823    3.7709  -12.0710 C   0  0  0  0  0  0  0  0  0  0  0  0
   -8.6946    5.0074  -11.4589 C   0  0  0  0  0  0  0  0  0  0  0  0
   -8.8191    5.4128  -10.1136 C   0  0  0  0  0  0  0  0  0  0  0  0
   -8.9018    5.9413  -12.4834 C   0  0  0  0  0  0  0  0  0  0  0  0
   -8.8326    5.8483  -14.9848 C   0  0  0  0  0  0  0  0  0  0  0  0
   -8.6133    4.4789   -8.9609 C   0  0  0  0  0  0  0  0  0  0  0  0
   -7.2564    5.0765  -17.2145 C   0  0  0  0  0  0  0  0  0  0  0  0
   -9.3377    3.9521  -18.0590 C   0  0  0  0  0  0  0  0  0  0  0  0
   -9.3086    6.4413  -17.7250 C   0  0  0  0  0  0  0  0  0  0  0  0
   -7.5460    0.1885  -10.2872 C   0  0  0  0  0  0  0  0  0  0  0  0
   -8.7842    5.0992  -17.2163 C   0  0  0  0  0  0  0  0  0  0  0  0
   -8.7187    5.2822  -13.7038 N   0  0  0  0  0  0  0  0  0  0  0  0
   -8.5799    7.0243  -15.1889 O   0  0  0  0  0  0  0  0  0  0  0  0
   -6.3495   -0.3509  -10.8308 O   0  0  0  0  0  0  0  0  0  0  0  0
   -9.2440    4.9094  -15.8748 O   0  0  0  0  0  0  0  0  0  0  0  0
   -9.6032    8.6843  -10.5986 H   0  0  0  0  0  0  0  0  0  0  0  0
   -9.2454    7.0634   -8.7866 H   0  0  0  0  0  0  0  0  0  0  0  0
   -9.3958    8.0167  -12.9586 H   0  0  0  0  0  0  0  0  0  0  0  0
   -8.2162    3.2570  -14.2294 H   0  0  0  0  0  0  0  0  0  0  0  0
   -9.5607    4.0018   -8.6903 H   0  0  0  0  0  0  0  0  0  0  0  0
   -7.8850    3.7003   -9.2123 H   0  0  0  0  0  0  0  0  0  0  0  0
   -8.2252    5.0140   -8.0872 H   0  0  0  0  0  0  0  0  0  0  0  0
   -6.8552    5.8984  -16.6107 H   0  0  0  0  0  0  0  0  0  0  0  0
   -6.8675    4.1325  -16.8191 H   0  0  0  0  0  0  0  0  0  0  0  0
   -6.8620    5.2161  -18.2275 H   0  0  0  0  0  0  0  0  0  0  0  0
  -10.4336    3.9645  -18.0631 H   0  0  0  0  0  0  0  0  0  0  0  0
   -9.0416    2.9830  -17.6416 H   0  0  0  0  0  0  0  0  0  0  0  0
   -8.9865    4.0055  -19.0946 H   0  0  0  0  0  0  0  0  0  0  0  0
  -10.4045    6.4578  -17.7264 H   0  0  0  0  0  0  0  0  0  0  0  0
   -8.9512    7.2733  -17.1096 H   0  0  0  0  0  0  0  0  0  0  0  0
   -8.9954    6.6146  -18.7609 H   0  0  0  0  0  0  0  0  0  0  0  0
   -7.4107    0.3154   -9.2088 H   0  0  0  0  0  0  0  0  0  0  0  0
   -8.3570   -0.5262  -10.4566 H   0  0  0  0  0  0  0  0  0  0  0  0
   -6.5019   -0.4693  -11.7825 H   0  0  0  0  0  0  0  0  0  0  0  0
  1  2  3  0  0  0  0
  1  7  1  0  0  0  0
  2 16  1  0  0  0  0
  3  4  1  0  0  0  0
  3  5  2  0  0  0  0
  4  9  2  0  0  0  0
  5 10  1  0  0  0  0
  6  7  2  0  0  0  0
  6 18  1  0  0  0  0
  7  8  1  0  0  0  0
  8  9  1  0  0  0  0
  8 10  2  0  0  0  0
  9 12  1  0  0  0  0
 10 18  1  0  0  0  0
 11 18  1  0  0  0  0
 11 19  2  0  0  0  0
 11 21  1  0  0  0  0
 13 17  1  0  0  0  0
 14 17  1  0  0  0  0
 15 17  1  0  0  0  0
 16 20  1  0  0  0  0
 17 21  1  0  0  0  0
  3 22  1  0  0  0  0
  4 23  1  0  0  0  0
  5 24  1  0  0  0  0
  6 25  1  0  0  0  0
 12 26  1  0  0  0  0
 12 27  1  0  0  0  0
 12 28  1  0  0  0  0
 13 29  1  0  0  0  0
 13 30  1  0  0  0  0
 13 31  1  0  0  0  0
 14 32  1  0  0  0  0
 14 33  1  0  0  0  0
 14 34  1  0  0  0  0
 15 35  1  0  0  0  0
 15 36  1  0  0  0  0
 15 37  1  0  0  0  0
 16 38  1  0  0  0  0
 16 39  1  0  0  0  0
 20 40  1  0  0  0  0
M  END
> <id>
EN300-697692

> <smiles>
CC=1C=CC=C2N(C=C(C#CCO)C12)C(=O)OC(C)(C)C

> <MDLNUMBER>
MFCD31431493

> <IUPAC Name>
tert-butyl 3-(3-hydroxyprop-1-yn-1-yl)-4-methyl-1H-indole-1-carboxylate

> <CAS>
2137730-38-0

> <URL>
https://www.enaminestore.com/catalog/EN300-697692

> <ROCS_ShapeQuery>
_x0404_0B

> <ROCS_TanimotoCombo>
0.417 

> <ROCS_ShapeTanimoto>
0.301 

> <ROCS_ColorTanimoto>
0.116 

> <ROCS_RefTversky>
0.274 

> <ROCS_RefColorTversky>
0.118 

> <ROCS_RefTverskyCombo>
0.392 

> <ROCS_FitTversky>
1.471 

> <ROCS_FitColorTversky>
0.894 

> <ROCS_FitTverskyCombo>
2.365 

> <ROCS_ColorScore>
-8.486

> <ROCS_Overlap>
1829.412

> <ROCS_Rank>
51                  

$$$$
untitled-dbase-10105_171
  -OEChem-08212314543D

 46 48  0     1  0  0  0  0  0999 V2000
   -9.0855    4.2017   -6.9549 C   0  0  0  0  0  0  0  0  0  0  0  0
   -9.1012    2.8226   -6.7456 C   0  0  0  0  0  0  0  0  0  0  0  0
   -9.1885    2.4540   -9.1329 C   0  0  0  0  0  0  0  0  0  0  0  0
   -9.1199    4.7021   -8.2592 C   0  0  0  0  0  0  0  0  0  0  0  0
   -9.1553    3.8327   -9.3494 C   0  0  0  0  0  0  0  0  0  0  0  0
   -9.1573    1.9502   -7.8323 C   0  0  0  0  0  0  0  0  0  0  0  0
   -9.1550    6.1548   -8.5024 C   0  0  0  0  0  0  0  0  0  0  0  0
   -8.3537    5.7653  -14.7298 C   0  0  0  0  0  0  0  0  0  0  0  0
   -9.3297    6.5792   -9.9365 C   0  0  0  0  0  0  0  0  0  0  0  0
   -6.4818    4.6288  -11.8093 C   0  0  0  0  0  0  0  0  0  0  0  0
   -7.1392    5.6070  -10.8305 C   0  0  0  0  0  0  0  0  0  0  0  0
   -7.3476    4.2859  -13.0175 C   0  0  0  0  0  0  0  0  0  0  0  0
   -9.1047    5.9419  -12.3416 C   0  0  0  0  0  0  0  0  0  0  0  0
   -8.6805    5.5739  -10.8994 C   0  0  2  0  0  0  0  0  0  0  0  0
   -7.1815    6.1026  -17.3182 C   0  0  0  0  0  0  0  0  0  0  0  0
   -7.9411    3.7506  -17.7660 C   0  0  0  0  0  0  0  0  0  0  0  0
   -9.6349    5.5418  -17.2855 C   0  0  0  0  0  0  0  0  0  0  0  0
   -8.2241    5.0349  -16.9897 C   0  0  0  0  0  0  0  0  0  0  0  0
   -8.2422    5.3753  -13.3895 N   0  0  0  0  0  0  0  0  0  0  0  0
   -9.1066    6.9590   -7.5792 O   0  0  0  0  0  0  0  0  0  0  0  0
   -8.6138    6.9073  -15.1036 O   0  0  0  0  0  0  0  0  0  0  0  0
   -9.1793    4.2453  -10.6528 O   0  0  0  0  0  0  0  0  0  0  0  0
   -8.1344    4.7244  -15.5945 O   0  0  0  0  0  0  0  0  0  0  0  0
   -9.1835    0.6266   -7.6271 F   0  0  0  0  0  0  0  0  0  0  0  0
   -9.0393    4.8650   -6.0960 H   0  0  0  0  0  0  0  0  0  0  0  0
   -9.0638    2.4272   -5.7348 H   0  0  0  0  0  0  0  0  0  0  0  0
   -9.2517    1.7660   -9.9719 H   0  0  0  0  0  0  0  0  0  0  0  0
  -10.4003    6.6779  -10.1492 H   0  0  0  0  0  0  0  0  0  0  0  0
   -8.8635    7.5678  -10.0299 H   0  0  0  0  0  0  0  0  0  0  0  0
   -5.5197    5.0517  -12.1559 H   0  0  0  0  0  0  0  0  0  0  0  0
   -6.2154    3.6956  -11.2754 H   0  0  0  0  0  0  0  0  0  0  0  0
   -6.8001    5.3536   -9.8167 H   0  0  0  0  0  0  0  0  0  0  0  0
   -6.7766    6.6213  -11.0491 H   0  0  0  0  0  0  0  0  0  0  0  0
   -6.7116    4.0685  -13.8951 H   0  0  0  0  0  0  0  0  0  0  0  0
   -7.9198    3.3633  -12.8146 H   0  0  0  0  0  0  0  0  0  0  0  0
  -10.1594    5.6540  -12.5345 H   0  0  0  0  0  0  0  0  0  0  0  0
   -9.0857    7.0465  -12.4786 H   0  0  0  0  0  0  0  0  0  0  0  0
   -7.3811    7.0260  -16.7629 H   0  0  0  0  0  0  0  0  0  0  0  0
   -6.1683    5.7644  -17.0778 H   0  0  0  0  0  0  0  0  0  0  0  0
   -7.2148    6.3677  -18.3811 H   0  0  0  0  0  0  0  0  0  0  0  0
   -8.6867    2.9818  -17.5333 H   0  0  0  0  0  0  0  0  0  0  0  0
   -6.9679    3.3316  -17.4857 H   0  0  0  0  0  0  0  0  0  0  0  0
   -7.9462    3.9226  -18.8472 H   0  0  0  0  0  0  0  0  0  0  0  0
  -10.3829    4.7761  -17.0500 H   0  0  0  0  0  0  0  0  0  0  0  0
   -9.8690    6.4426  -16.7089 H   0  0  0  0  0  0  0  0  0  0  0  0
   -9.7513    5.7703  -18.3511 H   0  0  0  0  0  0  0  0  0  0  0  0
  1  2  1  0  0  0  0
  1  4  2  0  0  0  0
  2  6  2  0  0  0  0
  3  5  2  0  0  0  0
  3  6  1  0  0  0  0
  4  5  1  0  0  0  0
  4  7  1  0  0  0  0
  5 22  1  0  0  0  0
  6 24  1  0  0  0  0
  7  9  1  0  0  0  0
  7 20  2  0  0  0  0
  8 19  1  0  0  0  0
  8 21  2  0  0  0  0
  8 23  1  0  0  0  0
  9 14  1  0  0  0  0
 10 11  1  0  0  0  0
 10 12  1  0  0  0  0
 11 14  1  0  0  0  0
 12 19  1  0  0  0  0
 13 14  1  0  0  0  0
 13 19  1  0  0  0  0
 14 22  1  0  0  0  0
 15 18  1  0  0  0  0
 16 18  1  0  0  0  0
 17 18  1  0  0  0  0
 18 23  1  0  0  0  0
  1 25  1  0  0  0  0
  2 26  1  0  0  0  0
  3 27  1  0  0  0  0
  9 28  1  0  0  0  0
  9 29  1  0  0  0  0
 10 30  1  0  0  0  0
 10 31  1  0  0  0  0
 11 32  1  0  0  0  0
 11 33  1  0  0  0  0
 12 34  1  0  0  0  0
 12 35  1  0  0  0  0
 13 36  1  0  0  0  0
 13 37  1  0  0  0  0
 15 38  1  0  0  0  0
 15 39  1  0  0  0  0
 15 40  1  0  0  0  0
 16 41  1  0  0  0  0
 16 42  1  0  0  0  0
 16 43  1  0  0  0  0
 17 44  1  0  0  0  0
 17 45  1  0  0  0  0
 17 46  1  0  0  0  0
M  END
> <id>
EN300-338216

> <smiles>
CC(C)(C)OC(=O)N1CCCC2(C1)CC(=O)C=3C=CC(F)=CC3O2

> <MDLNUMBER>
MFCD30499684

> <IUPAC Name>
tert-butyl 7-fluoro-4-oxo-3,4-dihydrospiro[1-benzopyran-2,3'-piperidine]-1'-carboxylate

> <CAS>
2060046-82-2

> <URL>
https://www.enaminestore.com/catalog/EN300-338216

> <ROCS_ShapeQuery>
_x0404_0B

> <ROCS_TanimotoCombo>
0.417 

> <ROCS_ShapeTanimoto>
0.354 

> <ROCS_ColorTanimoto>
0.062 

> <ROCS_RefTversky>
0.316 

> <ROCS_RefColorTversky>
0.067 

> <ROCS_RefTverskyCombo>
0.383 

> <ROCS_FitTversky>
1.522 

> <ROCS_FitColorTversky>
0.464 

> <ROCS_FitTverskyCombo>
1.986 

> <ROCS_ColorScore>
-4.840

> <ROCS_Overlap>
2110.701

> <ROCS_Rank>
52                  

$$$$
untitled-dbase-10093_169
  -OEChem-08212314543D

 49 51  0     1  0  0  0  0  0999 V2000
   -9.0860    4.2022   -6.9546 C   0  0  0  0  0  0  0  0  0  0  0  0
   -9.1001    2.8231   -6.7447 C   0  0  0  0  0  0  0  0  0  0  0  0
   -9.1855    2.4535   -9.1319 C   0  0  0  0  0  0  0  0  0  0  0  0
   -9.1202    4.7020   -8.2590 C   0  0  0  0  0  0  0  0  0  0  0  0
   -9.1544    1.9502   -7.8311 C   0  0  0  0  0  0  0  0  0  0  0  0
   -9.1539    3.8321   -9.3489 C   0  0  0  0  0  0  0  0  0  0  0  0
   -9.1570    6.1546   -8.5028 C   0  0  0  0  0  0  0  0  0  0  0  0
   -8.3514    5.7637  -14.7295 C   0  0  0  0  0  0  0  0  0  0  0  0
   -9.3314    6.5782   -9.9372 C   0  0  0  0  0  0  0  0  0  0  0  0
   -6.4798    4.6307  -11.8075 C   0  0  0  0  0  0  0  0  0  0  0  0
   -7.1391    5.6085  -10.8295 C   0  0  0  0  0  0  0  0  0  0  0  0
   -7.3444    4.2862  -13.0160 C   0  0  0  0  0  0  0  0  0  0  0  0
   -9.1041    5.9403  -12.3419 C   0  0  0  0  0  0  0  0  0  0  0  0
   -8.6803    5.5734  -10.8993 C   0  0  2  0  0  0  0  0  0  0  0  0
   -9.1832    0.4765   -7.6020 C   0  0  0  0  0  0  0  0  0  0  0  0
   -7.1780    6.1014  -17.3174 C   0  0  0  0  0  0  0  0  0  0  0  0
   -7.9343    3.7483  -17.7647 C   0  0  0  0  0  0  0  0  0  0  0  0
   -9.6306    5.5376  -17.2860 C   0  0  0  0  0  0  0  0  0  0  0  0
   -8.2194    5.0326  -16.9891 C   0  0  0  0  0  0  0  0  0  0  0  0
   -8.2402    5.3743  -13.3891 N   0  0  0  0  0  0  0  0  0  0  0  0
   -9.1102    6.9592   -7.5799 O   0  0  0  0  0  0  0  0  0  0  0  0
   -8.6127    6.9052  -15.1039 O   0  0  0  0  0  0  0  0  0  0  0  0
   -9.1776    4.2442  -10.6525 O   0  0  0  0  0  0  0  0  0  0  0  0
   -8.1301    4.7227  -15.5937 O   0  0  0  0  0  0  0  0  0  0  0  0
   -9.0409    4.8660   -6.0961 H   0  0  0  0  0  0  0  0  0  0  0  0
   -9.0622    2.4371   -5.7294 H   0  0  0  0  0  0  0  0  0  0  0  0
   -9.2470    1.7721   -9.9774 H   0  0  0  0  0  0  0  0  0  0  0  0
  -10.4020    6.6752  -10.1506 H   0  0  0  0  0  0  0  0  0  0  0  0
   -8.8664    7.5674  -10.0309 H   0  0  0  0  0  0  0  0  0  0  0  0
   -5.5180    5.0545  -12.1536 H   0  0  0  0  0  0  0  0  0  0  0  0
   -6.2129    3.6978  -11.2728 H   0  0  0  0  0  0  0  0  0  0  0  0
   -6.8002    5.3558   -9.8154 H   0  0  0  0  0  0  0  0  0  0  0  0
   -6.7773    6.6229  -11.0480 H   0  0  0  0  0  0  0  0  0  0  0  0
   -6.7075    4.0696  -13.8932 H   0  0  0  0  0  0  0  0  0  0  0  0
   -7.9155    3.3628  -12.8135 H   0  0  0  0  0  0  0  0  0  0  0  0
  -10.1582    5.6508  -12.5354 H   0  0  0  0  0  0  0  0  0  0  0  0
   -9.0865    7.0447  -12.4793 H   0  0  0  0  0  0  0  0  0  0  0  0
  -10.2181    0.1244   -7.5122 H   0  0  0  0  0  0  0  0  0  0  0  0
   -8.7019   -0.0643   -8.4270 H   0  0  0  0  0  0  0  0  0  0  0  0
   -8.6424    0.2053   -6.6860 H   0  0  0  0  0  0  0  0  0  0  0  0
   -7.3791    7.0249  -16.7626 H   0  0  0  0  0  0  0  0  0  0  0  0
   -6.1645    5.7647  -17.0762 H   0  0  0  0  0  0  0  0  0  0  0  0
   -7.2110    6.3661  -18.3804 H   0  0  0  0  0  0  0  0  0  0  0  0
   -8.6791    2.9786  -17.5322 H   0  0  0  0  0  0  0  0  0  0  0  0
   -6.9607    3.3306  -17.4837 H   0  0  0  0  0  0  0  0  0  0  0  0
   -7.9389    3.9199  -18.8460 H   0  0  0  0  0  0  0  0  0  0  0  0
  -10.3778    4.7710  -17.0506 H   0  0  0  0  0  0  0  0  0  0  0  0
   -9.8662    6.4382  -16.7099 H   0  0  0  0  0  0  0  0  0  0  0  0
   -9.7467    5.7656  -18.3517 H   0  0  0  0  0  0  0  0  0  0  0  0
  1  2  1  0  0  0  0
  1  4  2  0  0  0  0
  2  5  2  0  0  0  0
  3  5  1  0  0  0  0
  3  6  2  0  0  0  0
  4  6  1  0  0  0  0
  4  7  1  0  0  0  0
  5 15  1  0  0  0  0
  6 23  1  0  0  0  0
  7  9  1  0  0  0  0
  7 21  2  0  0  0  0
  8 20  1  0  0  0  0
  8 22  2  0  0  0  0
  8 24  1  0  0  0  0
  9 14  1  0  0  0  0
 10 11  1  0  0  0  0
 10 12  1  0  0  0  0
 11 14  1  0  0  0  0
 12 20  1  0  0  0  0
 13 14  1  0  0  0  0
 13 20  1  0  0  0  0
 14 23  1  0  0  0  0
 16 19  1  0  0  0  0
 17 19  1  0  0  0  0
 18 19  1  0  0  0  0
 19 24  1  0  0  0  0
  1 25  1  0  0  0  0
  2 26  1  0  0  0  0
  3 27  1  0  0  0  0
  9 28  1  0  0  0  0
  9 29  1  0  0  0  0
 10 30  1  0  0  0  0
 10 31  1  0  0  0  0
 11 32  1  0  0  0  0
 11 33  1  0  0  0  0
 12 34  1  0  0  0  0
 12 35  1  0  0  0  0
 13 36  1  0  0  0  0
 13 37  1  0  0  0  0
 15 38  1  0  0  0  0
 15 39  1  0  0  0  0
 15 40  1  0  0  0  0
 16 41  1  0  0  0  0
 16 42  1  0  0  0  0
 16 43  1  0  0  0  0
 17 44  1  0  0  0  0
 17 45  1  0  0  0  0
 17 46  1  0  0  0  0
 18 47  1  0  0  0  0
 18 48  1  0  0  0  0
 18 49  1  0  0  0  0
M  END
> <id>
EN300-338207

> <smiles>
CC=1C=CC=2C(=O)CC3(CCCN(C3)C(=O)OC(C)(C)C)OC2C1

> <MDLNUMBER>
MFCD30499676

> <IUPAC Name>
tert-butyl 7-methyl-4-oxo-3,4-dihydrospiro[1-benzopyran-2,3'-piperidine]-1'-carboxylate

> <CAS>
2060048-83-9

> <URL>
https://www.enaminestore.com/catalog/EN300-338207

> <ROCS_ShapeQuery>
_x0404_0B

> <ROCS_TanimotoCombo>
0.416 

> <ROCS_ShapeTanimoto>
0.353 

> <ROCS_ColorTanimoto>
0.062 

> <ROCS_RefTversky>
0.315 

> <ROCS_RefColorTversky>
0.067 

> <ROCS_RefTverskyCombo>
0.382 

> <ROCS_FitTversky>
1.523 

> <ROCS_FitColorTversky>
0.464 

> <ROCS_FitTverskyCombo>
1.987 

> <ROCS_ColorScore>
-4.840

> <ROCS_Overlap>
2105.180

> <ROCS_Rank>
53                  

$$$$
untitled-dbase-874_116
  -OEChem-08212314543D

 46 48  0     0  0  0  0  0  0999 V2000
   -8.1288    4.5692  -18.1599 C   0  0  0  0  0  0  0  0  0  0  0  0
   -7.1462    5.4853  -17.7854 C   0  0  0  0  0  0  0  0  0  0  0  0
   -9.1956    4.2977  -17.3031 C   0  0  0  0  0  0  0  0  0  0  0  0
   -7.2223    6.1261  -16.5484 C   0  0  0  0  0  0  0  0  0  0  0  0
   -9.2695    4.9443  -16.0664 C   0  0  0  0  0  0  0  0  0  0  0  0
   -8.2780    5.8457  -15.6790 C   0  0  0  0  0  0  0  0  0  0  0  0
  -10.4137    4.7108  -15.1685 C   0  0  0  0  0  0  0  0  0  0  0  0
   -8.5621    5.1918   -9.2322 C   0  0  0  0  0  0  0  0  0  0  0  0
  -10.4702    5.5731  -13.9352 C   0  0  0  0  0  0  0  0  0  0  0  0
   -8.2984    4.6900  -12.8476 C   0  0  0  0  0  0  0  0  0  0  0  0
   -9.1403    6.9878  -12.3226 C   0  0  0  0  0  0  0  0  0  0  0  0
   -8.8847    4.1881  -11.5295 C   0  0  0  0  0  0  0  0  0  0  0  0
   -9.7266    6.4630  -11.0157 C   0  0  0  0  0  0  0  0  0  0  0  0
   -9.0580    5.9090  -13.4289 C   0  0  0  0  0  0  0  0  0  0  0  0
   -9.8153    4.0280   -7.3649 C   0  0  0  0  0  0  0  0  0  0  0  0
   -9.0985    1.9038   -8.4978 C   0  0  0  0  0  0  0  0  0  0  0  0
   -7.6016    2.9773   -6.7904 C   0  0  0  0  0  0  0  0  0  0  0  0
   -8.6278    3.2256   -7.8949 C   0  0  0  0  0  0  0  0  0  0  0  0
   -9.0066    5.2769  -10.5556 N   0  0  0  0  0  0  0  0  0  0  0  0
  -11.2926    3.9046  -15.4490 O   0  0  0  0  0  0  0  0  0  0  0  0
   -8.6601    6.0997   -8.4085 O   0  0  0  0  0  0  0  0  0  0  0  0
   -8.2733    6.5071  -14.4819 O   0  0  0  0  0  0  0  0  0  0  0  0
   -8.0000    3.9773   -8.9400 O   0  0  0  0  0  0  0  0  0  0  0  0
   -8.0667    4.0712  -19.1231 H   0  0  0  0  0  0  0  0  0  0  0  0
   -6.3199    5.6995  -18.4572 H   0  0  0  0  0  0  0  0  0  0  0  0
   -9.9588    3.5922  -17.6188 H   0  0  0  0  0  0  0  0  0  0  0  0
   -6.4488    6.8349  -16.2645 H   0  0  0  0  0  0  0  0  0  0  0  0
  -11.0135    6.4840  -14.2131 H   0  0  0  0  0  0  0  0  0  0  0  0
  -11.0413    5.0490  -13.1613 H   0  0  0  0  0  0  0  0  0  0  0  0
   -7.2390    4.9337  -12.6709 H   0  0  0  0  0  0  0  0  0  0  0  0
   -8.3037    3.8648  -13.5798 H   0  0  0  0  0  0  0  0  0  0  0  0
   -9.7447    7.8402  -12.6717 H   0  0  0  0  0  0  0  0  0  0  0  0
   -8.1329    7.3787  -12.1101 H   0  0  0  0  0  0  0  0  0  0  0  0
   -9.8613    3.7270  -11.7115 H   0  0  0  0  0  0  0  0  0  0  0  0
   -8.2429    3.4199  -11.0813 H   0  0  0  0  0  0  0  0  0  0  0  0
   -9.6496    7.2176  -10.2221 H   0  0  0  0  0  0  0  0  0  0  0  0
  -10.7928    6.2544  -11.1537 H   0  0  0  0  0  0  0  0  0  0  0  0
   -9.4816    4.9775   -6.9313 H   0  0  0  0  0  0  0  0  0  0  0  0
  -10.5419    4.2429   -8.1552 H   0  0  0  0  0  0  0  0  0  0  0  0
  -10.3273    3.4847   -6.5624 H   0  0  0  0  0  0  0  0  0  0  0  0
   -8.2497    1.3249   -8.8793 H   0  0  0  0  0  0  0  0  0  0  0  0
   -9.7618    2.0789   -9.3525 H   0  0  0  0  0  0  0  0  0  0  0  0
   -9.6331    1.2925   -7.7635 H   0  0  0  0  0  0  0  0  0  0  0  0
   -6.7497    2.4018   -7.1703 H   0  0  0  0  0  0  0  0  0  0  0  0
   -7.2251    3.9160   -6.3711 H   0  0  0  0  0  0  0  0  0  0  0  0
   -8.0383    2.3839   -5.9789 H   0  0  0  0  0  0  0  0  0  0  0  0
  1  2  2  0  0  0  0
  1  3  1  0  0  0  0
  2  4  1  0  0  0  0
  3  5  2  0  0  0  0
  4  6  2  0  0  0  0
  5  6  1  0  0  0  0
  5  7  1  0  0  0  0
  6 22  1  0  0  0  0
  7  9  1  0  0  0  0
  7 20  2  0  0  0  0
  8 19  1  0  0  0  0
  8 21  2  0  0  0  0
  8 23  1  0  0  0  0
  9 14  1  0  0  0  0
 10 12  1  0  0  0  0
 10 14  1  0  0  0  0
 11 13  1  0  0  0  0
 11 14  1  0  0  0  0
 12 19  1  0  0  0  0
 13 19  1  0  0  0  0
 14 22  1  0  0  0  0
 15 18  1  0  0  0  0
 16 18  1  0  0  0  0
 17 18  1  0  0  0  0
 18 23  1  0  0  0  0
  1 24  1  0  0  0  0
  2 25  1  0  0  0  0
  3 26  1  0  0  0  0
  4 27  1  0  0  0  0
  9 28  1  0  0  0  0
  9 29  1  0  0  0  0
 10 30  1  0  0  0  0
 10 31  1  0  0  0  0
 11 32  1  0  0  0  0
 11 33  1  0  0  0  0
 12 34  1  0  0  0  0
 12 35  1  0  0  0  0
 13 36  1  0  0  0  0
 13 37  1  0  0  0  0
 15 38  1  0  0  0  0
 15 39  1  0  0  0  0
 15 40  1  0  0  0  0
 16 41  1  0  0  0  0
 16 42  1  0  0  0  0
 16 43  1  0  0  0  0
 17 44  1  0  0  0  0
 17 45  1  0  0  0  0
 17 46  1  0  0  0  0
M  END
> <id>
EN300-53528

> <smiles>
CC(C)(C)OC(=O)N1CCC2(CC1)CC(=O)C=3C=CC=CC3O2

> <MDLNUMBER>
MFCD05861626

> <IUPAC Name>
tert-butyl 4-oxo-3,4-dihydrospiro[1-benzopyran-2,4'-piperidine]-1'-carboxylate

> <CAS>
849928-22-9

> <Purity>
95

> <URL>
https://www.enaminestore.com/catalog/EN300-53528

> <MP>
90-92

> <ROCS_ShapeQuery>
_x0404_0B

> <ROCS_TanimotoCombo>
0.415 

> <ROCS_ShapeTanimoto>
0.354 

> <ROCS_ColorTanimoto>
0.062 

> <ROCS_RefTversky>
0.314 

> <ROCS_RefColorTversky>
0.067 

> <ROCS_RefTverskyCombo>
0.380 

> <ROCS_FitTversky>
1.562 

> <ROCS_FitColorTversky>
0.461 

> <ROCS_FitTverskyCombo>
2.023 

> <ROCS_ColorScore>
-4.813

> <ROCS_Overlap>
2094.374

> <ROCS_Rank>
54                  

$$$$
untitled-dbase-40937_163
  -OEChem-08212314543D

 46 48  0     1  0  0  0  0  0999 V2000
   -9.1864    2.4523   -9.1327 C   0  0  0  0  0  0  0  0  0  0  0  0
   -9.1549    1.9485   -7.8321 C   0  0  0  0  0  0  0  0  0  0  0  0
   -9.0842    4.2002   -6.9549 C   0  0  0  0  0  0  0  0  0  0  0  0
   -9.1188    4.7005   -8.2592 C   0  0  0  0  0  0  0  0  0  0  0  0
   -9.1539    3.8309   -9.3493 C   0  0  0  0  0  0  0  0  0  0  0  0
   -9.0993    2.8211   -6.7454 C   0  0  0  0  0  0  0  0  0  0  0  0
   -9.1546    6.1531   -8.5026 C   0  0  0  0  0  0  0  0  0  0  0  0
   -8.3531    5.7634  -14.7299 C   0  0  0  0  0  0  0  0  0  0  0  0
   -9.3295    6.5772   -9.9367 C   0  0  0  0  0  0  0  0  0  0  0  0
   -6.4807    4.6280  -11.8093 C   0  0  0  0  0  0  0  0  0  0  0  0
   -7.1385    5.6060  -10.8306 C   0  0  0  0  0  0  0  0  0  0  0  0
   -7.3463    4.2846  -13.0174 C   0  0  0  0  0  0  0  0  0  0  0  0
   -9.1042    5.9399  -12.3417 C   0  0  0  0  0  0  0  0  0  0  0  0
   -8.6799    5.5722  -10.8995 C   0  0  2  0  0  0  0  0  0  0  0  0
   -7.1810    6.1009  -17.3183 C   0  0  0  0  0  0  0  0  0  0  0  0
   -7.9395    3.7486  -17.7659 C   0  0  0  0  0  0  0  0  0  0  0  0
   -9.6341    5.5390  -17.2856 C   0  0  0  0  0  0  0  0  0  0  0  0
   -8.2231    5.0328  -16.9897 C   0  0  0  0  0  0  0  0  0  0  0  0
   -8.2414    5.3735  -13.3896 N   0  0  0  0  0  0  0  0  0  0  0  0
   -9.1066    6.9574   -7.5795 O   0  0  0  0  0  0  0  0  0  0  0  0
   -8.6137    6.9052  -15.1038 O   0  0  0  0  0  0  0  0  0  0  0  0
   -9.1780    4.2434  -10.6528 O   0  0  0  0  0  0  0  0  0  0  0  0
   -8.1332    4.7225  -15.5945 O   0  0  0  0  0  0  0  0  0  0  0  0
   -9.0529    2.3337   -5.4987 F   0  0  0  0  0  0  0  0  0  0  0  0
   -9.2493    1.7641   -9.9717 H   0  0  0  0  0  0  0  0  0  0  0  0
   -9.1757    0.8755   -7.6656 H   0  0  0  0  0  0  0  0  0  0  0  0
   -9.0383    4.8635   -6.0960 H   0  0  0  0  0  0  0  0  0  0  0  0
  -10.4001    6.6755  -10.1495 H   0  0  0  0  0  0  0  0  0  0  0  0
   -8.8637    7.5661  -10.0303 H   0  0  0  0  0  0  0  0  0  0  0  0
   -5.5188    5.0514  -12.1560 H   0  0  0  0  0  0  0  0  0  0  0  0
   -6.2139    3.6949  -11.2753 H   0  0  0  0  0  0  0  0  0  0  0  0
   -6.7993    5.3528   -9.8168 H   0  0  0  0  0  0  0  0  0  0  0  0
   -6.7764    6.6205  -11.0493 H   0  0  0  0  0  0  0  0  0  0  0  0
   -6.7102    4.0674  -13.8951 H   0  0  0  0  0  0  0  0  0  0  0  0
   -7.9181    3.3618  -12.8145 H   0  0  0  0  0  0  0  0  0  0  0  0
  -10.1588    5.6515  -12.5347 H   0  0  0  0  0  0  0  0  0  0  0  0
   -9.0857    7.0444  -12.4789 H   0  0  0  0  0  0  0  0  0  0  0  0
   -7.3811    7.0244  -16.7632 H   0  0  0  0  0  0  0  0  0  0  0  0
   -6.1676    5.7633  -17.0779 H   0  0  0  0  0  0  0  0  0  0  0  0
   -7.2144    6.3659  -18.3813 H   0  0  0  0  0  0  0  0  0  0  0  0
   -8.6848    2.9794  -17.5332 H   0  0  0  0  0  0  0  0  0  0  0  0
   -6.9661    3.3300  -17.4856 H   0  0  0  0  0  0  0  0  0  0  0  0
   -7.9447    3.9204  -18.8471 H   0  0  0  0  0  0  0  0  0  0  0  0
  -10.3818    4.7730  -17.0500 H   0  0  0  0  0  0  0  0  0  0  0  0
   -9.8686    6.4397  -16.7091 H   0  0  0  0  0  0  0  0  0  0  0  0
   -9.7507    5.7674  -18.3512 H   0  0  0  0  0  0  0  0  0  0  0  0
  1  2  1  0  0  0  0
  1  5  2  0  0  0  0
  2  6  2  0  0  0  0
  3  4  2  0  0  0  0
  3  6  1  0  0  0  0
  4  5  1  0  0  0  0
  4  7  1  0  0  0  0
  5 22  1  0  0  0  0
  6 24  1  0  0  0  0
  7  9  1  0  0  0  0
  7 20  2  0  0  0  0
  8 19  1  0  0  0  0
  8 21  2  0  0  0  0
  8 23  1  0  0  0  0
  9 14  1  0  0  0  0
 10 11  1  0  0  0  0
 10 12  1  0  0  0  0
 11 14  1  0  0  0  0
 12 19  1  0  0  0  0
 13 14  1  0  0  0  0
 13 19  1  0  0  0  0
 14 22  1  0  0  0  0
 15 18  1  0  0  0  0
 16 18  1  0  0  0  0
 17 18  1  0  0  0  0
 18 23  1  0  0  0  0
  1 25  1  0  0  0  0
  2 26  1  0  0  0  0
  3 27  1  0  0  0  0
  9 28  1  0  0  0  0
  9 29  1  0  0  0  0
 10 30  1  0  0  0  0
 10 31  1  0  0  0  0
 11 32  1  0  0  0  0
 11 33  1  0  0  0  0
 12 34  1  0  0  0  0
 12 35  1  0  0  0  0
 13 36  1  0  0  0  0
 13 37  1  0  0  0  0
 15 38  1  0  0  0  0
 15 39  1  0  0  0  0
 15 40  1  0  0  0  0
 16 41  1  0  0  0  0
 16 42  1  0  0  0  0
 16 43  1  0  0  0  0
 17 44  1  0  0  0  0
 17 45  1  0  0  0  0
 17 46  1  0  0  0  0
M  END
> <id>
EN300-338180

> <smiles>
CC(C)(C)OC(=O)N1CCCC2(C1)CC(=O)C=3C=C(F)C=CC3O2

> <MDLNUMBER>
MFCD30499652

> <IUPAC Name>
tert-butyl 6-fluoro-4-oxo-3,4-dihydrospiro[1-benzopyran-2,3'-piperidine]-1'-carboxylate

> <CAS>
2059970-91-9

> <URL>
https://www.enaminestore.com/catalog/EN300-338180

> <ROCS_ShapeQuery>
_x0404_0B

> <ROCS_TanimotoCombo>
0.415 

> <ROCS_ShapeTanimoto>
0.353 

> <ROCS_ColorTanimoto>
0.062 

> <ROCS_RefTversky>
0.315 

> <ROCS_RefColorTversky>
0.067 

> <ROCS_RefTverskyCombo>
0.382 

> <ROCS_FitTversky>
1.517 

> <ROCS_FitColorTversky>
0.464 

> <ROCS_FitTverskyCombo>
1.981 

> <ROCS_ColorScore>
-4.840

> <ROCS_Overlap>
2104.336

> <ROCS_Rank>
55                  

$$$$
untitled-dbase-10088_162
  -OEChem-08212314543D

 49 51  0     1  0  0  0  0  0999 V2000
   -9.1584    1.9517   -7.8320 C   0  0  0  0  0  0  0  0  0  0  0  0
   -9.1902    2.4553   -9.1326 C   0  0  0  0  0  0  0  0  0  0  0  0
   -9.0822    4.2032   -6.9551 C   0  0  0  0  0  0  0  0  0  0  0  0
   -9.1170    4.7035   -8.2594 C   0  0  0  0  0  0  0  0  0  0  0  0
   -9.0999    2.8242   -6.7454 C   0  0  0  0  0  0  0  0  0  0  0  0
   -9.1550    3.8339   -9.3494 C   0  0  0  0  0  0  0  0  0  0  0  0
   -9.1500    6.1562   -8.5028 C   0  0  0  0  0  0  0  0  0  0  0  0
   -8.3556    5.7643  -14.7309 C   0  0  0  0  0  0  0  0  0  0  0  0
   -9.3255    6.5806   -9.9368 C   0  0  0  0  0  0  0  0  0  0  0  0
   -6.4826    4.6253  -11.8121 C   0  0  0  0  0  0  0  0  0  0  0  0
   -7.1375    5.6048  -10.8328 C   0  0  0  0  0  0  0  0  0  0  0  0
   -7.3502    4.2836  -13.0193 C   0  0  0  0  0  0  0  0  0  0  0  0
   -9.1039    5.9425  -12.3420 C   0  0  0  0  0  0  0  0  0  0  0  0
   -8.6789    5.5741  -10.9001 C   0  0  2  0  0  0  0  0  0  0  0  0
   -9.0492    2.2813   -5.3574 C   0  0  0  0  0  0  0  0  0  0  0  0
   -7.1854    6.0993  -17.3205 C   0  0  0  0  0  0  0  0  0  0  0  0
   -7.9492    3.7484  -17.7672 C   0  0  0  0  0  0  0  0  0  0  0  0
   -9.6397    5.5424  -17.2853 C   0  0  0  0  0  0  0  0  0  0  0  0
   -8.2294    5.0333  -16.9908 C   0  0  0  0  0  0  0  0  0  0  0  0
   -8.2434    5.3744  -13.3907 N   0  0  0  0  0  0  0  0  0  0  0  0
   -9.0995    6.9604   -7.5798 O   0  0  0  0  0  0  0  0  0  0  0  0
   -8.6142    6.9066  -15.1046 O   0  0  0  0  0  0  0  0  0  0  0  0
   -9.1796    4.2463  -10.6528 O   0  0  0  0  0  0  0  0  0  0  0  0
   -8.1388    4.7229  -15.5956 O   0  0  0  0  0  0  0  0  0  0  0  0
   -9.1816    0.8764   -7.6750 H   0  0  0  0  0  0  0  0  0  0  0  0
   -9.2557    1.7674   -9.9716 H   0  0  0  0  0  0  0  0  0  0  0  0
   -9.0345    4.8746   -6.1016 H   0  0  0  0  0  0  0  0  0  0  0  0
  -10.3962    6.6810  -10.1485 H   0  0  0  0  0  0  0  0  0  0  0  0
   -8.8579    7.5685  -10.0310 H   0  0  0  0  0  0  0  0  0  0  0  0
   -5.5202    5.0467  -12.1596 H   0  0  0  0  0  0  0  0  0  0  0  0
   -6.2175    3.6917  -11.2782 H   0  0  0  0  0  0  0  0  0  0  0  0
   -6.7977    5.3510   -9.8193 H   0  0  0  0  0  0  0  0  0  0  0  0
   -6.7732    6.6183  -11.0518 H   0  0  0  0  0  0  0  0  0  0  0  0
   -6.7154    4.0650  -13.8976 H   0  0  0  0  0  0  0  0  0  0  0  0
   -7.9235    3.3619  -12.8159 H   0  0  0  0  0  0  0  0  0  0  0  0
  -10.1593    5.6564  -12.5339 H   0  0  0  0  0  0  0  0  0  0  0  0
   -9.0831    7.0470  -12.4791 H   0  0  0  0  0  0  0  0  0  0  0  0
   -8.0090    2.1274   -5.0453 H   0  0  0  0  0  0  0  0  0  0  0  0
   -9.5289    2.9644   -4.6445 H   0  0  0  0  0  0  0  0  0  0  0  0
   -9.5797    1.3229   -5.2849 H   0  0  0  0  0  0  0  0  0  0  0  0
   -7.3830    7.0232  -16.7652 H   0  0  0  0  0  0  0  0  0  0  0  0
   -6.1725    5.7595  -17.0811 H   0  0  0  0  0  0  0  0  0  0  0  0
   -7.2194    6.3642  -18.3835 H   0  0  0  0  0  0  0  0  0  0  0  0
   -8.6959    2.9808  -17.5336 H   0  0  0  0  0  0  0  0  0  0  0  0
   -6.9764    3.3279  -17.4878 H   0  0  0  0  0  0  0  0  0  0  0  0
   -7.9551    3.9202  -18.8484 H   0  0  0  0  0  0  0  0  0  0  0  0
  -10.3887    4.7780  -17.0489 H   0  0  0  0  0  0  0  0  0  0  0  0
   -9.8717    6.4437  -16.7087 H   0  0  0  0  0  0  0  0  0  0  0  0
   -9.7568    5.7710  -18.3508 H   0  0  0  0  0  0  0  0  0  0  0  0
  1  2  1  0  0  0  0
  1  5  2  0  0  0  0
  2  6  2  0  0  0  0
  3  4  2  0  0  0  0
  3  5  1  0  0  0  0
  4  6  1  0  0  0  0
  4  7  1  0  0  0  0
  5 15  1  0  0  0  0
  6 23  1  0  0  0  0
  7  9  1  0  0  0  0
  7 21  2  0  0  0  0
  8 20  1  0  0  0  0
  8 22  2  0  0  0  0
  8 24  1  0  0  0  0
  9 14  1  0  0  0  0
 10 11  1  0  0  0  0
 10 12  1  0  0  0  0
 11 14  1  0  0  0  0
 12 20  1  0  0  0  0
 13 14  1  0  0  0  0
 13 20  1  0  0  0  0
 14 23  1  0  0  0  0
 16 19  1  0  0  0  0
 17 19  1  0  0  0  0
 18 19  1  0  0  0  0
 19 24  1  0  0  0  0
  1 25  1  0  0  0  0
  2 26  1  0  0  0  0
  3 27  1  0  0  0  0
  9 28  1  0  0  0  0
  9 29  1  0  0  0  0
 10 30  1  0  0  0  0
 10 31  1  0  0  0  0
 11 32  1  0  0  0  0
 11 33  1  0  0  0  0
 12 34  1  0  0  0  0
 12 35  1  0  0  0  0
 13 36  1  0  0  0  0
 13 37  1  0  0  0  0
 15 38  1  0  0  0  0
 15 39  1  0  0  0  0
 15 40  1  0  0  0  0
 16 41  1  0  0  0  0
 16 42  1  0  0  0  0
 16 43  1  0  0  0  0
 17 44  1  0  0  0  0
 17 45  1  0  0  0  0
 17 46  1  0  0  0  0
 18 47  1  0  0  0  0
 18 48  1  0  0  0  0
 18 49  1  0  0  0  0
M  END
> <id>
EN300-338198

> <smiles>
CC=1C=CC=2OC3(CCCN(C3)C(=O)OC(C)(C)C)CC(=O)C2C1

> <MDLNUMBER>
MFCD30499667

> <IUPAC Name>
tert-butyl 6-methyl-4-oxo-3,4-dihydrospiro[1-benzopyran-2,3'-piperidine]-1'-carboxylate

> <CAS>
2059941-75-0

> <URL>
https://www.enaminestore.com/catalog/EN300-338198

> <ROCS_ShapeQuery>
_x0404_0B

> <ROCS_TanimotoCombo>
0.415 

> <ROCS_ShapeTanimoto>
0.352 

> <ROCS_ColorTanimoto>
0.062 

> <ROCS_RefTversky>
0.314 

> <ROCS_RefColorTversky>
0.067 

> <ROCS_RefTverskyCombo>
0.382 

> <ROCS_FitTversky>
1.520 

> <ROCS_FitColorTversky>
0.464 

> <ROCS_FitTverskyCombo>
1.984 

> <ROCS_ColorScore>
-4.840

> <ROCS_Overlap>
2100.665

> <ROCS_Rank>
56                  

$$$$
untitled-dbase-23369_113
  -OEChem-08212314543D

 53 55  0     0  0  0  0  0  0999 V2000
   -7.8808    3.1655  -16.8509 C   0  0  0  0  0  0  0  0  0  0  0  0
   -8.4789    3.6081  -18.0316 C   0  0  0  0  0  0  0  0  0  0  0  0
   -8.7966    5.8027  -17.0653 C   0  0  0  0  0  0  0  0  0  0  0  0
   -7.7259    4.0482  -15.7780 C   0  0  0  0  0  0  0  0  0  0  0  0
   -8.2087    5.3614  -15.8775 C   0  0  0  0  0  0  0  0  0  0  0  0
   -8.9318    4.9237  -18.1399 C   0  0  0  0  0  0  0  0  0  0  0  0
   -9.5335    5.9683  -11.7976 C   0  0  0  0  0  0  0  0  0  0  0  0
   -9.0420    6.7631  -12.7617 C   0  0  0  0  0  0  0  0  0  0  0  0
   -7.1346    3.5243  -14.5279 C   0  0  0  0  0  0  0  0  0  0  0  0
   -6.9759    4.9033   -9.3450 C   0  0  0  0  0  0  0  0  0  0  0  0
   -9.0751    6.0207  -10.3600 C   0  0  0  0  0  0  0  0  0  0  0  0
   -9.3196    6.5741  -14.2213 C   0  0  0  0  0  0  0  0  0  0  0  0
   -8.7089    3.4092  -10.5736 C   0  0  0  0  0  0  0  0  0  0  0  0
   -9.3012    4.4538   -8.4067 C   0  0  0  0  0  0  0  0  0  0  0  0
   -8.3491    2.1296   -9.8149 C   0  0  0  0  0  0  0  0  0  0  0  0
   -8.9923    3.1203   -7.7151 C   0  0  0  0  0  0  0  0  0  0  0  0
   -5.5571    4.0705  -12.6721 C   0  0  0  0  0  0  0  0  0  0  0  0
   -6.1518    5.1300  -11.7483 C   0  0  0  0  0  0  0  0  0  0  0  0
   -8.4911    4.6939   -9.7323 C   0  0  0  0  0  0  0  0  0  0  0  0
   -4.5721    4.9265   -9.8673 C   0  0  0  0  0  0  0  0  0  0  0  0
   -6.0893    4.2740  -14.0154 N   0  0  0  0  0  0  0  0  0  0  0  0
   -9.1689    1.9866   -8.6161 N   0  0  0  0  0  0  0  0  0  0  0  0
   -5.9632    4.8995  -10.3173 N   0  0  0  0  0  0  0  0  0  0  0  0
   -7.6010    2.5009  -14.0378 O   0  0  0  0  0  0  0  0  0  0  0  0
   -6.6914    5.0781   -8.1503 O   0  0  0  0  0  0  0  0  0  0  0  0
   -8.0637    6.2243  -14.8251 O   0  0  0  0  0  0  0  0  0  0  0  0
   -9.7367    5.5127  -19.7462 Br  0  0  0  0  0  0  0  0  0  0  0  0
   -7.5609    2.1347  -16.7959 H   0  0  0  0  0  0  0  0  0  0  0  0
   -8.5946    2.9120  -18.8589 H   0  0  0  0  0  0  0  0  0  0  0  0
   -9.1530    6.8225  -17.1538 H   0  0  0  0  0  0  0  0  0  0  0  0
  -10.3281    5.2681  -12.0370 H   0  0  0  0  0  0  0  0  0  0  0  0
   -8.4467    7.6342  -12.4840 H   0  0  0  0  0  0  0  0  0  0  0  0
   -8.3044    6.8196  -10.2891 H   0  0  0  0  0  0  0  0  0  0  0  0
   -9.8923    6.4240   -9.7306 H   0  0  0  0  0  0  0  0  0  0  0  0
  -10.0147    5.7427  -14.3601 H   0  0  0  0  0  0  0  0  0  0  0  0
   -9.7580    7.4805  -14.6510 H   0  0  0  0  0  0  0  0  0  0  0  0
   -8.1489    3.4138  -11.5087 H   0  0  0  0  0  0  0  0  0  0  0  0
   -9.7654    3.3517  -10.8729 H   0  0  0  0  0  0  0  0  0  0  0  0
  -10.3790    4.4767   -8.6317 H   0  0  0  0  0  0  0  0  0  0  0  0
   -9.1312    5.2653   -7.6855 H   0  0  0  0  0  0  0  0  0  0  0  0
   -8.5249    1.2648  -10.4631 H   0  0  0  0  0  0  0  0  0  0  0  0
   -7.2852    2.1143   -9.5546 H   0  0  0  0  0  0  0  0  0  0  0  0
   -7.9762    3.1114   -7.3052 H   0  0  0  0  0  0  0  0  0  0  0  0
   -9.6657    2.9967   -6.8590 H   0  0  0  0  0  0  0  0  0  0  0  0
   -4.4912    4.1839  -12.7108 H   0  0  0  0  0  0  0  0  0  0  0  0
   -5.8197    3.0802  -12.3643 H   0  0  0  0  0  0  0  0  0  0  0  0
   -5.7023    6.1086  -11.9866 H   0  0  0  0  0  0  0  0  0  0  0  0
   -7.2236    5.2468  -11.9764 H   0  0  0  0  0  0  0  0  0  0  0  0
   -4.2088    3.8967   -9.7355 H   0  0  0  0  0  0  0  0  0  0  0  0
   -3.9538    5.4401  -10.6183 H   0  0  0  0  0  0  0  0  0  0  0  0
   -4.5071    5.4635   -8.9095 H   0  0  0  0  0  0  0  0  0  0  0  0
   -5.6746    4.9942  -14.5940 H   0  0  0  0  0  0  0  0  0  0  0  0
  -10.1503    1.9320   -8.8907 H   0  0  0  0  0  0  0  0  0  0  0  0
  1  2  1  0  0  0  0
  1  4  2  0  0  0  0
  2  6  2  0  0  0  0
  3  5  2  0  0  0  0
  3  6  1  0  0  0  0
  4  5  1  0  0  0  0
  4  9  1  0  0  0  0
  5 26  1  0  0  0  0
  6 27  1  0  0  0  0
  7  8  2  0  0  0  0
  7 11  1  0  0  0  0
  8 12  1  0  0  0  0
  9 21  1  0  0  0  0
  9 24  2  0  0  0  0
 10 19  1  0  0  0  0
 10 23  1  0  0  0  0
 10 25  2  0  0  0  0
 11 19  1  0  0  0  0
 12 26  1  0  0  0  0
 13 15  1  0  0  0  0
 13 19  1  0  0  0  0
 14 16  1  0  0  0  0
 14 19  1  0  0  0  0
 15 22  1  0  0  0  0
 16 22  1  0  0  0  0
 17 18  1  0  0  0  0
 17 21  1  0  0  0  0
 18 23  1  0  0  0  0
 20 23  1  0  0  0  0
  1 28  1  0  0  0  0
  2 29  1  0  0  0  0
  3 30  1  0  0  0  0
  7 31  1  0  0  0  0
  8 32  1  0  0  0  0
 11 33  1  0  0  0  0
 11 34  1  0  0  0  0
 12 35  1  0  0  0  0
 12 36  1  0  0  0  0
 13 37  1  0  0  0  0
 13 38  1  0  0  0  0
 14 39  1  0  0  0  0
 14 40  1  0  0  0  0
 15 41  1  0  0  0  0
 15 42  1  0  0  0  0
 16 43  1  0  0  0  0
 16 44  1  0  0  0  0
 17 45  1  0  0  0  0
 17 46  1  0  0  0  0
 18 47  1  0  0  0  0
 18 48  1  0  0  0  0
 20 49  1  0  0  0  0
 20 50  1  0  0  0  0
 20 51  1  0  0  0  0
 21 52  1  0  0  0  0
 22 53  1  0  0  0  0
M  END
> <id>
EN300-2009269

> <smiles>
Cl.CN1CCNC(=O)C=2C=CC(Br)=CC2OC/C=C/CC3(CCNCC3)C1=O

> <MDLNUMBER>
MFCD31691068

> <IUPAC Name>
(3E)-15-bromo-8-methyl-2,5,7,8,9,10,11,12-octahydrospiro[1,8,11-benzoxadiazacyclotetradecine-6,4'-piperidin]-3-ene-7,12-dione hydrochloride

> <CAS>
2230816-88-1

> <Purity>
95

> <URL>
https://www.enaminestore.com/catalog/EN300-2009269

> <Saltdate>
Cl

> <ROCS_ShapeQuery>
_x0404_0B

> <ROCS_TanimotoCombo>
0.415 

> <ROCS_ShapeTanimoto>
0.309 

> <ROCS_ColorTanimoto>
0.106 

> <ROCS_RefTversky>
0.288 

> <ROCS_RefColorTversky>
0.112 

> <ROCS_RefTverskyCombo>
0.400 

> <ROCS_FitTversky>
1.308 

> <ROCS_FitColorTversky>
0.656 

> <ROCS_FitTverskyCombo>
1.964 

> <ROCS_ColorScore>
-8.088

> <ROCS_Overlap>
1924.476

> <ROCS_Rank>
57                  

$$$$
untitled-dbase-46860_113
  -OEChem-08212314543D

 53 55  0     0  0  0  0  0  0999 V2000
   -7.8808    3.1655  -16.8509 C   0  0  0  0  0  0  0  0  0  0  0  0
   -8.4789    3.6081  -18.0316 C   0  0  0  0  0  0  0  0  0  0  0  0
   -8.7966    5.8027  -17.0653 C   0  0  0  0  0  0  0  0  0  0  0  0
   -7.7259    4.0482  -15.7780 C   0  0  0  0  0  0  0  0  0  0  0  0
   -8.2087    5.3614  -15.8775 C   0  0  0  0  0  0  0  0  0  0  0  0
   -8.9318    4.9237  -18.1399 C   0  0  0  0  0  0  0  0  0  0  0  0
   -9.5335    5.9683  -11.7976 C   0  0  0  0  0  0  0  0  0  0  0  0
   -9.0420    6.7631  -12.7617 C   0  0  0  0  0  0  0  0  0  0  0  0
   -7.1346    3.5243  -14.5279 C   0  0  0  0  0  0  0  0  0  0  0  0
   -6.9759    4.9033   -9.3450 C   0  0  0  0  0  0  0  0  0  0  0  0
   -9.0751    6.0207  -10.3600 C   0  0  0  0  0  0  0  0  0  0  0  0
   -9.3196    6.5741  -14.2213 C   0  0  0  0  0  0  0  0  0  0  0  0
   -8.7089    3.4092  -10.5736 C   0  0  0  0  0  0  0  0  0  0  0  0
   -9.3012    4.4538   -8.4067 C   0  0  0  0  0  0  0  0  0  0  0  0
   -8.3491    2.1296   -9.8149 C   0  0  0  0  0  0  0  0  0  0  0  0
   -8.9923    3.1203   -7.7151 C   0  0  0  0  0  0  0  0  0  0  0  0
   -5.5571    4.0705  -12.6721 C   0  0  0  0  0  0  0  0  0  0  0  0
   -6.1518    5.1300  -11.7483 C   0  0  0  0  0  0  0  0  0  0  0  0
   -8.4911    4.6939   -9.7323 C   0  0  0  0  0  0  0  0  0  0  0  0
   -4.5721    4.9265   -9.8673 C   0  0  0  0  0  0  0  0  0  0  0  0
   -6.0893    4.2740  -14.0154 N   0  0  0  0  0  0  0  0  0  0  0  0
   -9.1689    1.9866   -8.6161 N   0  0  0  0  0  0  0  0  0  0  0  0
   -5.9632    4.8995  -10.3173 N   0  0  0  0  0  0  0  0  0  0  0  0
   -7.6010    2.5009  -14.0378 O   0  0  0  0  0  0  0  0  0  0  0  0
   -6.6914    5.0781   -8.1503 O   0  0  0  0  0  0  0  0  0  0  0  0
   -8.0637    6.2243  -14.8251 O   0  0  0  0  0  0  0  0  0  0  0  0
   -9.7367    5.5127  -19.7462 Br  0  0  0  0  0  0  0  0  0  0  0  0
   -7.5609    2.1347  -16.7959 H   0  0  0  0  0  0  0  0  0  0  0  0
   -8.5946    2.9120  -18.8589 H   0  0  0  0  0  0  0  0  0  0  0  0
   -9.1530    6.8225  -17.1538 H   0  0  0  0  0  0  0  0  0  0  0  0
  -10.3281    5.2681  -12.0370 H   0  0  0  0  0  0  0  0  0  0  0  0
   -8.4467    7.6342  -12.4840 H   0  0  0  0  0  0  0  0  0  0  0  0
   -8.3044    6.8196  -10.2891 H   0  0  0  0  0  0  0  0  0  0  0  0
   -9.8923    6.4240   -9.7306 H   0  0  0  0  0  0  0  0  0  0  0  0
  -10.0147    5.7427  -14.3601 H   0  0  0  0  0  0  0  0  0  0  0  0
   -9.7580    7.4805  -14.6510 H   0  0  0  0  0  0  0  0  0  0  0  0
   -8.1489    3.4138  -11.5087 H   0  0  0  0  0  0  0  0  0  0  0  0
   -9.7654    3.3517  -10.8729 H   0  0  0  0  0  0  0  0  0  0  0  0
  -10.3790    4.4767   -8.6317 H   0  0  0  0  0  0  0  0  0  0  0  0
   -9.1312    5.2653   -7.6855 H   0  0  0  0  0  0  0  0  0  0  0  0
   -8.5249    1.2648  -10.4631 H   0  0  0  0  0  0  0  0  0  0  0  0
   -7.2852    2.1143   -9.5546 H   0  0  0  0  0  0  0  0  0  0  0  0
   -7.9762    3.1114   -7.3052 H   0  0  0  0  0  0  0  0  0  0  0  0
   -9.6657    2.9967   -6.8590 H   0  0  0  0  0  0  0  0  0  0  0  0
   -4.4912    4.1839  -12.7108 H   0  0  0  0  0  0  0  0  0  0  0  0
   -5.8197    3.0802  -12.3643 H   0  0  0  0  0  0  0  0  0  0  0  0
   -5.7023    6.1086  -11.9866 H   0  0  0  0  0  0  0  0  0  0  0  0
   -7.2236    5.2468  -11.9764 H   0  0  0  0  0  0  0  0  0  0  0  0
   -4.2088    3.8967   -9.7355 H   0  0  0  0  0  0  0  0  0  0  0  0
   -3.9538    5.4401  -10.6183 H   0  0  0  0  0  0  0  0  0  0  0  0
   -4.5071    5.4635   -8.9095 H   0  0  0  0  0  0  0  0  0  0  0  0
   -5.6746    4.9942  -14.5940 H   0  0  0  0  0  0  0  0  0  0  0  0
  -10.1503    1.9320   -8.8907 H   0  0  0  0  0  0  0  0  0  0  0  0
  1  2  1  0  0  0  0
  1  4  2  0  0  0  0
  2  6  2  0  0  0  0
  3  5  2  0  0  0  0
  3  6  1  0  0  0  0
  4  5  1  0  0  0  0
  4  9  1  0  0  0  0
  5 26  1  0  0  0  0
  6 27  1  0  0  0  0
  7  8  2  0  0  0  0
  7 11  1  0  0  0  0
  8 12  1  0  0  0  0
  9 21  1  0  0  0  0
  9 24  2  0  0  0  0
 10 19  1  0  0  0  0
 10 23  1  0  0  0  0
 10 25  2  0  0  0  0
 11 19  1  0  0  0  0
 12 26  1  0  0  0  0
 13 15  1  0  0  0  0
 13 19  1  0  0  0  0
 14 16  1  0  0  0  0
 14 19  1  0  0  0  0
 15 22  1  0  0  0  0
 16 22  1  0  0  0  0
 17 18  1  0  0  0  0
 17 21  1  0  0  0  0
 18 23  1  0  0  0  0
 20 23  1  0  0  0  0
  1 28  1  0  0  0  0
  2 29  1  0  0  0  0
  3 30  1  0  0  0  0
  7 31  1  0  0  0  0
  8 32  1  0  0  0  0
 11 33  1  0  0  0  0
 11 34  1  0  0  0  0
 12 35  1  0  0  0  0
 12 36  1  0  0  0  0
 13 37  1  0  0  0  0
 13 38  1  0  0  0  0
 14 39  1  0  0  0  0
 14 40  1  0  0  0  0
 15 41  1  0  0  0  0
 15 42  1  0  0  0  0
 16 43  1  0  0  0  0
 16 44  1  0  0  0  0
 17 45  1  0  0  0  0
 17 46  1  0  0  0  0
 18 47  1  0  0  0  0
 18 48  1  0  0  0  0
 20 49  1  0  0  0  0
 20 50  1  0  0  0  0
 20 51  1  0  0  0  0
 21 52  1  0  0  0  0
 22 53  1  0  0  0  0
M  END
> <id>
EN300-1718908

> <smiles>
CN1CCNC(=O)C=2C=CC(Br)=CC2OC/C=C/CC3(CCNCC3)C1=O

> <MDLNUMBER>
MFCD31690666

> <IUPAC Name>
(3E)-15-bromo-8-methyl-2,5,7,8,9,10,11,12-octahydrospiro[1,8,11-benzoxadiazacyclotetradecine-6,4'-piperidin]-3-ene-7,12-dione

> <CAS>
2230816-87-0

> <URL>
https://www.enaminestore.com/catalog/EN300-1718908

> <ROCS_ShapeQuery>
_x0404_0B

> <ROCS_TanimotoCombo>
0.415 

> <ROCS_ShapeTanimoto>
0.309 

> <ROCS_ColorTanimoto>
0.106 

> <ROCS_RefTversky>
0.288 

> <ROCS_RefColorTversky>
0.112 

> <ROCS_RefTverskyCombo>
0.400 

> <ROCS_FitTversky>
1.308 

> <ROCS_FitColorTversky>
0.656 

> <ROCS_FitTverskyCombo>
1.964 

> <ROCS_ColorScore>
-8.088

> <ROCS_Overlap>
1924.476

> <ROCS_Rank>
58                  

$$$$
untitled-dbase-43868_182
  -OEChem-08212314543D

 48 50  0     0  0  0  0  0  0999 V2000
   -9.0403    2.9413   -9.5533 C   0  0  0  0  0  0  0  0  0  0  0  0
   -9.0961    1.9783   -8.5444 C   0  0  0  0  0  0  0  0  0  0  0  0
   -9.0362    3.7199   -6.8824 C   0  0  0  0  0  0  0  0  0  0  0  0
   -8.9816    4.3123   -9.2458 C   0  0  0  0  0  0  0  0  0  0  0  0
   -8.9658    4.6930   -7.8903 C   0  0  0  0  0  0  0  0  0  0  0  0
   -9.0968    2.3676   -7.2094 C   0  0  0  0  0  0  0  0  0  0  0  0
   -8.7140    5.6631  -14.7214 C   0  0  0  0  0  0  0  0  0  0  0  0
   -8.9292    6.1474   -7.5142 C   0  0  0  0  0  0  0  0  0  0  0  0
   -7.6065    5.2512  -11.1570 C   0  0  0  0  0  0  0  0  0  0  0  0
  -10.1611    5.2529  -11.2970 C   0  0  0  0  0  0  0  0  0  0  0  0
   -7.6963    5.9790  -12.4954 C   0  0  0  0  0  0  0  0  0  0  0  0
   -9.8370    4.6956  -12.6821 C   0  0  0  0  0  0  0  0  0  0  0  0
   -8.2984    6.9550   -8.6316 C   0  0  0  0  0  0  0  0  0  0  0  0
   -8.9276    5.3692  -10.3545 C   0  0  0  0  0  0  0  0  0  0  0  0
   -7.8344    4.8556  -17.3213 C   0  0  0  0  0  0  0  0  0  0  0  0
   -9.9880    3.5691  -17.4477 C   0  0  0  0  0  0  0  0  0  0  0  0
  -10.0365    6.0710  -17.2325 C   0  0  0  0  0  0  0  0  0  0  0  0
   -9.2890    4.7920  -16.8579 C   0  0  0  0  0  0  0  0  0  0  0  0
   -8.7665    5.4514  -13.3396 N   0  0  0  0  0  0  0  0  0  0  0  0
   -8.1886    6.6418  -15.2494 O   0  0  0  0  0  0  0  0  0  0  0  0
   -9.0194    6.7191   -9.8354 O   0  0  0  0  0  0  0  0  0  0  0  0
   -9.1587    1.4301   -6.2254 O   0  0  0  0  0  0  0  0  0  0  0  0
   -9.3075    4.6540  -15.4325 O   0  0  0  0  0  0  0  0  0  0  0  0
   -9.0454    2.6050  -10.5871 H   0  0  0  0  0  0  0  0  0  0  0  0
   -9.1368    0.9254   -8.8097 H   0  0  0  0  0  0  0  0  0  0  0  0
   -9.0477    4.0206   -5.8371 H   0  0  0  0  0  0  0  0  0  0  0  0
   -9.9381    6.5246   -7.3161 H   0  0  0  0  0  0  0  0  0  0  0  0
   -8.3336    6.2440   -6.5989 H   0  0  0  0  0  0  0  0  0  0  0  0
   -7.3513    4.2056  -11.3502 H   0  0  0  0  0  0  0  0  0  0  0  0
   -6.7833    5.6855  -10.5803 H   0  0  0  0  0  0  0  0  0  0  0  0
  -10.6422    6.2387  -11.4241 H   0  0  0  0  0  0  0  0  0  0  0  0
  -10.9345    4.6111  -10.8359 H   0  0  0  0  0  0  0  0  0  0  0  0
   -7.9034    7.0503  -12.3447 H   0  0  0  0  0  0  0  0  0  0  0  0
   -6.7232    5.9232  -13.0034 H   0  0  0  0  0  0  0  0  0  0  0  0
   -9.5617    3.6361  -12.5980 H   0  0  0  0  0  0  0  0  0  0  0  0
  -10.7171    4.7426  -13.3388 H   0  0  0  0  0  0  0  0  0  0  0  0
   -8.2666    8.0263   -8.4023 H   0  0  0  0  0  0  0  0  0  0  0  0
   -7.2652    6.6257   -8.7898 H   0  0  0  0  0  0  0  0  0  0  0  0
   -7.3291    5.7321  -16.9001 H   0  0  0  0  0  0  0  0  0  0  0  0
   -7.2781    3.9593  -17.0282 H   0  0  0  0  0  0  0  0  0  0  0  0
   -7.7753    4.9587  -18.4109 H   0  0  0  0  0  0  0  0  0  0  0  0
  -11.0320    3.5195  -17.1178 H   0  0  0  0  0  0  0  0  0  0  0  0
   -9.5115    2.6437  -17.1043 H   0  0  0  0  0  0  0  0  0  0  0  0
   -9.9706    3.5825  -18.5423 H   0  0  0  0  0  0  0  0  0  0  0  0
  -11.0800    6.0256  -16.9002 H   0  0  0  0  0  0  0  0  0  0  0  0
   -9.5702    6.9558  -16.7873 H   0  0  0  0  0  0  0  0  0  0  0  0
  -10.0639    6.2018  -18.3203 H   0  0  0  0  0  0  0  0  0  0  0  0
   -9.1974    0.5398   -6.6102 H   0  0  0  0  0  0  0  0  0  0  0  0
  1  2  1  0  0  0  0
  1  4  2  0  0  0  0
  2  6  2  0  0  0  0
  3  5  2  0  0  0  0
  3  6  1  0  0  0  0
  4  5  1  0  0  0  0
  4 14  1  0  0  0  0
  5  8  1  0  0  0  0
  6 22  1  0  0  0  0
  7 19  1  0  0  0  0
  7 20  2  0  0  0  0
  7 23  1  0  0  0  0
  8 13  1  0  0  0  0
  9 11  1  0  0  0  0
  9 14  1  0  0  0  0
 10 12  1  0  0  0  0
 10 14  1  0  0  0  0
 11 19  1  0  0  0  0
 12 19  1  0  0  0  0
 13 21  1  0  0  0  0
 14 21  1  0  0  0  0
 15 18  1  0  0  0  0
 16 18  1  0  0  0  0
 17 18  1  0  0  0  0
 18 23  1  0  0  0  0
  1 24  1  0  0  0  0
  2 25  1  0  0  0  0
  3 26  1  0  0  0  0
  8 27  1  0  0  0  0
  8 28  1  0  0  0  0
  9 29  1  0  0  0  0
  9 30  1  0  0  0  0
 10 31  1  0  0  0  0
 10 32  1  0  0  0  0
 11 33  1  0  0  0  0
 11 34  1  0  0  0  0
 12 35  1  0  0  0  0
 12 36  1  0  0  0  0
 13 37  1  0  0  0  0
 13 38  1  0  0  0  0
 15 39  1  0  0  0  0
 15 40  1  0  0  0  0
 15 41  1  0  0  0  0
 16 42  1  0  0  0  0
 16 43  1  0  0  0  0
 16 44  1  0  0  0  0
 17 45  1  0  0  0  0
 17 46  1  0  0  0  0
 17 47  1  0  0  0  0
 22 48  1  0  0  0  0
M  END
> <id>
EN300-27783844

> <smiles>
CC(C)(C)OC(=O)N1CCC2(CC1)OCCC=3C=C(O)C=CC32

> <IUPAC Name>
tert-butyl 6-hydroxy-3,4-dihydrospiro[2-benzopyran-1,4'-piperidine]-1'-carboxylate

> <CAS>
2639445-07-9

> <URL>
https://www.enaminestore.com/catalog/EN300-27783844

> <ROCS_ShapeQuery>
_x0404_0B

> <ROCS_TanimotoCombo>
0.414 

> <ROCS_ShapeTanimoto>
0.335 

> <ROCS_ColorTanimoto>
0.079 

> <ROCS_RefTversky>
0.301 

> <ROCS_RefColorTversky>
0.085 

> <ROCS_RefTverskyCombo>
0.386 

> <ROCS_FitTversky>
1.508 

> <ROCS_FitColorTversky>
0.537 

> <ROCS_FitTverskyCombo>
2.045 

> <ROCS_ColorScore>
-6.113

> <ROCS_Overlap>
2009.664

> <ROCS_Rank>
59                  

$$$$
untitled-dbase-42124_301
  -OEChem-08212314543D

 56 58  0     0  0  0  0  0  0999 V2000
   -4.8593    3.3348  -13.4450 C   0  0  0  0  0  0  0  0  0  0  0  0
   -5.3076    1.2079  -14.5173 C   0  0  0  0  0  0  0  0  0  0  0  0
   -5.0998    2.7585  -12.1992 C   0  0  0  0  0  0  0  0  0  0  0  0
   -5.5568    0.6335  -13.2682 C   0  0  0  0  0  0  0  0  0  0  0  0
   -8.4536    4.6525  -12.8926 C   0  0  0  0  0  0  0  0  0  0  0  0
   -8.5067    4.2615  -11.5495 C   0  0  0  0  0  0  0  0  0  0  0  0
   -8.8248    6.9470  -12.2361 C   0  0  0  0  0  0  0  0  0  0  0  0
   -8.8752    6.5564  -10.8942 C   0  0  0  0  0  0  0  0  0  0  0  0
   -4.9833    2.5630  -14.6030 C   0  0  0  0  0  0  0  0  0  0  0  0
   -5.4652    1.4087  -12.1056 C   0  0  0  0  0  0  0  0  0  0  0  0
   -8.6166    5.9973  -13.2425 C   0  0  0  0  0  0  0  0  0  0  0  0
   -8.7245    5.2105  -10.5428 C   0  0  0  0  0  0  0  0  0  0  0  0
   -4.7876    3.1708  -15.9304 C   0  0  0  0  0  0  0  0  0  0  0  0
   -5.8448    0.7939  -10.8097 C   0  0  0  0  0  0  0  0  0  0  0  0
   -8.6358    6.4532  -14.6550 C   0  0  0  0  0  0  0  0  0  0  0  0
   -8.8080    4.8448   -9.1043 C   0  0  0  0  0  0  0  0  0  0  0  0
   -6.3113    4.7578  -18.1539 C   0  0  0  0  0  0  0  0  0  0  0  0
   -7.7432    4.5309  -17.6537 C   0  0  0  0  0  0  0  0  0  0  0  0
   -6.2293    2.7990   -7.8445 C   0  0  0  0  0  0  0  0  0  0  0  0
   -7.4356    3.0251   -6.9332 C   0  0  0  0  0  0  0  0  0  0  0  0
   -5.2966    5.1931  -17.1011 C   0  0  0  0  0  0  0  0  0  0  0  0
   -6.2024    1.4409   -8.5420 C   0  0  0  0  0  0  0  0  0  0  0  0
   -8.3391    5.7090  -16.8873 C   0  0  0  0  0  0  0  0  0  0  0  0
   -8.7950    2.9503   -7.6347 C   0  0  0  0  0  0  0  0  0  0  0  0
   -4.2362    2.6135  -16.8629 O   0  0  0  0  0  0  0  0  0  0  0  0
   -6.3984   -0.2886  -10.7082 O   0  0  0  0  0  0  0  0  0  0  0  0
   -9.0353    7.5561  -14.9947 O   0  0  0  0  0  0  0  0  0  0  0  0
   -8.9095    5.6643   -8.2056 O   0  0  0  0  0  0  0  0  0  0  0  0
   -5.3684    4.3953  -15.9117 O   0  0  0  0  0  0  0  0  0  0  0  0
   -5.5400    1.6466   -9.8028 O   0  0  0  0  0  0  0  0  0  0  0  0
   -8.1810    5.4731  -15.4760 O   0  0  0  0  0  0  0  0  0  0  0  0
   -8.7549    3.4974   -8.9654 O   0  0  0  0  0  0  0  0  0  0  0  0
   -4.5989    4.3860  -13.4915 H   0  0  0  0  0  0  0  0  0  0  0  0
   -5.3910    0.5798  -15.3971 H   0  0  0  0  0  0  0  0  0  0  0  0
   -5.0094    3.3839  -11.3139 H   0  0  0  0  0  0  0  0  0  0  0  0
   -5.8435   -0.4129  -13.2251 H   0  0  0  0  0  0  0  0  0  0  0  0
   -8.2961    3.8832  -13.6451 H   0  0  0  0  0  0  0  0  0  0  0  0
   -8.3963    3.2064  -11.3142 H   0  0  0  0  0  0  0  0  0  0  0  0
   -8.9743    7.9968  -12.4760 H   0  0  0  0  0  0  0  0  0  0  0  0
   -9.0507    7.3257  -10.1447 H   0  0  0  0  0  0  0  0  0  0  0  0
   -5.9678    3.8143  -18.5971 H   0  0  0  0  0  0  0  0  0  0  0  0
   -6.3220    5.5003  -18.9612 H   0  0  0  0  0  0  0  0  0  0  0  0
   -8.3689    4.3396  -18.5352 H   0  0  0  0  0  0  0  0  0  0  0  0
   -7.7712    3.6227  -17.0387 H   0  0  0  0  0  0  0  0  0  0  0  0
   -6.2504    3.5818   -8.6157 H   0  0  0  0  0  0  0  0  0  0  0  0
   -5.3058    2.9478   -7.2680 H   0  0  0  0  0  0  0  0  0  0  0  0
   -7.4088    2.2599   -6.1540 H   0  0  0  0  0  0  0  0  0  0  0  0
   -7.3489    3.9960   -6.4422 H   0  0  0  0  0  0  0  0  0  0  0  0
   -4.2803    5.1118  -17.5310 H   0  0  0  0  0  0  0  0  0  0  0  0
   -5.4516    6.2546  -16.8322 H   0  0  0  0  0  0  0  0  0  0  0  0
   -5.6367    0.7173   -7.9767 H   0  0  0  0  0  0  0  0  0  0  0  0
   -7.2035    1.0692   -8.6989 H   0  0  0  0  0  0  0  0  0  0  0  0
   -7.8298    6.6394  -17.1318 H   0  0  0  0  0  0  0  0  0  0  0  0
   -9.3943    5.8319  -17.1305 H   0  0  0  0  0  0  0  0  0  0  0  0
   -9.1085    1.8918   -7.6881 H   0  0  0  0  0  0  0  0  0  0  0  0
   -9.5601    3.4897   -7.0482 H   0  0  0  0  0  0  0  0  0  0  0  0
  1  3  1  0  0  0  0
  1  9  2  0  0  0  0
  2  4  2  0  0  0  0
  2  9  1  0  0  0  0
  3 10  2  0  0  0  0
  4 10  1  0  0  0  0
  5  6  1  0  0  0  0
  5 11  2  0  0  0  0
  6 12  2  0  0  0  0
  7  8  2  0  0  0  0
  7 11  1  0  0  0  0
  8 12  1  0  0  0  0
  9 13  1  0  0  0  0
 10 14  1  0  0  0  0
 11 15  1  0  0  0  0
 12 16  1  0  0  0  0
 13 25  2  0  0  0  0
 13 29  1  0  0  0  0
 14 26  2  0  0  0  0
 14 30  1  0  0  0  0
 15 27  2  0  0  0  0
 15 31  1  0  0  0  0
 16 28  2  0  0  0  0
 16 32  1  0  0  0  0
 17 18  1  0  0  0  0
 17 21  1  0  0  0  0
 18 23  1  0  0  0  0
 19 20  1  0  0  0  0
 19 22  1  0  0  0  0
 20 24  1  0  0  0  0
 21 29  1  0  0  0  0
 22 30  1  0  0  0  0
 23 31  1  0  0  0  0
 24 32  1  0  0  0  0
  1 33  1  0  0  0  0
  2 34  1  0  0  0  0
  3 35  1  0  0  0  0
  4 36  1  0  0  0  0
  5 37  1  0  0  0  0
  6 38  1  0  0  0  0
  7 39  1  0  0  0  0
  8 40  1  0  0  0  0
 17 41  1  0  0  0  0
 17 42  1  0  0  0  0
 18 43  1  0  0  0  0
 18 44  1  0  0  0  0
 19 45  1  0  0  0  0
 19 46  1  0  0  0  0
 20 47  1  0  0  0  0
 20 48  1  0  0  0  0
 21 49  1  0  0  0  0
 21 50  1  0  0  0  0
 22 51  1  0  0  0  0
 22 52  1  0  0  0  0
 23 53  1  0  0  0  0
 23 54  1  0  0  0  0
 24 55  1  0  0  0  0
 24 56  1  0  0  0  0
M  END
> <id>
EN300-20177690

> <smiles>
O=C1OCCCCOC(=O)C=2C=CC(=CC2)C(=O)OCCCCOC(=O)C=3C=CC1=CC3

> <MDLNUMBER>
MFCD22572530

> <IUPAC Name>
3,8,15,20-tetraoxatricyclo[20.2.2.2,10,13]octacosa-1(24),10,12,22,25,27-hexaene-2,9,14,21-tetrone

> <CAS>
63440-93-7

> <Purity>
95

> <URL>
https://www.enaminestore.com/catalog/EN300-20177690

> <ROCS_ShapeQuery>
_x0404_0B

> <ROCS_TanimotoCombo>
0.414 

> <ROCS_ShapeTanimoto>
0.333 

> <ROCS_ColorTanimoto>
0.080 

> <ROCS_RefTversky>
0.314 

> <ROCS_RefColorTversky>
0.084 

> <ROCS_RefTverskyCombo>
0.398 

> <ROCS_FitTversky>
1.227 

> <ROCS_FitColorTversky>
0.639 

> <ROCS_FitTverskyCombo>
1.867 

> <ROCS_ColorScore>
-6.062

> <ROCS_Overlap>
2102.943

> <ROCS_Rank>
60                  

$$$$
untitled-dbase-45013_1349
  -OEChem-08212314543D

 50 50  0     0  0  0  0  0  0999 V2000
   -8.3924    4.3290   -9.8818 C   0  0  0  0  0  0  0  0  0  0  0  0
   -8.7876    5.1697  -15.0452 C   0  0  0  0  0  0  0  0  0  0  0  0
   -8.2913    5.9335  -11.7733 C   0  0  0  0  0  0  0  0  0  0  0  0
   -9.4611    5.8222  -12.7486 C   0  0  0  0  0  0  0  0  0  0  0  0
   -7.2276    3.6956  -12.0177 C   0  0  0  0  0  0  0  0  0  0  0  0
   -9.4302    3.4007  -13.3658 C   0  0  0  0  0  0  0  0  0  0  0  0
   -8.1602    2.7580  -12.7912 C   0  0  0  0  0  0  0  0  0  0  0  0
  -10.4018    3.2331   -8.1649 C   0  0  0  0  0  0  0  0  0  0  0  0
   -9.1977    1.0482   -8.4568 C   0  0  0  0  0  0  0  0  0  0  0  0
   -8.0250    2.9876   -7.3743 C   0  0  0  0  0  0  0  0  0  0  0  0
   -7.2741    4.5863  -17.4025 C   0  0  0  0  0  0  0  0  0  0  0  0
   -9.3963    3.5794  -18.2920 C   0  0  0  0  0  0  0  0  0  0  0  0
   -9.3121    6.0261  -17.7312 C   0  0  0  0  0  0  0  0  0  0  0  0
   -9.0512    2.5679   -8.4258 C   0  0  0  0  0  0  0  0  0  0  0  0
   -8.8008    4.6343  -17.3622 C   0  0  0  0  0  0  0  0  0  0  0  0
   -7.9407    4.6485  -11.1667 N   0  0  0  0  0  0  0  0  0  0  0  0
   -9.2478    4.7994  -13.7762 N   0  0  0  0  0  0  0  0  0  0  0  0
   -8.6075    5.1550   -8.9968 O   0  0  0  0  0  0  0  0  0  0  0  0
   -8.0614    6.1377  -15.2636 O   0  0  0  0  0  0  0  0  0  0  0  0
   -7.4214    2.1747  -13.8657 O   0  0  0  0  0  0  0  0  0  0  0  0
   -8.5803    2.9823   -9.7132 O   0  0  0  0  0  0  0  0  0  0  0  0
   -9.2313    4.3285  -16.0311 O   0  0  0  0  0  0  0  0  0  0  0  0
   -7.4022    6.3301  -12.2773 H   0  0  0  0  0  0  0  0  0  0  0  0
   -8.5554    6.6489  -10.9866 H   0  0  0  0  0  0  0  0  0  0  0  0
  -10.3898    5.5876  -12.2153 H   0  0  0  0  0  0  0  0  0  0  0  0
   -9.6105    6.7950  -13.2299 H   0  0  0  0  0  0  0  0  0  0  0  0
   -6.5489    3.0929  -11.4019 H   0  0  0  0  0  0  0  0  0  0  0  0
   -6.5748    4.2527  -12.7017 H   0  0  0  0  0  0  0  0  0  0  0  0
   -9.7936    2.8249  -14.2242 H   0  0  0  0  0  0  0  0  0  0  0  0
  -10.2264    3.3811  -12.6122 H   0  0  0  0  0  0  0  0  0  0  0  0
   -8.4665    1.9328  -12.1371 H   0  0  0  0  0  0  0  0  0  0  0  0
  -10.3009    4.3241   -8.1419 H   0  0  0  0  0  0  0  0  0  0  0  0
  -11.1369    2.9680   -8.9318 H   0  0  0  0  0  0  0  0  0  0  0  0
  -10.8002    2.9389   -7.1872 H   0  0  0  0  0  0  0  0  0  0  0  0
   -8.2310    0.5668   -8.6438 H   0  0  0  0  0  0  0  0  0  0  0  0
   -9.8605    0.7365   -9.2721 H   0  0  0  0  0  0  0  0  0  0  0  0
   -9.6010    0.6619   -7.5151 H   0  0  0  0  0  0  0  0  0  0  0  0
   -7.0561    2.5106   -7.5613 H   0  0  0  0  0  0  0  0  0  0  0  0
   -7.8795    4.0726   -7.3632 H   0  0  0  0  0  0  0  0  0  0  0  0
   -8.3390    2.6680   -6.3741 H   0  0  0  0  0  0  0  0  0  0  0  0
   -6.8428    5.3420  -16.7363 H   0  0  0  0  0  0  0  0  0  0  0  0
   -6.8934    3.6035  -17.1060 H   0  0  0  0  0  0  0  0  0  0  0  0
   -6.9022    4.8125  -18.4083 H   0  0  0  0  0  0  0  0  0  0  0  0
  -10.4916    3.6102  -18.2663 H   0  0  0  0  0  0  0  0  0  0  0  0
   -9.1083    2.5710  -17.9735 H   0  0  0  0  0  0  0  0  0  0  0  0
   -9.0697    3.7225  -19.3271 H   0  0  0  0  0  0  0  0  0  0  0  0
  -10.4072    6.0607  -17.7023 H   0  0  0  0  0  0  0  0  0  0  0  0
   -8.9241    6.7916  -17.0514 H   0  0  0  0  0  0  0  0  0  0  0  0
   -9.0213    6.2894  -18.7546 H   0  0  0  0  0  0  0  0  0  0  0  0
   -7.1179    2.9098  -14.4191 H   0  0  0  0  0  0  0  0  0  0  0  0
  1 16  1  0  0  0  0
  1 18  2  0  0  0  0
  1 21  1  0  0  0  0
  2 17  1  0  0  0  0
  2 19  2  0  0  0  0
  2 22  1  0  0  0  0
  3  4  1  0  0  0  0
  3 16  1  0  0  0  0
  4 17  1  0  0  0  0
  5  7  1  0  0  0  0
  5 16  1  0  0  0  0
  6  7  1  0  0  0  0
  6 17  1  0  0  0  0
  7 20  1  0  0  0  0
  8 14  1  0  0  0  0
  9 14  1  0  0  0  0
 10 14  1  0  0  0  0
 11 15  1  0  0  0  0
 12 15  1  0  0  0  0
 13 15  1  0  0  0  0
 14 21  1  0  0  0  0
 15 22  1  0  0  0  0
  3 23  1  0  0  0  0
  3 24  1  0  0  0  0
  4 25  1  0  0  0  0
  4 26  1  0  0  0  0
  5 27  1  0  0  0  0
  5 28  1  0  0  0  0
  6 29  1  0  0  0  0
  6 30  1  0  0  0  0
  7 31  1  0  0  0  0
  8 32  1  0  0  0  0
  8 33  1  0  0  0  0
  8 34  1  0  0  0  0
  9 35  1  0  0  0  0
  9 36  1  0  0  0  0
  9 37  1  0  0  0  0
 10 38  1  0  0  0  0
 10 39  1  0  0  0  0
 10 40  1  0  0  0  0
 11 41  1  0  0  0  0
 11 42  1  0  0  0  0
 11 43  1  0  0  0  0
 12 44  1  0  0  0  0
 12 45  1  0  0  0  0
 12 46  1  0  0  0  0
 13 47  1  0  0  0  0
 13 48  1  0  0  0  0
 13 49  1  0  0  0  0
 20 50  1  0  0  0  0
M  END
> <id>
EN300-6257496

> <smiles>
CC(C)(C)OC(=O)N1CCN(CC(O)C1)C(=O)OC(C)(C)C

> <MDLNUMBER>
MFCD22690644

> <IUPAC Name>
1,4-di-tert-butyl 6-hydroxy-1,4-diazepane-1,4-dicarboxylate

> <CAS>
1823301-45-6

> <Purity>
95

> <URL>
https://www.enaminestore.com/catalog/EN300-6257496

> <ROCS_ShapeQuery>
_x0404_0B

> <ROCS_TanimotoCombo>
0.414 

> <ROCS_ShapeTanimoto>
0.319 

> <ROCS_ColorTanimoto>
0.094 

> <ROCS_RefTversky>
0.288 

> <ROCS_RefColorTversky>
0.099 

> <ROCS_RefTverskyCombo>
0.386 

> <ROCS_FitTversky>
1.526 

> <ROCS_FitColorTversky>
0.682 

> <ROCS_FitTverskyCombo>
2.207 

> <ROCS_ColorScore>
-7.110

> <ROCS_Overlap>
1919.663

> <ROCS_Rank>
61                  

$$$$
untitled-dbase-27227_158
  -OEChem-08212314543D

 54 56  0     1  0  0  0  0  0999 V2000
   -9.9647    2.6621   -7.4703 C   0  0  0  0  0  0  0  0  0  0  0  0
   -9.0033    1.7528   -7.9079 C   0  0  0  0  0  0  0  0  0  0  0  0
   -9.9970    3.9496   -8.0003 C   0  0  0  0  0  0  0  0  0  0  0  0
   -8.0680    2.1244   -8.8779 C   0  0  0  0  0  0  0  0  0  0  0  0
   -9.0718    4.3169   -8.9828 C   0  0  0  0  0  0  0  0  0  0  0  0
   -8.1010    3.4065   -9.4339 C   0  0  0  0  0  0  0  0  0  0  0  0
   -7.6118    3.2994  -13.7365 C   0  0  0  0  0  0  0  0  0  0  0  0
   -7.8304    2.9485  -12.4604 C   0  0  0  0  0  0  0  0  0  0  0  0
   -9.1482    5.6956   -9.5084 C   0  0  0  0  0  0  0  0  0  0  0  0
   -8.8562    5.8836  -14.7624 C   0  0  0  0  0  0  0  0  0  0  0  0
   -8.7029    3.3062  -14.7739 C   0  0  0  0  0  0  0  0  0  0  0  0
   -6.7852    2.9662  -11.3860 C   0  0  0  0  0  0  0  0  0  0  0  0
   -8.8484    4.6589  -18.7040 C   0  0  0  0  0  0  0  0  0  0  0  0
   -7.7933    5.3886  -17.8739 C   0  0  0  0  0  0  0  0  0  0  0  0
   -9.8701    3.9045  -17.8549 C   0  0  0  0  0  0  0  0  0  0  0  0
   -7.5205    4.6713  -16.5540 C   0  0  0  0  0  0  0  0  0  0  0  0
  -10.0811    4.5697  -16.4990 C   0  0  0  0  0  0  0  0  0  0  0  0
  -10.1094    6.9718  -12.8904 C   0  0  0  0  0  0  0  0  0  0  0  0
   -9.2556    7.0335  -11.6153 C   0  0  2  0  0  0  0  0  0  0  0  0
   -8.7832    4.6028  -15.6379 C   0  0  0  0  0  0  0  0  0  0  0  0
   -7.8026    7.4185  -11.8891 C   0  0  0  0  0  0  0  0  0  0  0  0
   -9.3011    5.7744  -10.8813 N   0  0  0  0  0  0  0  0  0  0  0  0
   -9.8155    5.8435  -13.7612 N   0  0  0  0  0  0  0  0  0  0  0  0
   -9.0835    6.6380   -8.7267 O   0  0  0  0  0  0  0  0  0  0  0  0
   -8.1536    6.8695  -14.9895 O   0  0  0  0  0  0  0  0  0  0  0  0
   -7.1709    3.8603  -10.3337 O   0  0  0  0  0  0  0  0  0  0  0  0
  -10.6817    2.3689   -6.7092 H   0  0  0  0  0  0  0  0  0  0  0  0
   -8.9721    0.7521   -7.4837 H   0  0  0  0  0  0  0  0  0  0  0  0
  -10.7465    4.6491   -7.6449 H   0  0  0  0  0  0  0  0  0  0  0  0
   -7.3091    1.4030   -9.1682 H   0  0  0  0  0  0  0  0  0  0  0  0
   -6.6137    3.5618  -14.0542 H   0  0  0  0  0  0  0  0  0  0  0  0
   -8.8175    2.5727  -12.1742 H   0  0  0  0  0  0  0  0  0  0  0  0
   -8.5906    2.4299  -15.4317 H   0  0  0  0  0  0  0  0  0  0  0  0
   -9.6608    3.1558  -14.2515 H   0  0  0  0  0  0  0  0  0  0  0  0
   -6.6102    1.9322  -11.0172 H   0  0  0  0  0  0  0  0  0  0  0  0
   -5.8249    3.3244  -11.8077 H   0  0  0  0  0  0  0  0  0  0  0  0
   -9.3719    5.3823  -19.3519 H   0  0  0  0  0  0  0  0  0  0  0  0
   -8.3485    3.9494  -19.3869 H   0  0  0  0  0  0  0  0  0  0  0  0
   -6.8631    5.4564  -18.4522 H   0  0  0  0  0  0  0  0  0  0  0  0
   -8.1203    6.4189  -17.6832 H   0  0  0  0  0  0  0  0  0  0  0  0
  -10.8153    3.8438  -18.4022 H   0  0  0  0  0  0  0  0  0  0  0  0
   -9.5272    2.8755  -17.7085 H   0  0  0  0  0  0  0  0  0  0  0  0
   -7.1854    3.6529  -16.7757 H   0  0  0  0  0  0  0  0  0  0  0  0
   -6.6887    5.1657  -16.0491 H   0  0  0  0  0  0  0  0  0  0  0  0
  -10.4664    5.5762  -16.6640 H   0  0  0  0  0  0  0  0  0  0  0  0
  -10.8527    4.0130  -15.9620 H   0  0  0  0  0  0  0  0  0  0  0  0
  -11.1750    6.9636  -12.6268 H   0  0  0  0  0  0  0  0  0  0  0  0
   -9.9373    7.8745  -13.4905 H   0  0  0  0  0  0  0  0  0  0  0  0
   -9.6866    7.8058  -10.9684 H   0  0  0  0  0  0  0  0  0  0  0  0
   -7.3385    6.6720  -12.5312 H   0  0  0  0  0  0  0  0  0  0  0  0
   -7.2533    7.4739  -10.9510 H   0  0  0  0  0  0  0  0  0  0  0  0
   -7.7652    8.3877  -12.3830 H   0  0  0  0  0  0  0  0  0  0  0  0
   -9.4526    4.9122  -11.4042 H   0  0  0  0  0  0  0  0  0  0  0  0
  -10.3388    4.9843  -13.6292 H   0  0  0  0  0  0  0  0  0  0  0  0
  1  2  2  0  0  0  0
  1  3  1  0  0  0  0
  2  4  1  0  0  0  0
  3  5  2  0  0  0  0
  4  6  2  0  0  0  0
  5  6  1  0  0  0  0
  5  9  1  0  0  0  0
  6 26  1  0  0  0  0
  7  8  2  0  0  0  0
  7 11  1  0  0  0  0
  8 12  1  0  0  0  0
  9 22  1  0  0  0  0
  9 24  2  0  0  0  0
 10 20  1  0  0  0  0
 10 23  1  0  0  0  0
 10 25  2  0  0  0  0
 11 20  1  0  0  0  0
 12 26  1  0  0  0  0
 13 14  1  0  0  0  0
 13 15  1  0  0  0  0
 14 16  1  0  0  0  0
 15 17  1  0  0  0  0
 16 20  1  0  0  0  0
 17 20  1  0  0  0  0
 18 19  1  0  0  0  0
 18 23  1  0  0  0  0
 19 21  1  1  0  0  0
 19 22  1  0  0  0  0
  1 27  1  0  0  0  0
  2 28  1  0  0  0  0
  3 29  1  0  0  0  0
  4 30  1  0  0  0  0
  7 31  1  0  0  0  0
  8 32  1  0  0  0  0
 11 33  1  0  0  0  0
 11 34  1  0  0  0  0
 12 35  1  0  0  0  0
 12 36  1  0  0  0  0
 13 37  1  0  0  0  0
 13 38  1  0  0  0  0
 14 39  1  0  0  0  0
 14 40  1  0  0  0  0
 15 41  1  0  0  0  0
 15 42  1  0  0  0  0
 16 43  1  0  0  0  0
 16 44  1  0  0  0  0
 17 45  1  0  0  0  0
 17 46  1  0  0  0  0
 18 47  1  0  0  0  0
 18 48  1  0  0  0  0
 19 49  1  0  0  0  0
 21 50  1  0  0  0  0
 21 51  1  0  0  0  0
 21 52  1  0  0  0  0
 22 53  1  0  0  0  0
 23 54  1  0  0  0  0
M  END
> <id>
EN300-6490458

> <smiles>
C[C@H]1CNC(=O)C2(CCCCC2)C/C=C/COC=3C=CC=CC3C(=O)N1

> <MDLNUMBER>
MFCD31719995

> <IUPAC Name>
(3E,10S)-10-methyl-2,5,7,8,9,10,11,12-octahydrospiro[1,8,11-benzoxadiazacyclotetradecine-6,1'-cyclohexan]-3-ene-7,12-dione

> <CAS>
2253619-80-4

> <URL>
https://www.enaminestore.com/catalog/EN300-6490458

> <ROCS_ShapeQuery>
_x0404_0B

> <ROCS_TanimotoCombo>
0.413 

> <ROCS_ShapeTanimoto>
0.351 

> <ROCS_ColorTanimoto>
0.063 

> <ROCS_RefTversky>
0.315 

> <ROCS_RefColorTversky>
0.067 

> <ROCS_RefTverskyCombo>
0.383 

> <ROCS_FitTversky>
1.469 

> <ROCS_FitColorTversky>
0.467 

> <ROCS_FitTverskyCombo>
1.936 

> <ROCS_ColorScore>
-4.867

> <ROCS_Overlap>
2107.071

> <ROCS_Rank>
62                  

$$$$
untitled-dbase-10075_166
  -OEChem-08212314543D

 46 48  0     1  0  0  0  0  0999 V2000
   -9.1004    2.8225   -6.7455 C   0  0  0  0  0  0  0  0  0  0  0  0
   -9.1578    1.9500   -7.8321 C   0  0  0  0  0  0  0  0  0  0  0  0
   -9.0837    4.2016   -6.9551 C   0  0  0  0  0  0  0  0  0  0  0  0
   -9.1894    2.4537   -9.1327 C   0  0  0  0  0  0  0  0  0  0  0  0
   -9.1184    4.7018   -8.2594 C   0  0  0  0  0  0  0  0  0  0  0  0
   -9.1552    3.8323   -9.3494 C   0  0  0  0  0  0  0  0  0  0  0  0
   -9.1524    6.1545   -8.5028 C   0  0  0  0  0  0  0  0  0  0  0  0
   -8.3551    5.7635  -14.7305 C   0  0  0  0  0  0  0  0  0  0  0  0
   -9.3277    6.5788   -9.9368 C   0  0  0  0  0  0  0  0  0  0  0  0
   -6.4824    4.6259  -11.8110 C   0  0  0  0  0  0  0  0  0  0  0  0
   -7.1385    5.6048  -10.8320 C   0  0  0  0  0  0  0  0  0  0  0  0
   -7.3492    4.2835  -13.0186 C   0  0  0  0  0  0  0  0  0  0  0  0
   -9.1046    5.9411  -12.3419 C   0  0  0  0  0  0  0  0  0  0  0  0
   -8.6799    5.5729  -10.8999 C   0  0  2  0  0  0  0  0  0  0  0  0
   -7.1841    6.0994  -17.3197 C   0  0  0  0  0  0  0  0  0  0  0  0
   -7.9458    3.7480  -17.7667 C   0  0  0  0  0  0  0  0  0  0  0  0
   -9.6379    5.5407  -17.2855 C   0  0  0  0  0  0  0  0  0  0  0  0
   -8.2273    5.0327  -16.9904 C   0  0  0  0  0  0  0  0  0  0  0  0
   -8.2431    5.3736  -13.3903 N   0  0  0  0  0  0  0  0  0  0  0  0
   -9.1029    6.9588   -7.5797 O   0  0  0  0  0  0  0  0  0  0  0  0
   -8.6145    6.9056  -15.1043 O   0  0  0  0  0  0  0  0  0  0  0  0
   -9.1796    4.2447  -10.6529 O   0  0  0  0  0  0  0  0  0  0  0  0
   -8.1371    4.7223  -15.5952 O   0  0  0  0  0  0  0  0  0  0  0  0
   -9.0627    2.4273   -5.7345 H   0  0  0  0  0  0  0  0  0  0  0  0
   -9.1798    0.8769   -7.6656 H   0  0  0  0  0  0  0  0  0  0  0  0
   -9.0365    4.8650   -6.0962 H   0  0  0  0  0  0  0  0  0  0  0  0
   -9.2536    1.7656   -9.9716 H   0  0  0  0  0  0  0  0  0  0  0  0
  -10.3983    6.6784  -10.1490 H   0  0  0  0  0  0  0  0  0  0  0  0
   -8.8607    7.5671  -10.0306 H   0  0  0  0  0  0  0  0  0  0  0  0
   -5.5202    5.0480  -12.1582 H   0  0  0  0  0  0  0  0  0  0  0  0
   -6.2165    3.6926  -11.2771 H   0  0  0  0  0  0  0  0  0  0  0  0
   -6.7990    5.3512   -9.8183 H   0  0  0  0  0  0  0  0  0  0  0  0
   -6.7752    6.6187  -11.0509 H   0  0  0  0  0  0  0  0  0  0  0  0
   -6.7139    4.0655  -13.8966 H   0  0  0  0  0  0  0  0  0  0  0  0
   -7.9220    3.3615  -12.8152 H   0  0  0  0  0  0  0  0  0  0  0  0
  -10.1596    5.6540  -12.5342 H   0  0  0  0  0  0  0  0  0  0  0  0
   -9.0847    7.0456  -12.4791 H   0  0  0  0  0  0  0  0  0  0  0  0
   -7.3826    7.0232  -16.7644 H   0  0  0  0  0  0  0  0  0  0  0  0
   -6.1710    5.7605  -17.0798 H   0  0  0  0  0  0  0  0  0  0  0  0
   -7.2178    6.3644  -18.3826 H   0  0  0  0  0  0  0  0  0  0  0  0
   -8.6920    2.9798  -17.5335 H   0  0  0  0  0  0  0  0  0  0  0  0
   -6.9728    3.3282  -17.4869 H   0  0  0  0  0  0  0  0  0  0  0  0
   -7.9514    3.9199  -18.8479 H   0  0  0  0  0  0  0  0  0  0  0  0
  -10.3864    4.7757  -17.0494 H   0  0  0  0  0  0  0  0  0  0  0  0
   -9.8709    6.4417  -16.7089 H   0  0  0  0  0  0  0  0  0  0  0  0
   -9.7548    5.7692  -18.3511 H   0  0  0  0  0  0  0  0  0  0  0  0
  1  2  2  0  0  0  0
  1  3  1  0  0  0  0
  2  4  1  0  0  0  0
  3  5  2  0  0  0  0
  4  6  2  0  0  0  0
  5  6  1  0  0  0  0
  5  7  1  0  0  0  0
  6 22  1  0  0  0  0
  7  9  1  0  0  0  0
  7 20  2  0  0  0  0
  8 19  1  0  0  0  0
  8 21  2  0  0  0  0
  8 23  1  0  0  0  0
  9 14  1  0  0  0  0
 10 11  1  0  0  0  0
 10 12  1  0  0  0  0
 11 14  1  0  0  0  0
 12 19  1  0  0  0  0
 13 14  1  0  0  0  0
 13 19  1  0  0  0  0
 14 22  1  0  0  0  0
 15 18  1  0  0  0  0
 16 18  1  0  0  0  0
 17 18  1  0  0  0  0
 18 23  1  0  0  0  0
  1 24  1  0  0  0  0
  2 25  1  0  0  0  0
  3 26  1  0  0  0  0
  4 27  1  0  0  0  0
  9 28  1  0  0  0  0
  9 29  1  0  0  0  0
 10 30  1  0  0  0  0
 10 31  1  0  0  0  0
 11 32  1  0  0  0  0
 11 33  1  0  0  0  0
 12 34  1  0  0  0  0
 12 35  1  0  0  0  0
 13 36  1  0  0  0  0
 13 37  1  0  0  0  0
 15 38  1  0  0  0  0
 15 39  1  0  0  0  0
 15 40  1  0  0  0  0
 16 41  1  0  0  0  0
 16 42  1  0  0  0  0
 16 43  1  0  0  0  0
 17 44  1  0  0  0  0
 17 45  1  0  0  0  0
 17 46  1  0  0  0  0
M  END
> <id>
EN300-338162

> <smiles>
CC(C)(C)OC(=O)N1CCCC2(C1)CC(=O)C=3C=CC=CC3O2

> <MDLNUMBER>
MFCD15071773

> <IUPAC Name>
tert-butyl 4-oxo-3,4-dihydrospiro[1-benzopyran-2,3'-piperidine]-1'-carboxylate

> <CAS>
1013334-97-8

> <URL>
https://www.enaminestore.com/catalog/EN300-338162

> <ROCS_ShapeQuery>
_x0404_0B

> <ROCS_TanimotoCombo>
0.413 

> <ROCS_ShapeTanimoto>
0.351 

> <ROCS_ColorTanimoto>
0.062 

> <ROCS_RefTversky>
0.312 

> <ROCS_RefColorTversky>
0.067 

> <ROCS_RefTverskyCombo>
0.379 

> <ROCS_FitTversky>
1.552 

> <ROCS_FitColorTversky>
0.464 

> <ROCS_FitTverskyCombo>
2.016 

> <ROCS_ColorScore>
-4.840

> <ROCS_Overlap>
2083.170

> <ROCS_Rank>
63                  

$$$$
untitled-dbase-27140_7
  -OEChem-08212314543D

 53 55  0     1  0  0  0  0  0999 V2000
   -9.8025    2.6415   -7.1586 C   0  0  0  0  0  0  0  0  0  0  0  0
   -8.9208    1.6642   -7.6167 C   0  0  0  0  0  0  0  0  0  0  0  0
   -9.8488    3.8885   -7.7807 C   0  0  0  0  0  0  0  0  0  0  0  0
   -8.0786    1.9286   -8.6980 C   0  0  0  0  0  0  0  0  0  0  0  0
   -9.0174    4.1548   -8.8750 C   0  0  0  0  0  0  0  0  0  0  0  0
   -8.1261    3.1718   -9.3375 C   0  0  0  0  0  0  0  0  0  0  0  0
   -7.2802    2.9588  -13.7418 C   0  0  0  0  0  0  0  0  0  0  0  0
   -6.6277    3.1520  -12.5861 C   0  0  0  0  0  0  0  0  0  0  0  0
   -9.1147    5.4980   -9.5013 C   0  0  0  0  0  0  0  0  0  0  0  0
   -8.4406    5.6823  -14.9420 C   0  0  0  0  0  0  0  0  0  0  0  0
   -6.9146    3.6460  -15.0282 C   0  0  0  0  0  0  0  0  0  0  0  0
   -6.9955    2.4777  -11.2998 C   0  0  0  0  0  0  0  0  0  0  0  0
  -10.2641    4.1665  -17.0083 C   0  0  0  0  0  0  0  0  0  0  0  0
   -9.2679    3.5034  -16.0567 C   0  0  0  0  0  0  0  0  0  0  0  0
   -9.5818    4.6370  -18.2876 C   0  0  0  0  0  0  0  0  0  0  0  0
   -9.8059    6.5107  -13.0194 C   0  0  0  0  0  0  0  0  0  0  0  0
   -7.4678    4.8742  -17.1387 C   0  0  0  0  0  0  0  0  0  0  0  0
   -9.0777    6.7197  -11.6868 C   0  0  2  0  0  0  0  0  0  0  0  0
   -8.0519    4.4182  -15.7644 C   0  0  1  0  0  0  0  0  0  0  0  0
   -7.6412    7.2035  -11.8749 C   0  0  0  0  0  0  0  0  0  0  0  0
   -9.0951    5.4999  -10.8866 N   0  0  0  0  0  0  0  0  0  0  0  0
   -9.2440    5.4456  -13.8373 N   0  0  0  0  0  0  0  0  0  0  0  0
   -8.4618    5.5276  -17.9961 N   0  0  0  0  0  0  0  0  0  0  0  0
   -9.2185    6.4889   -8.7852 O   0  0  0  0  0  0  0  0  0  0  0  0
   -8.0373    6.8054  -15.2508 O   0  0  0  0  0  0  0  0  0  0  0  0
   -7.2747    3.5125  -10.3546 O   0  0  0  0  0  0  0  0  0  0  0  0
  -10.4522    2.4324   -6.3135 H   0  0  0  0  0  0  0  0  0  0  0  0
   -8.8805    0.6973   -7.1232 H   0  0  0  0  0  0  0  0  0  0  0  0
  -10.5443    4.6369   -7.4098 H   0  0  0  0  0  0  0  0  0  0  0  0
   -7.3790    1.1592   -9.0118 H   0  0  0  0  0  0  0  0  0  0  0  0
   -8.1055    2.2529  -13.7705 H   0  0  0  0  0  0  0  0  0  0  0  0
   -5.7882    3.8421  -12.5541 H   0  0  0  0  0  0  0  0  0  0  0  0
   -6.0794    4.3375  -14.8506 H   0  0  0  0  0  0  0  0  0  0  0  0
   -6.5250    2.8666  -15.6971 H   0  0  0  0  0  0  0  0  0  0  0  0
   -7.8623    1.8197  -11.4426 H   0  0  0  0  0  0  0  0  0  0  0  0
   -6.1437    1.8859  -10.9470 H   0  0  0  0  0  0  0  0  0  0  0  0
  -11.0590    3.4543  -17.2584 H   0  0  0  0  0  0  0  0  0  0  0  0
  -10.7472    5.0160  -16.5100 H   0  0  0  0  0  0  0  0  0  0  0  0
   -9.7998    3.2074  -15.1473 H   0  0  0  0  0  0  0  0  0  0  0  0
   -8.9153    2.5711  -16.5187 H   0  0  0  0  0  0  0  0  0  0  0  0
   -9.2364    3.7756  -18.8722 H   0  0  0  0  0  0  0  0  0  0  0  0
  -10.3093    5.1723  -18.9074 H   0  0  0  0  0  0  0  0  0  0  0  0
  -10.8513    6.2394  -12.8320 H   0  0  0  0  0  0  0  0  0  0  0  0
   -9.8122    7.4437  -13.5942 H   0  0  0  0  0  0  0  0  0  0  0  0
   -6.6389    5.5756  -16.9821 H   0  0  0  0  0  0  0  0  0  0  0  0
   -7.0438    4.0153  -17.6761 H   0  0  0  0  0  0  0  0  0  0  0  0
   -9.6190    7.4906  -11.1245 H   0  0  0  0  0  0  0  0  0  0  0  0
   -7.0717    6.4608  -12.4312 H   0  0  0  0  0  0  0  0  0  0  0  0
   -7.1737    7.3576  -10.9039 H   0  0  0  0  0  0  0  0  0  0  0  0
   -7.6373    8.1424  -12.4260 H   0  0  0  0  0  0  0  0  0  0  0  0
   -9.0928    4.6067  -11.3697 H   0  0  0  0  0  0  0  0  0  0  0  0
   -9.4966    4.4964  -13.5871 H   0  0  0  0  0  0  0  0  0  0  0  0
   -8.0184    5.8072  -18.8707 H   0  0  0  0  0  0  0  0  0  0  0  0
  1  2  2  0  0  0  0
  1  3  1  0  0  0  0
  2  4  1  0  0  0  0
  3  5  2  0  0  0  0
  4  6  2  0  0  0  0
  5  6  1  0  0  0  0
  5  9  1  0  0  0  0
  6 26  1  0  0  0  0
  7  8  2  0  0  0  0
  7 11  1  0  0  0  0
  8 12  1  0  0  0  0
  9 21  1  0  0  0  0
  9 24  2  0  0  0  0
 10 19  1  0  0  0  0
 10 22  1  0  0  0  0
 10 25  2  0  0  0  0
 11 19  1  0  0  0  0
 12 26  1  0  0  0  0
 13 14  1  0  0  0  0
 13 15  1  0  0  0  0
 14 19  1  6  0  0  0
 15 23  1  0  0  0  0
 16 18  1  0  0  0  0
 16 22  1  0  0  0  0
 17 19  1  0  0  0  0
 17 23  1  0  0  0  0
 18 20  1  1  0  0  0
 18 21  1  0  0  0  0
  1 27  1  0  0  0  0
  2 28  1  0  0  0  0
  3 29  1  0  0  0  0
  4 30  1  0  0  0  0
  7 31  1  0  0  0  0
  8 32  1  0  0  0  0
 11 33  1  0  0  0  0
 11 34  1  0  0  0  0
 12 35  1  0  0  0  0
 12 36  1  0  0  0  0
 13 37  1  0  0  0  0
 13 38  1  0  0  0  0
 14 39  1  0  0  0  0
 14 40  1  0  0  0  0
 15 41  1  0  0  0  0
 15 42  1  0  0  0  0
 16 43  1  0  0  0  0
 16 44  1  0  0  0  0
 17 45  1  0  0  0  0
 17 46  1  0  0  0  0
 18 47  1  0  0  0  0
 20 48  1  0  0  0  0
 20 49  1  0  0  0  0
 20 50  1  0  0  0  0
 21 51  1  0  0  0  0
 22 52  1  0  0  0  0
 23 53  1  0  0  0  0
M  END
> <id>
EN300-6478499

> <smiles>
Cl.C[C@H]1CNC(=O)[C@]2(CCCNC2)C/C=C/COC=3C=CC=CC3C(=O)N1

> <MDLNUMBER>
MFCD31737432

> <IUPAC Name>
(3E,6R,10S)-10-methyl-2,5,7,8,9,10,11,12-octahydrospiro[1,8,11-benzoxadiazacyclotetradecine-6,3'-piperidin]-3-ene-7,12-dione hydrochloride

> <CAS>
2253619-97-3

> <Purity>
95

> <URL>
https://www.enaminestore.com/catalog/EN300-6478499

> <Saltdate>
Cl

> <ROCS_ShapeQuery>
_x0404_0B

> <ROCS_TanimotoCombo>
0.413 

> <ROCS_ShapeTanimoto>
0.353 

> <ROCS_ColorTanimoto>
0.060 

> <ROCS_RefTversky>
0.317 

> <ROCS_RefColorTversky>
0.066 

> <ROCS_RefTverskyCombo>
0.383 

> <ROCS_FitTversky>
1.474 

> <ROCS_FitColorTversky>
0.387 

> <ROCS_FitTverskyCombo>
1.861 

> <ROCS_ColorScore>
-4.773

> <ROCS_Overlap>
2118.730

> <ROCS_Rank>
64                  

$$$$
untitled-dbase-26038_64
  -OEChem-08212314543D

 50 52  0     1  0  0  0  0  0999 V2000
   -9.0639    5.4942  -17.6534 C   0  0  0  0  0  0  0  0  0  0  0  0
   -9.5197    5.3111  -16.3499 C   0  0  0  0  0  0  0  0  0  0  0  0
   -7.1663    4.0708  -17.1865 C   0  0  0  0  0  0  0  0  0  0  0  0
   -7.6190    3.8689  -15.8742 C   0  0  0  0  0  0  0  0  0  0  0  0
   -7.8863    4.8785  -18.0697 C   0  0  0  0  0  0  0  0  0  0  0  0
   -8.7905    4.5165  -15.4566 C   0  0  0  0  0  0  0  0  0  0  0  0
   -8.8624    5.1585  -10.9413 C   0  0  0  0  0  0  0  0  0  0  0  0
   -8.3732    5.2117  -12.1877 C   0  0  0  0  0  0  0  0  0  0  0  0
   -6.7892    2.9942  -14.9978 C   0  0  0  0  0  0  0  0  0  0  0  0
   -8.8317    2.2499  -10.2984 C   0  0  0  0  0  0  0  0  0  0  0  0
   -8.0359    4.7092   -9.7731 C   0  0  0  0  0  0  0  0  0  0  0  0
   -9.1821    5.5413  -13.3998 C   0  0  0  0  0  0  0  0  0  0  0  0
   -6.7981    1.2571  -13.2235 C   0  0  0  0  0  0  0  0  0  0  0  0
   -7.8622    2.9282   -7.9175 C   0  0  0  0  0  0  0  0  0  0  0  0
   -9.8002    3.6188   -8.2174 C   0  0  0  0  0  0  0  0  0  0  0  0
   -7.6057    0.8542  -11.9868 C   0  0  1  0  0  0  0  0  0  0  0  0
   -8.6086    3.3954   -9.2085 C   0  0  0  0  0  0  0  0  0  0  0  0
   -6.9818   -0.3668  -11.3126 C   0  0  0  0  0  0  0  0  0  0  0  0
   -7.3901    5.0825  -19.4626 C   0  0  0  0  0  0  0  0  0  0  0  0
   -7.4682    2.2593  -14.0373 N   0  0  0  0  0  0  0  0  0  0  0  0
   -7.6819    1.9479  -11.0208 N   0  0  0  0  0  0  0  0  0  0  0  0
   -9.1747    2.6380   -7.3101 N   0  0  0  0  0  0  0  0  0  0  0  0
   -5.5764    2.9368  -15.1882 O   0  0  0  0  0  0  0  0  0  0  0  0
   -9.9080    1.6709  -10.4798 O   0  0  0  0  0  0  0  0  0  0  0  0
   -9.2622    4.3432  -14.1843 O   0  0  0  0  0  0  0  0  0  0  0  0
   -8.1896    5.8945  -20.2158 F   0  0  0  0  0  0  0  0  0  0  0  0
   -6.1492    5.6501  -19.5220 F   0  0  0  0  0  0  0  0  0  0  0  0
   -7.2923    3.9144  -20.1619 F   0  0  0  0  0  0  0  0  0  0  0  0
   -9.6362    6.1088  -18.3402 H   0  0  0  0  0  0  0  0  0  0  0  0
  -10.4525    5.7835  -16.0643 H   0  0  0  0  0  0  0  0  0  0  0  0
   -6.2366    3.6092  -17.5239 H   0  0  0  0  0  0  0  0  0  0  0  0
   -9.8831    5.4553  -10.7458 H   0  0  0  0  0  0  0  0  0  0  0  0
   -7.3087    5.0310  -12.3487 H   0  0  0  0  0  0  0  0  0  0  0  0
   -7.0013    4.5784  -10.1107 H   0  0  0  0  0  0  0  0  0  0  0  0
   -8.0142    5.4727   -8.9865 H   0  0  0  0  0  0  0  0  0  0  0  0
  -10.1819    5.8505  -13.0761 H   0  0  0  0  0  0  0  0  0  0  0  0
   -8.7156    6.3458  -13.9807 H   0  0  0  0  0  0  0  0  0  0  0  0
   -5.8280    1.6811  -12.9336 H   0  0  0  0  0  0  0  0  0  0  0  0
   -6.5932    0.3757  -13.8442 H   0  0  0  0  0  0  0  0  0  0  0  0
   -7.2010    2.0599   -7.9891 H   0  0  0  0  0  0  0  0  0  0  0  0
   -7.3089    3.7173   -7.3900 H   0  0  0  0  0  0  0  0  0  0  0  0
   -9.8753    4.6241   -7.7828 H   0  0  0  0  0  0  0  0  0  0  0  0
  -10.7943    3.3317   -8.5768 H   0  0  0  0  0  0  0  0  0  0  0  0
   -8.6332    0.5995  -12.2786 H   0  0  0  0  0  0  0  0  0  0  0  0
   -5.9611   -0.1384  -11.0137 H   0  0  0  0  0  0  0  0  0  0  0  0
   -6.9737   -1.2042  -12.0068 H   0  0  0  0  0  0  0  0  0  0  0  0
   -7.5619   -0.6355  -10.4325 H   0  0  0  0  0  0  0  0  0  0  0  0
   -8.4404    2.4465  -13.8487 H   0  0  0  0  0  0  0  0  0  0  0  0
   -6.8542    2.5164  -10.8687 H   0  0  0  0  0  0  0  0  0  0  0  0
   -9.4896    1.6809   -7.4789 H   0  0  0  0  0  0  0  0  0  0  0  0
  1  2  1  0  0  0  0
  1  5  2  0  0  0  0
  2  6  2  0  0  0  0
  3  4  2  0  0  0  0
  3  5  1  0  0  0  0
  4  6  1  0  0  0  0
  4  9  1  0  0  0  0
  5 19  1  0  0  0  0
  6 25  1  0  0  0  0
  7  8  2  0  0  0  0
  7 11  1  0  0  0  0
  8 12  1  0  0  0  0
  9 20  1  0  0  0  0
  9 23  2  0  0  0  0
 10 17  1  0  0  0  0
 10 21  1  0  0  0  0
 10 24  2  0  0  0  0
 11 17  1  0  0  0  0
 12 25  1  0  0  0  0
 13 16  1  0  0  0  0
 13 20  1  0  0  0  0
 14 17  1  0  0  0  0
 14 22  1  0  0  0  0
 15 17  1  0  0  0  0
 15 22  1  0  0  0  0
 16 18  1  6  0  0  0
 16 21  1  0  0  0  0
 19 26  1  0  0  0  0
 19 27  1  0  0  0  0
 19 28  1  0  0  0  0
  1 29  1  0  0  0  0
  2 30  1  0  0  0  0
  3 31  1  0  0  0  0
  7 32  1  0  0  0  0
  8 33  1  0  0  0  0
 11 34  1  0  0  0  0
 11 35  1  0  0  0  0
 12 36  1  0  0  0  0
 12 37  1  0  0  0  0
 13 38  1  0  0  0  0
 13 39  1  0  0  0  0
 14 40  1  0  0  0  0
 14 41  1  0  0  0  0
 15 42  1  0  0  0  0
 15 43  1  0  0  0  0
 16 44  1  0  0  0  0
 18 45  1  0  0  0  0
 18 46  1  0  0  0  0
 18 47  1  0  0  0  0
 20 48  1  0  0  0  0
 21 49  1  0  0  0  0
 22 50  1  0  0  0  0
M  END
> <id>
EN300-6733244

> <smiles>
C[C@@H]1CNC(=O)C=2C=C(C=CC2OC/C=C/CC3(CNC3)C(=O)N1)C(F)(F)F.OC(=O)C(F)(F)F

> <MDLNUMBER>
MFCD31746275

> <IUPAC Name>
(3'E,9'R)-9'-methyl-14'-(trifluoromethyl)-2',5',7',8',9',10',11',12'-octahydrospiro[azetidine-3,6'-[1,8,11]benzoxadiazacyclotetradecin]-3'-ene-7',12'-dione; trifluoroacetic acid

> <CAS>
2648895-59-2

> <URL>
https://www.enaminestore.com/catalog/EN300-6733244

> <Saltdate>
OC(=O)C(F)(F)F

> <ROCS_ShapeQuery>
_x0404_0B

> <ROCS_TanimotoCombo>
0.413 

> <ROCS_ShapeTanimoto>
0.325 

> <ROCS_ColorTanimoto>
0.088 

> <ROCS_RefTversky>
0.302 

> <ROCS_RefColorTversky>
0.095 

> <ROCS_RefTverskyCombo>
0.396 

> <ROCS_FitTversky>
1.311 

> <ROCS_FitColorTversky>
0.554 

> <ROCS_FitTverskyCombo>
1.865 

> <ROCS_ColorScore>
-6.832

> <ROCS_Overlap>
2016.893

> <ROCS_Rank>
65                  

$$$$
untitled-dbase-25543_4
  -OEChem-08212314543D

 49 53  0     1  0  0  0  0  0999 V2000
   -8.5111    4.9884  -18.8363 C   0  0  0  0  0  0  0  0  0  0  0  0
   -9.5581    4.0658  -18.7703 C   0  0  0  0  0  0  0  0  0  0  0  0
   -7.9457    5.4971  -17.6665 C   0  0  0  0  0  0  0  0  0  0  0  0
  -10.0422    3.6368  -17.5336 C   0  0  0  0  0  0  0  0  0  0  0  0
   -8.4431    5.0856  -16.4292 C   0  0  0  0  0  0  0  0  0  0  0  0
   -9.4716    4.1283  -16.3587 C   0  0  0  0  0  0  0  0  0  0  0  0
   -9.2723    1.9997  -12.2104 C   0  0  0  0  0  0  0  0  0  0  0  0
   -9.9626    2.1400  -13.3572 C   0  0  0  0  0  0  0  0  0  0  0  0
   -7.7961    5.5879  -15.2034 C   0  0  0  0  0  0  0  0  0  0  0  0
  -10.3452    4.1115  -10.3715 C   0  0  0  0  0  0  0  0  0  0  0  0
   -9.9043    1.6248  -10.8941 C   0  0  0  0  0  0  0  0  0  0  0  0
   -9.3642    2.4996  -14.6930 C   0  0  0  0  0  0  0  0  0  0  0  0
   -8.9563    7.3043  -11.7118 C   0  0  0  0  0  0  0  0  0  0  0  0
   -8.0163    5.2969  -10.5843 C   0  0  0  0  0  0  0  0  0  0  0  0
   -8.4570    2.7168   -8.9711 C   0  0  0  0  0  0  0  0  0  0  0  0
  -10.4227    2.3037   -8.4781 C   0  0  0  0  0  0  0  0  0  0  0  0
   -7.7878    6.2718  -11.7689 C   0  0  1  0  0  0  0  0  0  0  0  0
   -9.7755    5.9914  -11.9291 C   0  0  1  0  0  0  0  0  0  0  0  0
   -8.6057    5.5877  -12.8933 C   0  0  1  0  0  0  0  0  0  0  0  0
   -9.7599    2.7563   -9.8307 C   0  0  0  0  0  0  0  0  0  0  0  0
   -8.6802    6.1021  -14.2665 N   0  0  0  0  0  0  0  0  0  0  0  0
   -9.1176    1.7672   -8.0569 N   0  0  0  0  0  0  0  0  0  0  0  0
   -9.4744    5.1175  -10.7651 N   0  0  0  0  0  0  0  0  0  0  0  0
   -6.5940    5.4102  -15.0398 O   0  0  0  0  0  0  0  0  0  0  0  0
  -11.5697    4.2421  -10.5432 O   0  0  0  0  0  0  0  0  0  0  0  0
   -9.9857    3.7116  -15.1542 O   0  0  0  0  0  0  0  0  0  0  0  0
   -8.1343    5.3100  -19.8030 H   0  0  0  0  0  0  0  0  0  0  0  0
   -9.9997    3.6830  -19.6858 H   0  0  0  0  0  0  0  0  0  0  0  0
   -7.1186    6.2016  -17.7299 H   0  0  0  0  0  0  0  0  0  0  0  0
  -10.8666    2.9281  -17.4921 H   0  0  0  0  0  0  0  0  0  0  0  0
   -8.2250    2.2554  -12.1989 H   0  0  0  0  0  0  0  0  0  0  0  0
  -11.0567    2.0382  -13.3275 H   0  0  0  0  0  0  0  0  0  0  0  0
  -10.9584    1.4321  -11.1026 H   0  0  0  0  0  0  0  0  0  0  0  0
   -9.4849    0.6973  -10.5027 H   0  0  0  0  0  0  0  0  0  0  0  0
   -8.2981    2.6953  -14.5591 H   0  0  0  0  0  0  0  0  0  0  0  0
   -9.4808    1.6778  -15.4046 H   0  0  0  0  0  0  0  0  0  0  0  0
   -9.1059    7.8199  -10.7552 H   0  0  0  0  0  0  0  0  0  0  0  0
   -8.9851    8.0567  -12.5090 H   0  0  0  0  0  0  0  0  0  0  0  0
   -7.4952    4.3434  -10.7016 H   0  0  0  0  0  0  0  0  0  0  0  0
   -7.8173    5.7448   -9.6076 H   0  0  0  0  0  0  0  0  0  0  0  0
   -7.5483    2.3286   -9.4507 H   0  0  0  0  0  0  0  0  0  0  0  0
   -8.1866    3.6620   -8.4752 H   0  0  0  0  0  0  0  0  0  0  0  0
  -10.7739    3.1269   -7.8467 H   0  0  0  0  0  0  0  0  0  0  0  0
  -11.2137    1.5543   -8.5286 H   0  0  0  0  0  0  0  0  0  0  0  0
   -6.7756    6.6155  -11.9699 H   0  0  0  0  0  0  0  0  0  0  0  0
  -10.7971    6.0480  -12.2835 H   0  0  0  0  0  0  0  0  0  0  0  0
   -8.4686    4.4923  -12.9657 H   0  0  0  0  0  0  0  0  0  0  0  0
   -9.3319    6.7853  -14.5132 H   0  0  0  0  0  0  0  0  0  0  0  0
   -8.9800    0.7934   -8.3229 H   0  0  0  0  0  0  0  0  0  0  0  0
  1  2  2  0  0  0  0
  1  3  1  0  0  0  0
  2  4  1  0  0  0  0
  3  5  2  0  0  0  0
  4  6  2  0  0  0  0
  5  6  1  0  0  0  0
  5  9  1  0  0  0  0
  6 26  1  0  0  0  0
  7  8  2  3  0  0  0
  7 11  1  0  0  0  0
  8 12  1  0  0  0  0
  9 21  1  0  0  0  0
  9 24  2  0  0  0  0
 10 20  1  0  0  0  0
 10 23  1  0  0  0  0
 10 25  2  0  0  0  0
 11 20  1  0  0  0  0
 12 26  1  0  0  0  0
 13 17  1  0  0  0  0
 13 18  1  0  0  0  0
 14 17  1  0  0  0  0
 14 23  1  0  0  0  0
 15 20  1  0  0  0  0
 15 22  1  0  0  0  0
 16 20  1  0  0  0  0
 16 22  1  0  0  0  0
 17 19  1  0  0  0  0
 18 19  1  0  0  0  0
 18 23  1  0  0  0  0
 19 21  1  0  0  0  0
  1 27  1  0  0  0  0
  2 28  1  0  0  0  0
  3 29  1  0  0  0  0
  4 30  1  0  0  0  0
  7 31  1  0  0  0  0
  8 32  1  0  0  0  0
 11 33  1  0  0  0  0
 11 34  1  0  0  0  0
 12 35  1  0  0  0  0
 12 36  1  0  0  0  0
 13 37  1  0  0  0  0
 13 38  1  0  0  0  0
 14 39  1  0  0  0  0
 14 40  1  0  0  0  0
 15 41  1  0  0  0  0
 15 42  1  0  0  0  0
 16 43  1  0  0  0  0
 16 44  1  0  0  0  0
 17 45  1  0  0  0  0
 18 46  1  0  0  0  0
 19 47  1  0  0  0  0
 21 48  1  0  0  0  0
 22 49  1  0  0  0  0
M  END
> <id>
EN300-6486449

> <smiles>
OC(=O)C(F)(F)F.O=C1NC2C3CC2N(C3)C(=O)C4(CNC4)CC=CCOC=5C=CC=CC15

> <IUPAC Name>
16'-oxa-3',9'-diazaspiro[azetidine-3,11'-tetracyclo[15.4.0.0^{4,7}.0^{5,9}]henicosane]-1'(17'),13',18',20'-tetraene-2',10'-dione; trifluoroacetic acid

> <URL>
https://www.enaminestore.com/catalog/EN300-6486449

> <Saltdate>
OC(=O)C(F)(F)F

> <ROCS_ShapeQuery>
_x0404_0B

> <ROCS_TanimotoCombo>
0.412 

> <ROCS_ShapeTanimoto>
0.316 

> <ROCS_ColorTanimoto>
0.096 

> <ROCS_RefTversky>
0.294 

> <ROCS_RefColorTversky>
0.109 

> <ROCS_RefTverskyCombo>
0.402 

> <ROCS_FitTversky>
1.324 

> <ROCS_FitColorTversky>
0.442 

> <ROCS_FitTverskyCombo>
1.766 

> <ROCS_ColorScore>
-7.886

> <ROCS_Overlap>
1963.197

> <ROCS_Rank>
66                  

$$$$
untitled-dbase-46424_203
  -OEChem-08212314543D

 44 46  0     0  0  0  0  0  0999 V2000
   -8.9932    3.8950   -6.8563 C   0  0  0  0  0  0  0  0  0  0  0  0
   -9.2869    2.8818   -9.4083 C   0  0  0  0  0  0  0  0  0  0  0  0
   -9.0832    4.2337   -9.2388 C   0  0  0  0  0  0  0  0  0  0  0  0
   -8.9519    4.7392   -7.9474 C   0  0  0  0  0  0  0  0  0  0  0  0
   -9.2136    2.5511   -7.1222 C   0  0  0  0  0  0  0  0  0  0  0  0
   -8.1272    5.7803  -14.5186 C   0  0  0  0  0  0  0  0  0  0  0  0
   -7.5125    5.2389  -10.9241 C   0  0  0  0  0  0  0  0  0  0  0  0
  -10.0504    5.3718  -11.2829 C   0  0  0  0  0  0  0  0  0  0  0  0
   -7.5970    4.6990  -12.3495 C   0  0  0  0  0  0  0  0  0  0  0  0
   -9.6521    6.1174  -12.5517 C   0  0  0  0  0  0  0  0  0  0  0  0
   -8.9631    6.5841   -9.2917 C   0  0  0  0  0  0  0  0  0  0  0  0
   -8.9047    5.3409  -10.2492 C   0  0  0  0  0  0  0  0  0  0  0  0
   -6.1635    6.1289  -16.5698 C   0  0  0  0  0  0  0  0  0  0  0  0
   -6.3059    3.6396  -16.8732 C   0  0  0  0  0  0  0  0  0  0  0  0
   -8.3297    5.0679  -17.2884 C   0  0  0  0  0  0  0  0  0  0  0  0
   -7.0617    4.8983  -16.4529 C   0  0  0  0  0  0  0  0  0  0  0  0
   -9.3656    2.0239   -8.3658 N   0  0  0  0  0  0  0  0  0  0  0  0
   -8.6850    6.1052   -7.9424 N   0  0  0  0  0  0  0  0  0  0  0  0
   -8.4605    5.5385  -13.1822 N   0  0  0  0  0  0  0  0  0  0  0  0
   -8.4187    6.8049  -15.1324 O   0  0  0  0  0  0  0  0  0  0  0  0
   -7.4379    4.7375  -15.0806 O   0  0  0  0  0  0  0  0  0  0  0  0
   -9.3239    1.4079   -5.8455 Cl  0  0  0  0  0  0  0  0  0  0  0  0
   -8.8567    4.2677   -5.8478 H   0  0  0  0  0  0  0  0  0  0  0  0
   -9.4062    2.4361  -10.3889 H   0  0  0  0  0  0  0  0  0  0  0  0
   -6.8620    4.5753  -10.3378 H   0  0  0  0  0  0  0  0  0  0  0  0
   -7.0164    6.2181  -10.9298 H   0  0  0  0  0  0  0  0  0  0  0  0
  -10.9455    5.8340  -10.8557 H   0  0  0  0  0  0  0  0  0  0  0  0
  -10.3290    4.3482  -11.5562 H   0  0  0  0  0  0  0  0  0  0  0  0
   -6.6070    4.6814  -12.8208 H   0  0  0  0  0  0  0  0  0  0  0  0
   -7.9647    3.6675  -12.3316 H   0  0  0  0  0  0  0  0  0  0  0  0
  -10.5013    6.1291  -13.2463 H   0  0  0  0  0  0  0  0  0  0  0  0
   -9.4164    7.1684  -12.3333 H   0  0  0  0  0  0  0  0  0  0  0  0
   -8.1954    7.3215   -9.5585 H   0  0  0  0  0  0  0  0  0  0  0  0
   -9.9301    7.0956   -9.3180 H   0  0  0  0  0  0  0  0  0  0  0  0
   -6.7023    7.0345  -16.2690 H   0  0  0  0  0  0  0  0  0  0  0  0
   -5.2673    6.0348  -15.9480 H   0  0  0  0  0  0  0  0  0  0  0  0
   -5.8495    6.2866  -17.6080 H   0  0  0  0  0  0  0  0  0  0  0  0
   -6.9466    2.7541  -16.7909 H   0  0  0  0  0  0  0  0  0  0  0  0
   -5.4475    3.4617  -16.2154 H   0  0  0  0  0  0  0  0  0  0  0  0
   -5.9439    3.7109  -17.9040 H   0  0  0  0  0  0  0  0  0  0  0  0
   -8.9741    4.1853  -17.2047 H   0  0  0  0  0  0  0  0  0  0  0  0
   -8.9041    5.9460  -16.9760 H   0  0  0  0  0  0  0  0  0  0  0  0
   -8.0848    5.1722  -18.3516 H   0  0  0  0  0  0  0  0  0  0  0  0
   -7.9830    6.5125   -7.3450 H   0  0  0  0  0  0  0  0  0  0  0  0
  1  4  2  0  0  0  0
  1  5  1  0  0  0  0
  2  3  2  0  0  0  0
  2 17  1  0  0  0  0
  3  4  1  0  0  0  0
  3 12  1  0  0  0  0
  4 18  1  0  0  0  0
  5 17  2  0  0  0  0
  5 22  1  0  0  0  0
  6 19  1  0  0  0  0
  6 20  2  0  0  0  0
  6 21  1  0  0  0  0
  7  9  1  0  0  0  0
  7 12  1  0  0  0  0
  8 10  1  0  0  0  0
  8 12  1  0  0  0  0
  9 19  1  0  0  0  0
 10 19  1  0  0  0  0
 11 12  1  0  0  0  0
 11 18  1  0  0  0  0
 13 16  1  0  0  0  0
 14 16  1  0  0  0  0
 15 16  1  0  0  0  0
 16 21  1  0  0  0  0
  1 23  1  0  0  0  0
  2 24  1  0  0  0  0
  7 25  1  0  0  0  0
  7 26  1  0  0  0  0
  8 27  1  0  0  0  0
  8 28  1  0  0  0  0
  9 29  1  0  0  0  0
  9 30  1  0  0  0  0
 10 31  1  0  0  0  0
 10 32  1  0  0  0  0
 11 33  1  0  0  0  0
 11 34  1  0  0  0  0
 13 35  1  0  0  0  0
 13 36  1  0  0  0  0
 13 37  1  0  0  0  0
 14 38  1  0  0  0  0
 14 39  1  0  0  0  0
 14 40  1  0  0  0  0
 15 41  1  0  0  0  0
 15 42  1  0  0  0  0
 15 43  1  0  0  0  0
 18 44  1  0  0  0  0
M  END
> <id>
EN300-12734190

> <smiles>
CC(C)(C)OC(=O)N1CCC2(CNC=3C=C(Cl)N=CC32)CC1

> <MDLNUMBER>
MFCD23159229

> <IUPAC Name>
tert-butyl 6'-chloro-1',2'-dihydrospiro[piperidine-4,3'-pyrrolo[3,2-c]pyridine]-1-carboxylate

> <CAS>
1823790-57-3

> <Purity>
95

> <URL>
https://www.enaminestore.com/catalog/EN300-12734190

> <ROCS_ShapeQuery>
_x0404_0B

> <ROCS_TanimotoCombo>
0.412 

> <ROCS_ShapeTanimoto>
0.322 

> <ROCS_ColorTanimoto>
0.090 

> <ROCS_RefTversky>
0.291 

> <ROCS_RefColorTversky>
0.094 

> <ROCS_RefTverskyCombo>
0.385 

> <ROCS_FitTversky>
1.506 

> <ROCS_FitColorTversky>
0.651 

> <ROCS_FitTverskyCombo>
2.158 

> <ROCS_ColorScore>
-6.803

> <ROCS_Overlap>
1939.677

> <ROCS_Rank>
67                  

$$$$
untitled-dbase-49742_8
  -OEChem-08212314543D

 55 59  0     1  0  0  0  0  0999 V2000
   -6.6539    2.8975  -17.9225 C   0  0  0  0  0  0  0  0  0  0  0  0
   -6.3217    1.6711  -17.3550 C   0  0  0  0  0  0  0  0  0  0  0  0
   -7.2364    3.8989  -17.1414 C   0  0  0  0  0  0  0  0  0  0  0  0
   -6.5654    1.4453  -16.0030 C   0  0  0  0  0  0  0  0  0  0  0  0
   -7.4950    3.6888  -15.7771 C   0  0  0  0  0  0  0  0  0  0  0  0
   -7.1325    2.4529  -15.2122 C   0  0  0  0  0  0  0  0  0  0  0  0
   -6.5664    3.1444  -10.7476 C   0  0  0  0  0  0  0  0  0  0  0  0
   -6.5987    2.1604  -11.6585 C   0  0  0  0  0  0  0  0  0  0  0  0
   -8.1150    4.8244  -15.0230 C   0  0  0  0  0  0  0  0  0  0  0  0
   -8.2467    5.1968   -9.3000 C   0  0  0  0  0  0  0  0  0  0  0  0
   -6.9063    2.9696   -9.2962 C   0  0  0  0  0  0  0  0  0  0  0  0
   -6.2084    2.3478  -13.0945 C   0  0  0  0  0  0  0  0  0  0  0  0
  -11.5186    6.1040  -12.1835 C   0  0  0  0  0  0  0  0  0  0  0  0
  -11.0686    4.9747  -11.2713 C   0  0  0  0  0  0  0  0  0  0  0  0
  -10.6475    5.9259  -13.4140 C   0  0  0  0  0  0  0  0  0  0  0  0
   -8.3273    6.6595  -12.5592 C   0  0  0  0  0  0  0  0  0  0  0  0
   -8.4729    6.9151  -11.0692 C   0  0  0  0  0  0  0  0  0  0  0  0
   -9.5291    2.7879   -9.1069 C   0  0  0  0  0  0  0  0  0  0  0  0
   -8.5480    3.4186   -7.3996 C   0  0  0  0  0  0  0  0  0  0  0  0
   -9.5555    4.8275  -11.4955 C   0  0  1  0  0  0  0  0  0  0  0  0
   -8.2481    3.6601   -8.9255 C   0  0  0  0  0  0  0  0  0  0  0  0
   -9.2761    5.4803  -12.8785 C   0  0  1  0  0  0  0  0  0  0  0  0
   -8.6575    4.5152  -13.7893 N   0  0  0  0  0  0  0  0  0  0  0  0
   -9.3364    2.2269   -7.7566 N   0  0  0  0  0  0  0  0  0  0  0  0
   -8.7803    5.6048  -10.5271 N   0  0  0  0  0  0  0  0  0  0  0  0
   -8.1169    5.9501  -15.5154 O   0  0  0  0  0  0  0  0  0  0  0  0
   -7.7089    6.0210   -8.5396 O   0  0  0  0  0  0  0  0  0  0  0  0
   -7.3812    2.1563  -13.8956 O   0  0  0  0  0  0  0  0  0  0  0  0
   -6.4665    3.0752  -18.9782 H   0  0  0  0  0  0  0  0  0  0  0  0
   -5.8804    0.8907  -17.9669 H   0  0  0  0  0  0  0  0  0  0  0  0
   -7.4887    4.8396  -17.6253 H   0  0  0  0  0  0  0  0  0  0  0  0
   -6.3219    0.4746  -15.5838 H   0  0  0  0  0  0  0  0  0  0  0  0
   -6.2602    4.1475  -11.0611 H   0  0  0  0  0  0  0  0  0  0  0  0
   -6.9280    1.1721  -11.3689 H   0  0  0  0  0  0  0  0  0  0  0  0
   -6.9702    1.9002   -9.0428 H   0  0  0  0  0  0  0  0  0  0  0  0
   -6.0690    3.3673   -8.7051 H   0  0  0  0  0  0  0  0  0  0  0  0
   -5.7945    3.3512  -13.2671 H   0  0  0  0  0  0  0  0  0  0  0  0
   -5.4451    1.5984  -13.3383 H   0  0  0  0  0  0  0  0  0  0  0  0
  -12.5661    5.9674  -12.4470 H   0  0  0  0  0  0  0  0  0  0  0  0
  -11.3974    7.0789  -11.7228 H   0  0  0  0  0  0  0  0  0  0  0  0
  -11.2960    5.2301  -10.2165 H   0  0  0  0  0  0  0  0  0  0  0  0
  -11.6084    4.0310  -11.4820 H   0  0  0  0  0  0  0  0  0  0  0  0
  -11.0974    5.1801  -14.0752 H   0  0  0  0  0  0  0  0  0  0  0  0
  -10.5670    6.8557  -13.9834 H   0  0  0  0  0  0  0  0  0  0  0  0
   -8.6296    7.5626  -13.1191 H   0  0  0  0  0  0  0  0  0  0  0  0
   -7.2796    6.4695  -12.8426 H   0  0  0  0  0  0  0  0  0  0  0  0
   -7.5430    7.2753  -10.6387 H   0  0  0  0  0  0  0  0  0  0  0  0
   -9.2735    7.6211  -10.8788 H   0  0  0  0  0  0  0  0  0  0  0  0
  -10.4743    3.3291   -9.2422 H   0  0  0  0  0  0  0  0  0  0  0  0
   -9.4660    2.0082   -9.8792 H   0  0  0  0  0  0  0  0  0  0  0  0
   -7.6646    3.1841   -6.7853 H   0  0  0  0  0  0  0  0  0  0  0  0
   -9.1144    4.2022   -6.8778 H   0  0  0  0  0  0  0  0  0  0  0  0
   -9.2751    3.7737  -11.4522 H   0  0  0  0  0  0  0  0  0  0  0  0
   -8.6247    3.5396  -13.4901 H   0  0  0  0  0  0  0  0  0  0  0  0
  -10.2038    2.1386   -7.2261 H   0  0  0  0  0  0  0  0  0  0  0  0
  1  2  2  0  0  0  0
  1  3  1  0  0  0  0
  2  4  1  0  0  0  0
  3  5  2  0  0  0  0
  4  6  2  0  0  0  0
  5  6  1  0  0  0  0
  5  9  1  0  0  0  0
  6 28  1  0  0  0  0
  7  8  2  3  0  0  0
  7 11  1  0  0  0  0
  8 12  1  0  0  0  0
  9 23  1  0  0  0  0
  9 26  2  0  0  0  0
 10 21  1  0  0  0  0
 10 25  1  0  0  0  0
 10 27  2  0  0  0  0
 11 21  1  0  0  0  0
 12 28  1  0  0  0  0
 13 14  1  0  0  0  0
 13 15  1  0  0  0  0
 14 20  1  0  0  0  0
 15 22  1  1  0  0  0
 16 17  1  0  0  0  0
 16 22  1  0  0  0  0
 17 25  1  0  0  0  0
 18 21  1  0  0  0  0
 18 24  1  0  0  0  0
 19 21  1  0  0  0  0
 19 24  1  0  0  0  0
 20 22  1  0  0  0  0
 20 25  1  0  0  0  0
 22 23  1  0  0  0  0
  1 29  1  0  0  0  0
  2 30  1  0  0  0  0
  3 31  1  0  0  0  0
  4 32  1  0  0  0  0
  7 33  1  0  0  0  0
  8 34  1  0  0  0  0
 11 35  1  0  0  0  0
 11 36  1  0  0  0  0
 12 37  1  0  0  0  0
 12 38  1  0  0  0  0
 13 39  1  0  0  0  0
 13 40  1  0  0  0  0
 14 41  1  0  0  0  0
 14 42  1  0  0  0  0
 15 43  1  0  0  0  0
 15 44  1  0  0  0  0
 16 45  1  0  0  0  0
 16 46  1  0  0  0  0
 17 47  1  0  0  0  0
 17 48  1  0  0  0  0
 18 49  1  0  0  0  0
 18 50  1  0  0  0  0
 19 51  1  0  0  0  0
 19 52  1  0  0  0  0
 20 53  1  0  0  0  0
 23 54  1  0  0  0  0
 24 55  1  0  0  0  0
M  END
> <id>
EN300-6488377

> <smiles>
OC(=O)C(F)(F)F.O=C1N[C@]23CCCC3N(CC2)C(=O)C4(CNC4)CC=CCOC=5C=CC=CC15

> <IUPAC Name>
(1'R)-10'-oxa-2',17'-diazaspiro[azetidine-3,15'-tetracyclo[15.4.2.0^{1,18}.0^{4,9}]tricosane]-4'(9'),5',7',12'-tetraene-3',16'-dione; trifluoroacetic acid

> <URL>
https://www.enaminestore.com/catalog/EN300-6488377

> <Saltdate>
OC(=O)C(F)(F)F

> <ROCS_ShapeQuery>
_x0404_0B

> <ROCS_TanimotoCombo>
0.411 

> <ROCS_ShapeTanimoto>
0.280 

> <ROCS_ColorTanimoto>
0.131 

> <ROCS_RefTversky>
0.270 

> <ROCS_RefColorTversky>
0.137 

> <ROCS_RefTverskyCombo>
0.408 

> <ROCS_FitTversky>
1.154 

> <ROCS_FitColorTversky>
0.744 

> <ROCS_FitTverskyCombo>
1.898 

> <ROCS_ColorScore>
-9.943

> <ROCS_Overlap>
1806.480

> <ROCS_Rank>
68                  

$$$$
untitled-dbase-33911_1
  -OEChem-08212314543D

 38 42  0     1  0  0  0  0  0999 V2000
   -9.3557    2.5432   -8.7841 C   0  0  0  0  0  0  0  0  0  0  0  0
   -9.1449    3.6159   -7.9204 C   0  0  0  0  0  0  0  0  0  0  0  0
   -9.3056    2.7379  -10.1645 C   0  0  0  0  0  0  0  0  0  0  0  0
   -8.8828    4.8869   -8.4332 C   0  0  0  0  0  0  0  0  0  0  0  0
   -9.0431    4.0126  -10.6805 C   0  0  0  0  0  0  0  0  0  0  0  0
   -8.8326    5.0807   -9.8167 C   0  0  0  0  0  0  0  0  0  0  0  0
   -8.8562    4.8123  -14.8222 C   0  0  0  0  0  0  0  0  0  0  0  0
   -8.8579    4.7865  -16.2535 C   0  0  0  0  0  0  0  0  0  0  0  0
   -9.0894    3.5074  -16.7253 C   0  0  0  0  0  0  0  0  0  0  0  0
   -9.1062    3.5680  -14.2746 C   0  0  0  0  0  0  0  0  0  0  0  0
   -8.9849    4.2465  -12.1361 C   0  0  0  0  0  0  0  0  0  0  0  0
   -8.5620    6.3915  -10.4189 C   0  0  0  0  0  0  0  0  0  0  0  0
   -8.6306    5.9318  -13.9189 C   0  0  0  0  0  0  0  0  0  0  0  0
   -8.6110    5.9374  -17.1827 C   0  0  0  0  0  0  0  0  0  0  0  0
   -9.1658    3.1133  -18.1692 C   0  0  0  0  0  0  0  0  0  0  0  0
   -9.0015    5.6070  -18.6321 C   0  0  0  0  0  0  0  0  0  0  0  0
   -8.5545    4.1996  -19.0811 C   0  0  1  0  0  0  0  0  0  0  0  0
   -7.0282    4.0831  -19.1489 C   0  0  0  0  0  0  0  0  0  0  0  0
   -9.1790    3.2515  -12.9557 N   0  0  0  0  0  0  0  0  0  0  0  0
   -8.5120    6.5961  -11.6954 N   0  0  0  0  0  0  0  0  0  0  0  0
   -8.7167    5.5605  -12.5632 N   0  0  0  0  0  0  0  0  0  0  0  0
   -8.3891    7.0656  -14.3232 O   0  0  0  0  0  0  0  0  0  0  0  0
   -9.3269    2.3760  -15.4776 S   0  0  0  0  0  0  0  0  0  0  0  0
   -8.2787    7.8155   -9.4727 Cl  0  0  0  0  0  0  0  0  0  0  0  0
   -9.5587    1.5547   -8.3826 H   0  0  0  0  0  0  0  0  0  0  0  0
   -9.1850    3.4627   -6.8458 H   0  0  0  0  0  0  0  0  0  0  0  0
   -9.4739    1.8845  -10.8155 H   0  0  0  0  0  0  0  0  0  0  0  0
   -8.7231    5.7013   -7.7335 H   0  0  0  0  0  0  0  0  0  0  0  0
   -9.1992    6.7961  -16.8366 H   0  0  0  0  0  0  0  0  0  0  0  0
   -7.5556    6.2293  -17.1586 H   0  0  0  0  0  0  0  0  0  0  0  0
   -8.6247    2.1640  -18.3006 H   0  0  0  0  0  0  0  0  0  0  0  0
  -10.2091    2.9336  -18.4668 H   0  0  0  0  0  0  0  0  0  0  0  0
  -10.0949    5.7124  -18.7400 H   0  0  0  0  0  0  0  0  0  0  0  0
   -8.5579    6.3607  -19.3079 H   0  0  0  0  0  0  0  0  0  0  0  0
   -8.9456    4.0409  -20.1097 H   0  0  0  0  0  0  0  0  0  0  0  0
   -6.6021    4.2325  -18.1581 H   0  0  0  0  0  0  0  0  0  0  0  0
   -6.6301    4.8373  -19.8257 H   0  0  0  0  0  0  0  0  0  0  0  0
   -6.7492    3.0951  -19.5118 H   0  0  0  0  0  0  0  0  0  0  0  0
  1  2  2  0  0  0  0
  1  3  1  0  0  0  0
  2  4  1  0  0  0  0
  3  5  2  0  0  0  0
  4  6  2  0  0  0  0
  5  6  1  0  0  0  0
  5 11  1  0  0  0  0
  6 12  1  0  0  0  0
  7  8  1  0  0  0  0
  7 10  2  0  0  0  0
  7 13  1  0  0  0  0
  8  9  2  0  0  0  0
  8 14  1  0  0  0  0
  9 15  1  0  0  0  0
  9 23  1  0  0  0  0
 10 19  1  0  0  0  0
 10 23  1  0  0  0  0
 11 19  2  0  0  0  0
 11 21  1  0  0  0  0
 12 20  2  0  0  0  0
 12 24  1  0  0  0  0
 13 21  1  0  0  0  0
 13 22  2  0  0  0  0
 14 16  1  0  0  0  0
 15 17  1  0  0  0  0
 16 17  1  0  0  0  0
 17 18  1  0  0  0  0
 20 21  1  0  0  0  0
  1 25  1  0  0  0  0
  2 26  1  0  0  0  0
  3 27  1  0  0  0  0
  4 28  1  0  0  0  0
 14 29  1  0  0  0  0
 14 30  1  0  0  0  0
 15 31  1  0  0  0  0
 15 32  1  0  0  0  0
 16 33  1  0  0  0  0
 16 34  1  0  0  0  0
 17 35  1  0  0  0  0
 18 36  1  0  0  0  0
 18 37  1  0  0  0  0
 18 38  1  0  0  0  0
M  END
> <id>
EN300-18212780

> <smiles>
CC1CCC2=C(C1)SC=3N=C4C=5C=CC=CC5C(Cl)=NN4C(=O)C23

> <MDLNUMBER>
MFCD02328857

> <IUPAC Name>
20-chloro-7-methyl-10-thia-1,12,21-triazapentacyclo[11.8.0.0^{3,11}.0^{4,9}.0^{14,19}]henicosa-3(11),4(9),12,14(19),15,17,20-heptaen-2-one

> <CAS>
315676-42-7

> <URL>
https://www.enaminestore.com/catalog/EN300-18212780

> <ROCS_ShapeQuery>
_x0404_0B

> <ROCS_TanimotoCombo>
0.411 

> <ROCS_ShapeTanimoto>
0.347 

> <ROCS_ColorTanimoto>
0.064 

> <ROCS_RefTversky>
0.312 

> <ROCS_RefColorTversky>
0.070 

> <ROCS_RefTverskyCombo>
0.381 

> <ROCS_FitTversky>
1.479 

> <ROCS_FitColorTversky>
0.440 

> <ROCS_FitTverskyCombo>
1.919 

> <ROCS_ColorScore>
-5.020

> <ROCS_Overlap>
2083.668

> <ROCS_Rank>
69                  

$$$$
untitled-dbase-25553_6
  -OEChem-08212314543D

 51 53  0     1  0  0  0  0  0999 V2000
   -9.0844    2.9182   -6.7944 C   0  0  0  0  0  0  0  0  0  0  0  0
   -8.8862    1.7237   -7.4791 C   0  0  0  0  0  0  0  0  0  0  0  0
   -9.1840    4.1214   -7.4968 C   0  0  0  0  0  0  0  0  0  0  0  0
   -8.7822    1.7296   -8.8679 C   0  0  0  0  0  0  0  0  0  0  0  0
   -9.0847    4.1483   -8.8979 C   0  0  0  0  0  0  0  0  0  0  0  0
   -8.8643    2.9358   -9.5771 C   0  0  0  0  0  0  0  0  0  0  0  0
   -7.4327    2.9303  -13.9065 C   0  0  0  0  0  0  0  0  0  0  0  0
   -7.1678    3.1349  -12.6089 C   0  0  0  0  0  0  0  0  0  0  0  0
   -9.1797    5.4929   -9.5585 C   0  0  0  0  0  0  0  0  0  0  0  0
   -8.5593    5.8006  -14.9735 C   0  0  0  0  0  0  0  0  0  0  0  0
   -6.9470    3.8284  -15.0097 C   0  0  0  0  0  0  0  0  0  0  0  0
   -7.6781    2.2620  -11.5047 C   0  0  0  0  0  0  0  0  0  0  0  0
   -8.6907    5.3205  -18.0325 C   0  0  0  0  0  0  0  0  0  0  0  0
   -9.8095    4.4538  -17.4612 C   0  0  0  0  0  0  0  0  0  0  0  0
   -7.4731    5.0783  -17.1421 C   0  0  0  0  0  0  0  0  0  0  0  0
   -9.1931    3.6861  -16.2942 C   0  0  0  0  0  0  0  0  0  0  0  0
  -10.0395    6.4917  -13.0817 C   0  0  0  0  0  0  0  0  0  0  0  0
   -9.3408    6.7307  -11.7355 C   0  0  2  0  0  0  0  0  0  0  0  0
   -8.0489    4.5842  -15.7931 C   0  0  0  0  0  0  0  0  0  0  0  0
   -7.9259    7.2832  -11.9056 C   0  0  0  0  0  0  0  0  0  0  0  0
   -9.3220    5.5083  -10.9369 N   0  0  0  0  0  0  0  0  0  0  0  0
   -9.3946    5.4838  -13.9131 N   0  0  0  0  0  0  0  0  0  0  0  0
   -9.1246    6.5092   -8.8687 O   0  0  0  0  0  0  0  0  0  0  0  0
   -8.2209    6.9537  -15.2459 O   0  0  0  0  0  0  0  0  0  0  0  0
   -8.8070    2.9348  -10.9428 O   0  0  0  0  0  0  0  0  0  0  0  0
   -9.1528    2.9187   -5.7097 H   0  0  0  0  0  0  0  0  0  0  0  0
   -8.8002    0.7913   -6.9313 H   0  0  0  0  0  0  0  0  0  0  0  0
   -9.3467    5.0431   -6.9347 H   0  0  0  0  0  0  0  0  0  0  0  0
   -8.6149    0.7872   -9.3823 H   0  0  0  0  0  0  0  0  0  0  0  0
   -8.0679    2.0928  -14.1924 H   0  0  0  0  0  0  0  0  0  0  0  0
   -6.5943    4.0147  -12.3133 H   0  0  0  0  0  0  0  0  0  0  0  0
   -6.2140    4.5579  -14.6067 H   0  0  0  0  0  0  0  0  0  0  0  0
   -6.3548    3.2070  -15.7125 H   0  0  0  0  0  0  0  0  0  0  0  0
   -7.9256    1.2673  -11.8957 H   0  0  0  0  0  0  0  0  0  0  0  0
   -6.9121    2.1584  -10.7291 H   0  0  0  0  0  0  0  0  0  0  0  0
   -8.4783    5.0788  -19.0790 H   0  0  0  0  0  0  0  0  0  0  0  0
   -8.9828    6.3769  -17.9939 H   0  0  0  0  0  0  0  0  0  0  0  0
  -10.6375    5.0839  -17.1217 H   0  0  0  0  0  0  0  0  0  0  0  0
  -10.2078    3.7659  -18.2126 H   0  0  0  0  0  0  0  0  0  0  0  0
   -6.8441    4.2999  -17.5956 H   0  0  0  0  0  0  0  0  0  0  0  0
   -6.8606    5.9827  -17.0595 H   0  0  0  0  0  0  0  0  0  0  0  0
   -9.9420    3.4554  -15.5331 H   0  0  0  0  0  0  0  0  0  0  0  0
   -8.8016    2.7339  -16.6685 H   0  0  0  0  0  0  0  0  0  0  0  0
  -11.0864    6.2146  -12.9170 H   0  0  0  0  0  0  0  0  0  0  0  0
  -10.0378    7.4179  -13.6668 H   0  0  0  0  0  0  0  0  0  0  0  0
   -9.9283    7.4739  -11.1905 H   0  0  0  0  0  0  0  0  0  0  0  0
   -7.3126    6.5648  -12.4466 H   0  0  0  0  0  0  0  0  0  0  0  0
   -7.4826    7.4673  -10.9287 H   0  0  0  0  0  0  0  0  0  0  0  0
   -7.9598    8.2166  -12.4645 H   0  0  0  0  0  0  0  0  0  0  0  0
   -9.4194    4.6123  -11.4225 H   0  0  0  0  0  0  0  0  0  0  0  0
   -9.5652    4.5073  -13.7058 H   0  0  0  0  0  0  0  0  0  0  0  0
  1  2  2  0  0  0  0
  1  3  1  0  0  0  0
  2  4  1  0  0  0  0
  3  5  2  0  0  0  0
  4  6  2  0  0  0  0
  5  6  1  0  0  0  0
  5  9  1  0  0  0  0
  6 25  1  0  0  0  0
  7  8  2  0  0  0  0
  7 11  1  0  0  0  0
  8 12  1  0  0  0  0
  9 21  1  0  0  0  0
  9 23  2  0  0  0  0
 10 19  1  0  0  0  0
 10 22  1  0  0  0  0
 10 24  2  0  0  0  0
 11 19  1  0  0  0  0
 12 25  1  0  0  0  0
 13 14  1  0  0  0  0
 13 15  1  0  0  0  0
 14 16  1  0  0  0  0
 15 19  1  0  0  0  0
 16 19  1  0  0  0  0
 17 18  1  0  0  0  0
 17 22  1  0  0  0  0
 18 20  1  1  0  0  0
 18 21  1  0  0  0  0
  1 26  1  0  0  0  0
  2 27  1  0  0  0  0
  3 28  1  0  0  0  0
  4 29  1  0  0  0  0
  7 30  1  0  0  0  0
  8 31  1  0  0  0  0
 11 32  1  0  0  0  0
 11 33  1  0  0  0  0
 12 34  1  0  0  0  0
 12 35  1  0  0  0  0
 13 36  1  0  0  0  0
 13 37  1  0  0  0  0
 14 38  1  0  0  0  0
 14 39  1  0  0  0  0
 15 40  1  0  0  0  0
 15 41  1  0  0  0  0
 16 42  1  0  0  0  0
 16 43  1  0  0  0  0
 17 44  1  0  0  0  0
 17 45  1  0  0  0  0
 18 46  1  0  0  0  0
 20 47  1  0  0  0  0
 20 48  1  0  0  0  0
 20 49  1  0  0  0  0
 21 50  1  0  0  0  0
 22 51  1  0  0  0  0
M  END
> <id>
EN300-6490462

> <smiles>
C[C@H]1CNC(=O)C2(CCCC2)C/C=C/COC=3C=CC=CC3C(=O)N1

> <MDLNUMBER>
MFCD31719840

> <IUPAC Name>
(3E,10S)-10-methyl-2,5,7,8,9,10,11,12-octahydrospiro[1,8,11-benzoxadiazacyclotetradecine-6,1'-cyclopentan]-3-ene-7,12-dione

> <CAS>
2253619-95-1

> <URL>
https://www.enaminestore.com/catalog/EN300-6490462

> <ROCS_ShapeQuery>
_x0404_0B

> <ROCS_TanimotoCombo>
0.410 

> <ROCS_ShapeTanimoto>
0.350 

> <ROCS_ColorTanimoto>
0.060 

> <ROCS_RefTversky>
0.314 

> <ROCS_RefColorTversky>
0.065 

> <ROCS_RefTverskyCombo>
0.379 

> <ROCS_FitTversky>
1.497 

> <ROCS_FitColorTversky>
0.450 

> <ROCS_FitTverskyCombo>
1.948 

> <ROCS_ColorScore>
-4.696

> <ROCS_Overlap>
2095.238

> <ROCS_Rank>
70                  

$$$$
untitled-dbase-34215_308
  -OEChem-08212314543D

 49 51  0     0  0  0  0  0  0999 V2000
   -8.5466    4.2968  -17.9866 C   0  0  0  0  0  0  0  0  0  0  0  0
   -7.3130    4.6005  -17.4262 C   0  0  0  0  0  0  0  0  0  0  0  0
   -9.7137    4.7851  -17.3991 C   0  0  0  0  0  0  0  0  0  0  0  0
   -7.2524    5.3767  -16.2713 C   0  0  0  0  0  0  0  0  0  0  0  0
   -9.6722    5.5885  -16.2428 C   0  0  0  0  0  0  0  0  0  0  0  0
   -8.4228    5.8527  -15.6607 C   0  0  0  0  0  0  0  0  0  0  0  0
   -8.7468    5.0023   -9.3602 C   0  0  0  0  0  0  0  0  0  0  0  0
  -10.9870    6.0928  -15.6995 C   0  0  0  0  0  0  0  0  0  0  0  0
   -9.6083    5.1830  -13.0013 C   0  0  0  0  0  0  0  0  0  0  0  0
   -8.3648    7.2771  -12.2878 C   0  0  0  0  0  0  0  0  0  0  0  0
   -8.7820    4.6091  -11.8496 C   0  0  0  0  0  0  0  0  0  0  0  0
   -8.9106    6.9172  -10.9141 C   0  0  0  0  0  0  0  0  0  0  0  0
  -10.3404    7.5373  -13.8213 C   0  0  0  0  0  0  0  0  0  0  0  0
   -9.1527    6.6054  -13.4560 C   0  0  0  0  0  0  0  0  0  0  0  0
   -9.8082    3.4314   -7.2180 C   0  0  0  0  0  0  0  0  0  0  0  0
   -8.4271    1.5545   -8.1558 C   0  0  0  0  0  0  0  0  0  0  0  0
   -7.3005    3.6298   -7.3003 C   0  0  0  0  0  0  0  0  0  0  0  0
   -8.5418    3.0686   -7.9923 C   0  0  0  0  0  0  0  0  0  0  0  0
  -10.9229    7.4374  -15.1541 N   0  0  0  0  0  0  0  0  0  0  0  0
   -8.8191    5.4799  -10.6719 N   0  0  0  0  0  0  0  0  0  0  0  0
   -8.7766    5.7195   -8.3618 O   0  0  0  0  0  0  0  0  0  0  0  0
   -8.1901    6.5800  -14.5268 O   0  0  0  0  0  0  0  0  0  0  0  0
   -8.6301    3.6386   -9.3030 O   0  0  0  0  0  0  0  0  0  0  0  0
   -8.6049    3.6681  -18.8697 H   0  0  0  0  0  0  0  0  0  0  0  0
   -6.3994    4.2333  -17.8837 H   0  0  0  0  0  0  0  0  0  0  0  0
  -10.6712    4.5191  -17.8457 H   0  0  0  0  0  0  0  0  0  0  0  0
   -6.2785    5.6266  -15.8504 H   0  0  0  0  0  0  0  0  0  0  0  0
  -11.7276    6.1134  -16.5086 H   0  0  0  0  0  0  0  0  0  0  0  0
  -11.3787    5.3726  -14.9691 H   0  0  0  0  0  0  0  0  0  0  0  0
   -9.5397    4.4844  -13.8510 H   0  0  0  0  0  0  0  0  0  0  0  0
  -10.6680    5.2057  -12.6979 H   0  0  0  0  0  0  0  0  0  0  0  0
   -8.4059    8.3667  -12.4111 H   0  0  0  0  0  0  0  0  0  0  0  0
   -7.3066    7.0001  -12.3120 H   0  0  0  0  0  0  0  0  0  0  0  0
   -9.1490    3.6070  -11.5975 H   0  0  0  0  0  0  0  0  0  0  0  0
   -7.7286    4.4998  -12.1399 H   0  0  0  0  0  0  0  0  0  0  0  0
   -8.3429    7.4101  -10.1191 H   0  0  0  0  0  0  0  0  0  0  0  0
   -9.9429    7.2681  -10.8320 H   0  0  0  0  0  0  0  0  0  0  0  0
  -11.1514    7.4264  -13.0608 H   0  0  0  0  0  0  0  0  0  0  0  0
  -10.0101    8.5952  -13.7025 H   0  0  0  0  0  0  0  0  0  0  0  0
   -9.8942    4.5173   -7.0985 H   0  0  0  0  0  0  0  0  0  0  0  0
  -10.7082    3.0647   -7.7222 H   0  0  0  0  0  0  0  0  0  0  0  0
   -9.7822    3.0102   -6.2065 H   0  0  0  0  0  0  0  0  0  0  0  0
   -7.5199    1.2897   -8.7109 H   0  0  0  0  0  0  0  0  0  0  0  0
   -9.2697    1.1596   -8.7350 H   0  0  0  0  0  0  0  0  0  0  0  0
   -8.4026    1.0443   -7.1875 H   0  0  0  0  0  0  0  0  0  0  0  0
   -6.3920    3.3697   -7.8555 H   0  0  0  0  0  0  0  0  0  0  0  0
   -7.3486    4.7196   -7.2074 H   0  0  0  0  0  0  0  0  0  0  0  0
   -7.1846    3.1997   -6.2989 H   0  0  0  0  0  0  0  0  0  0  0  0
  -10.4481    8.0757  -15.8158 H   0  0  0  0  0  0  0  0  0  0  0  0
  1  2  2  0  0  0  0
  1  3  1  0  0  0  0
  2  4  1  0  0  0  0
  3  5  2  0  0  0  0
  4  6  2  0  0  0  0
  5  6  1  0  0  0  0
  5  8  1  0  0  0  0
  6 22  1  0  0  0  0
  7 20  1  0  0  0  0
  7 21  2  0  0  0  0
  7 23  1  0  0  0  0
  8 19  1  0  0  0  0
  9 11  1  0  0  0  0
  9 14  1  0  0  0  0
 10 12  1  0  0  0  0
 10 14  1  0  0  0  0
 11 20  1  0  0  0  0
 12 20  1  0  0  0  0
 13 14  1  0  0  0  0
 13 19  1  0  0  0  0
 14 22  1  0  0  0  0
 15 18  1  0  0  0  0
 16 18  1  0  0  0  0
 17 18  1  0  0  0  0
 18 23  1  0  0  0  0
  1 24  1  0  0  0  0
  2 25  1  0  0  0  0
  3 26  1  0  0  0  0
  4 27  1  0  0  0  0
  8 28  1  0  0  0  0
  8 29  1  0  0  0  0
  9 30  1  0  0  0  0
  9 31  1  0  0  0  0
 10 32  1  0  0  0  0
 10 33  1  0  0  0  0
 11 34  1  0  0  0  0
 11 35  1  0  0  0  0
 12 36  1  0  0  0  0
 12 37  1  0  0  0  0
 13 38  1  0  0  0  0
 13 39  1  0  0  0  0
 15 40  1  0  0  0  0
 15 41  1  0  0  0  0
 15 42  1  0  0  0  0
 16 43  1  0  0  0  0
 16 44  1  0  0  0  0
 16 45  1  0  0  0  0
 17 46  1  0  0  0  0
 17 47  1  0  0  0  0
 17 48  1  0  0  0  0
 19 49  1  0  0  0  0
M  END
> <id>
EN300-746386

> <smiles>
CC(C)(C)OC(=O)N1CCC2(CC1)CNCC=3C=CC=CC3O2

> <MDLNUMBER>
MFCD31456796

> <IUPAC Name>
tert-butyl 4,5-dihydro-3H-spiro[1,4-benzoxazepine-2,4'-piperidine]-1'-carboxylate

> <CAS>
2138428-38-1

> <Purity>
95

> <URL>
https://www.enaminestore.com/catalog/EN300-746386

> <ROCS_ShapeQuery>
_x0404_0B

> <ROCS_TanimotoCombo>
0.410 

> <ROCS_ShapeTanimoto>
0.351 

> <ROCS_ColorTanimoto>
0.060 

> <ROCS_RefTversky>
0.311 

> <ROCS_RefColorTversky>
0.065 

> <ROCS_RefTverskyCombo>
0.377 

> <ROCS_FitTversky>
1.563 

> <ROCS_FitColorTversky>
0.413 

> <ROCS_FitTverskyCombo>
1.976 

> <ROCS_ColorScore>
-4.703

> <ROCS_Overlap>
2079.229

> <ROCS_Rank>
71                  

$$$$
untitled-dbase-22803_17
  -OEChem-08212314543D

 45 47  0     0  0  0  0  0  0999 V2000
   -9.0532    3.9603   -7.0954 C   0  0  0  0  0  0  0  0  0  0  0  0
   -9.1258    2.5741   -7.2461 C   0  0  0  0  0  0  0  0  0  0  0  0
   -9.0827    2.7761   -9.6799 C   0  0  0  0  0  0  0  0  0  0  0  0
   -9.0112    4.1473   -9.5228 C   0  0  0  0  0  0  0  0  0  0  0  0
   -8.9972    4.7198   -8.2476 C   0  0  0  0  0  0  0  0  0  0  0  0
   -9.1404    1.9876   -8.5257 C   0  0  0  0  0  0  0  0  0  0  0  0
   -8.9382    5.2634  -10.4596 C   0  0  0  0  0  0  0  0  0  0  0  0
   -8.9223    5.2298  -11.8000 C   0  0  0  0  0  0  0  0  0  0  0  0
   -8.8801    6.5375   -9.6674 C   0  0  0  0  0  0  0  0  0  0  0  0
   -8.3873    4.9560  -16.0745 C   0  0  0  0  0  0  0  0  0  0  0  0
   -8.8431    6.4860  -12.6291 C   0  0  0  0  0  0  0  0  0  0  0  0
   -8.9790    3.9291  -12.5604 C   0  0  0  0  0  0  0  0  0  0  0  0
   -8.0865    6.2400  -13.9337 C   0  0  0  0  0  0  0  0  0  0  0  0
   -9.4658    4.1435  -13.9928 C   0  0  0  0  0  0  0  0  0  0  0  0
   -6.6379    4.5567  -18.3028 C   0  0  0  0  0  0  0  0  0  0  0  0
   -5.6031    6.7497  -17.6476 C   0  0  0  0  0  0  0  0  0  0  0  0
   -5.5241    4.8054  -16.0596 C   0  0  0  0  0  0  0  0  0  0  0  0
   -6.3373    5.5082  -17.1457 C   0  0  0  0  0  0  0  0  0  0  0  0
   -8.9208    6.1143   -8.3350 N   0  0  0  0  0  0  0  0  0  0  0  0
   -8.6389    5.1198  -14.7087 N   0  0  0  0  0  0  0  0  0  0  0  0
   -8.8132    7.6692  -10.1103 O   0  0  0  0  0  0  0  0  0  0  0  0
   -8.8307    4.0336  -16.7558 O   0  0  0  0  0  0  0  0  0  0  0  0
   -7.5786    5.9412  -16.5776 O   0  0  0  0  0  0  0  0  0  0  0  0
   -9.2318    0.2725   -8.6712 Cl  0  0  0  0  0  0  0  0  0  0  0  0
   -9.0419    4.4132   -6.1108 H   0  0  0  0  0  0  0  0  0  0  0  0
   -9.1710    1.9509   -6.3556 H   0  0  0  0  0  0  0  0  0  0  0  0
   -9.0935    2.3268  -10.6680 H   0  0  0  0  0  0  0  0  0  0  0  0
   -9.8637    6.8310  -12.8528 H   0  0  0  0  0  0  0  0  0  0  0  0
   -8.3524    7.2991  -12.0747 H   0  0  0  0  0  0  0  0  0  0  0  0
   -7.9949    3.4368  -12.5829 H   0  0  0  0  0  0  0  0  0  0  0  0
   -9.6597    3.2393  -12.0373 H   0  0  0  0  0  0  0  0  0  0  0  0
   -8.0736    7.1669  -14.5283 H   0  0  0  0  0  0  0  0  0  0  0  0
   -7.0306    5.9927  -13.7252 H   0  0  0  0  0  0  0  0  0  0  0  0
   -9.4211    3.2033  -14.5616 H   0  0  0  0  0  0  0  0  0  0  0  0
  -10.5162    4.4626  -13.9827 H   0  0  0  0  0  0  0  0  0  0  0  0
   -7.1649    3.6643  -17.9467 H   0  0  0  0  0  0  0  0  0  0  0  0
   -7.2501    5.0382  -19.0723 H   0  0  0  0  0  0  0  0  0  0  0  0
   -5.7112    4.2030  -18.7690 H   0  0  0  0  0  0  0  0  0  0  0  0
   -5.3854    7.4352  -16.8206 H   0  0  0  0  0  0  0  0  0  0  0  0
   -6.2229    7.3093  -18.3574 H   0  0  0  0  0  0  0  0  0  0  0  0
   -4.6604    6.4901  -18.1400 H   0  0  0  0  0  0  0  0  0  0  0  0
   -5.3084    5.4877  -15.2294 H   0  0  0  0  0  0  0  0  0  0  0  0
   -6.0521    3.9329  -15.6614 H   0  0  0  0  0  0  0  0  0  0  0  0
   -4.5541    4.4772  -16.4501 H   0  0  0  0  0  0  0  0  0  0  0  0
   -8.8986    6.7253   -7.5270 H   0  0  0  0  0  0  0  0  0  0  0  0
  1  2  1  0  0  0  0
  1  5  2  0  0  0  0
  2  6  2  0  0  0  0
  3  4  2  0  0  0  0
  3  6  1  0  0  0  0
  4  5  1  0  0  0  0
  4  7  1  0  0  0  0
  5 19  1  0  0  0  0
  6 24  1  0  0  0  0
  7  8  2  0  0  0  0
  7  9  1  0  0  0  0
  8 11  1  0  0  0  0
  8 12  1  0  0  0  0
  9 19  1  0  0  0  0
  9 21  2  0  0  0  0
 10 20  1  0  0  0  0
 10 22  2  0  0  0  0
 10 23  1  0  0  0  0
 11 13  1  0  0  0  0
 12 14  1  0  0  0  0
 13 20  1  0  0  0  0
 14 20  1  0  0  0  0
 15 18  1  0  0  0  0
 16 18  1  0  0  0  0
 17 18  1  0  0  0  0
 18 23  1  0  0  0  0
  1 25  1  0  0  0  0
  2 26  1  0  0  0  0
  3 27  1  0  0  0  0
 11 28  1  0  0  0  0
 11 29  1  0  0  0  0
 12 30  1  0  0  0  0
 12 31  1  0  0  0  0
 13 32  1  0  0  0  0
 13 33  1  0  0  0  0
 14 34  1  0  0  0  0
 14 35  1  0  0  0  0
 15 36  1  0  0  0  0
 15 37  1  0  0  0  0
 15 38  1  0  0  0  0
 16 39  1  0  0  0  0
 16 40  1  0  0  0  0
 16 41  1  0  0  0  0
 17 42  1  0  0  0  0
 17 43  1  0  0  0  0
 17 44  1  0  0  0  0
 19 45  1  0  0  0  0
M  END
> <id>
EN300-6762533

> <smiles>
CC(C)(C)OC(=O)N1CCC(=C2C(=O)NC=3C=CC(Cl)=CC23)CC1

> <MDLNUMBER>
MFCD32711480

> <IUPAC Name>
tert-butyl 4-(5-chloro-2-oxo-2,3-dihydro-1H-indol-3-ylidene)piperidine-1-carboxylate

> <CAS>
1613053-73-8

> <URL>
https://www.enaminestore.com/catalog/EN300-6762533

> <ROCS_ShapeQuery>
_x0404_0B

> <ROCS_TanimotoCombo>
0.410 

> <ROCS_ShapeTanimoto>
0.374 

> <ROCS_ColorTanimoto>
0.037 

> <ROCS_RefTversky>
0.328 

> <ROCS_RefColorTversky>
0.040 

> <ROCS_RefTverskyCombo>
0.369 

> <ROCS_FitTversky>
1.592 

> <ROCS_FitColorTversky>
0.279 

> <ROCS_FitTverskyCombo>
1.871 

> <ROCS_ColorScore>
-2.914

> <ROCS_Overlap>
2191.860

> <ROCS_Rank>
72                  

$$$$
untitled-dbase-27245_31
  -OEChem-08212314543D

 50 52  0     1  0  0  0  0  0999 V2000
   -9.0827    2.9096   -6.7951 C   0  0  0  0  0  0  0  0  0  0  0  0
   -8.8933    1.7163   -7.4843 C   0  0  0  0  0  0  0  0  0  0  0  0
   -9.1778    4.1156   -7.4933 C   0  0  0  0  0  0  0  0  0  0  0  0
   -8.7933    1.7262   -8.8733 C   0  0  0  0  0  0  0  0  0  0  0  0
   -9.0832    4.1466   -8.8947 C   0  0  0  0  0  0  0  0  0  0  0  0
   -8.8714    2.9350   -9.5785 C   0  0  0  0  0  0  0  0  0  0  0  0
   -7.4577    2.9391  -13.9125 C   0  0  0  0  0  0  0  0  0  0  0  0
   -7.1834    3.1320  -12.6150 C   0  0  0  0  0  0  0  0  0  0  0  0
   -9.1743    5.4938   -9.5505 C   0  0  0  0  0  0  0  0  0  0  0  0
   -8.5663    5.8209  -14.9729 C   0  0  0  0  0  0  0  0  0  0  0  0
   -6.9645    3.8372  -15.0124 C   0  0  0  0  0  0  0  0  0  0  0  0
   -7.6983    2.2581  -11.5136 C   0  0  0  0  0  0  0  0  0  0  0  0
   -7.4834    5.0981  -17.1434 C   0  0  0  0  0  0  0  0  0  0  0  0
   -8.6807    5.1558  -18.0888 C   0  0  0  0  0  0  0  0  0  0  0  0
  -10.0331    6.5085  -13.0688 C   0  0  0  0  0  0  0  0  0  0  0  0
   -9.2055    3.7199  -16.3037 C   0  0  0  0  0  0  0  0  0  0  0  0
   -9.3306    6.7398  -11.7233 C   0  0  2  0  0  0  0  0  0  0  0  0
   -8.0585    4.6028  -15.7975 C   0  0  2  0  0  0  0  0  0  0  0  0
   -7.9134    7.2858  -11.8949 C   0  0  0  0  0  0  0  0  0  0  0  0
   -9.3159    5.5146  -10.9290 N   0  0  0  0  0  0  0  0  0  0  0  0
   -9.3927    5.5020  -13.9056 N   0  0  0  0  0  0  0  0  0  0  0  0
   -9.7899    4.5092  -17.3890 N   0  0  0  0  0  0  0  0  0  0  0  0
   -9.1167    6.5076   -8.8571 O   0  0  0  0  0  0  0  0  0  0  0  0
   -8.2365    6.9757  -15.2482 O   0  0  0  0  0  0  0  0  0  0  0  0
   -8.8191    2.9382  -10.9444 O   0  0  0  0  0  0  0  0  0  0  0  0
   -9.1679    2.9047   -5.7121 H   0  0  0  0  0  0  0  0  0  0  0  0
   -8.8300    0.7784   -6.9419 H   0  0  0  0  0  0  0  0  0  0  0  0
   -9.3446    5.0351   -6.9268 H   0  0  0  0  0  0  0  0  0  0  0  0
   -8.6551    0.7868   -9.4060 H   0  0  0  0  0  0  0  0  0  0  0  0
   -8.1151    2.1216  -14.1934 H   0  0  0  0  0  0  0  0  0  0  0  0
   -6.5778    3.9902  -12.3192 H   0  0  0  0  0  0  0  0  0  0  0  0
   -6.2796    4.5688  -14.5512 H   0  0  0  0  0  0  0  0  0  0  0  0
   -6.3366    3.2588  -15.7100 H   0  0  0  0  0  0  0  0  0  0  0  0
   -8.0751    1.3400  -11.9518 H   0  0  0  0  0  0  0  0  0  0  0  0
   -6.9321    2.0039  -10.7913 H   0  0  0  0  0  0  0  0  0  0  0  0
   -6.7597    4.3805  -17.5538 H   0  0  0  0  0  0  0  0  0  0  0  0
   -6.9780    6.0680  -17.0947 H   0  0  0  0  0  0  0  0  0  0  0  0
   -8.9364    6.2090  -18.3354 H   0  0  0  0  0  0  0  0  0  0  0  0
   -8.4628    4.6497  -19.0515 H   0  0  0  0  0  0  0  0  0  0  0  0
  -11.0625    6.1580  -12.8985 H   0  0  0  0  0  0  0  0  0  0  0  0
  -10.1060    7.4500  -13.6367 H   0  0  0  0  0  0  0  0  0  0  0  0
   -8.8717    2.7546  -16.6798 H   0  0  0  0  0  0  0  0  0  0  0  0
   -9.9687    3.5496  -15.5430 H   0  0  0  0  0  0  0  0  0  0  0  0
   -9.9143    7.4934  -11.1521 H   0  0  0  0  0  0  0  0  0  0  0  0
   -7.3078    6.5729  -12.4523 H   0  0  0  0  0  0  0  0  0  0  0  0
   -7.4606    7.4514  -10.9186 H   0  0  0  0  0  0  0  0  0  0  0  0
   -7.9442    8.2289  -12.4383 H   0  0  0  0  0  0  0  0  0  0  0  0
   -9.3964    4.6322  -11.4355 H   0  0  0  0  0  0  0  0  0  0  0  0
   -9.6069    4.5323  -13.7076 H   0  0  0  0  0  0  0  0  0  0  0  0
  -10.4391    5.2105  -17.0160 H   0  0  0  0  0  0  0  0  0  0  0  0
  1  2  2  0  0  0  0
  1  3  1  0  0  0  0
  2  4  1  0  0  0  0
  3  5  2  0  0  0  0
  4  6  2  0  0  0  0
  5  6  1  0  0  0  0
  5  9  1  0  0  0  0
  6 25  1  0  0  0  0
  7  8  2  0  0  0  0
  7 11  1  0  0  0  0
  8 12  1  0  0  0  0
  9 20  1  0  0  0  0
  9 23  2  0  0  0  0
 10 18  1  0  0  0  0
 10 21  1  0  0  0  0
 10 24  2  0  0  0  0
 11 18  1  0  0  0  0
 12 25  1  0  0  0  0
 13 14  1  0  0  0  0
 13 18  1  0  0  0  0
 14 22  1  0  0  0  0
 15 17  1  0  0  0  0
 15 21  1  0  0  0  0
 16 18  1  0  0  0  0
 16 22  1  0  0  0  0
 17 19  1  1  0  0  0
 17 20  1  0  0  0  0
  1 26  1  0  0  0  0
  2 27  1  0  0  0  0
  3 28  1  0  0  0  0
  4 29  1  0  0  0  0
  7 30  1  0  0  0  0
  8 31  1  0  0  0  0
 11 32  1  0  0  0  0
 11 33  1  0  0  0  0
 12 34  1  0  0  0  0
 12 35  1  0  0  0  0
 13 36  1  0  0  0  0
 13 37  1  0  0  0  0
 14 38  1  0  0  0  0
 14 39  1  0  0  0  0
 15 40  1  0  0  0  0
 15 41  1  0  0  0  0
 16 42  1  0  0  0  0
 16 43  1  0  0  0  0
 17 44  1  0  0  0  0
 19 45  1  0  0  0  0
 19 46  1  0  0  0  0
 19 47  1  0  0  0  0
 20 48  1  0  0  0  0
 21 49  1  0  0  0  0
 22 50  1  0  0  0  0
M  END
> <id>
EN300-6491614

> <smiles>
C[C@H]1CNC(=O)C2(CCNC2)C/C=C/COC=3C=CC=CC3C(=O)N1.OC(=O)C(F)(F)F

> <MDLNUMBER>
MFCD31720017

> <IUPAC Name>
(3E,10S)-10-methyl-2,5,7,8,9,10,11,12-octahydrospiro[1,8,11-benzoxadiazacyclotetradecine-6,3'-pyrrolidin]-3-ene-7,12-dione; trifluoroacetic acid

> <CAS>
2253620-99-2

> <URL>
https://www.enaminestore.com/catalog/EN300-6491614

> <Saltdate>
OC(=O)C(F)(F)F

> <ROCS_ShapeQuery>
_x0404_0B

> <ROCS_TanimotoCombo>
0.410 

> <ROCS_ShapeTanimoto>
0.352 

> <ROCS_ColorTanimoto>
0.058 

> <ROCS_RefTversky>
0.315 

> <ROCS_RefColorTversky>
0.065 

> <ROCS_RefTverskyCombo>
0.380 

> <ROCS_FitTversky>
1.500 

> <ROCS_FitColorTversky>
0.379 

> <ROCS_FitTverskyCombo>
1.878 

> <ROCS_ColorScore>
-4.670

> <ROCS_Overlap>
2104.105

> <ROCS_Rank>
73                  

$$$$
untitled-dbase-27139_93
  -OEChem-08212314543D

 53 55  0     1  0  0  0  0  0999 V2000
   -9.9348    2.6819   -7.4630 C   0  0  0  0  0  0  0  0  0  0  0  0
   -8.9100    1.8130   -7.8342 C   0  0  0  0  0  0  0  0  0  0  0  0
  -10.0142    3.9491   -8.0355 C   0  0  0  0  0  0  0  0  0  0  0  0
   -7.9581    2.2046   -8.7798 C   0  0  0  0  0  0  0  0  0  0  0  0
   -9.0718    4.3352   -8.9940 C   0  0  0  0  0  0  0  0  0  0  0  0
   -8.0367    3.4657   -9.3774 C   0  0  0  0  0  0  0  0  0  0  0  0
   -7.4027    3.2338  -13.6476 C   0  0  0  0  0  0  0  0  0  0  0  0
   -7.6347    2.9144  -12.3656 C   0  0  0  0  0  0  0  0  0  0  0  0
   -9.2006    5.6896   -9.5697 C   0  0  0  0  0  0  0  0  0  0  0  0
   -8.7421    5.6819  -14.8088 C   0  0  0  0  0  0  0  0  0  0  0  0
   -8.4622    3.1281  -14.7111 C   0  0  0  0  0  0  0  0  0  0  0  0
   -6.6251    3.0383  -11.2642 C   0  0  0  0  0  0  0  0  0  0  0  0
   -7.5804    5.3857  -17.7791 C   0  0  0  0  0  0  0  0  0  0  0  0
   -7.3729    4.4550  -16.5811 C   0  0  0  0  0  0  0  0  0  0  0  0
   -8.9001    5.1154  -18.4893 C   0  0  0  0  0  0  0  0  0  0  0  0
  -10.0922    6.8060  -13.0267 C   0  0  0  0  0  0  0  0  0  0  0  0
   -9.8846    4.1759  -16.5019 C   0  0  0  0  0  0  0  0  0  0  0  0
   -9.2876    6.9472  -11.7261 C   0  0  2  0  0  0  0  0  0  0  0  0
   -8.6081    4.3740  -15.6401 C   0  0  2  0  0  0  0  0  0  0  0  0
   -7.8431    7.3851  -11.9626 C   0  0  0  0  0  0  0  0  0  0  0  0
   -9.3058    5.7137  -10.9493 N   0  0  0  0  0  0  0  0  0  0  0  0
   -9.7354    5.6536  -13.8410 N   0  0  0  0  0  0  0  0  0  0  0  0
  -10.0218    5.1840  -17.5560 N   0  0  0  0  0  0  0  0  0  0  0  0
   -9.2129    6.6596   -8.8199 O   0  0  0  0  0  0  0  0  0  0  0  0
   -8.0358    6.6676  -15.0227 O   0  0  0  0  0  0  0  0  0  0  0  0
   -7.0972    3.9418  -10.2560 O   0  0  0  0  0  0  0  0  0  0  0  0
  -10.6712    2.3697   -6.7284 H   0  0  0  0  0  0  0  0  0  0  0  0
   -8.8566    0.8209   -7.3934 H   0  0  0  0  0  0  0  0  0  0  0  0
  -10.8018    4.6240   -7.7168 H   0  0  0  0  0  0  0  0  0  0  0  0
   -7.1796    1.4953   -9.0411 H   0  0  0  0  0  0  0  0  0  0  0  0
   -6.4300    3.5858  -13.9483 H   0  0  0  0  0  0  0  0  0  0  0  0
   -8.6280    2.5631  -12.0764 H   0  0  0  0  0  0  0  0  0  0  0  0
   -8.2146    2.2504  -15.3170 H   0  0  0  0  0  0  0  0  0  0  0  0
   -9.4307    2.9163  -14.2459 H   0  0  0  0  0  0  0  0  0  0  0  0
   -6.4663    2.0361  -10.8194 H   0  0  0  0  0  0  0  0  0  0  0  0
   -5.6519    3.3886  -11.6676 H   0  0  0  0  0  0  0  0  0  0  0  0
   -7.5413    6.4334  -17.4467 H   0  0  0  0  0  0  0  0  0  0  0  0
   -6.7503    5.2558  -18.4873 H   0  0  0  0  0  0  0  0  0  0  0  0
   -7.1468    3.4434  -16.9629 H   0  0  0  0  0  0  0  0  0  0  0  0
   -6.4627    4.7722  -16.0487 H   0  0  0  0  0  0  0  0  0  0  0  0
   -9.0495    5.8559  -19.2810 H   0  0  0  0  0  0  0  0  0  0  0  0
   -8.8792    4.1337  -18.9750 H   0  0  0  0  0  0  0  0  0  0  0  0
  -11.1671    6.7218  -12.8031 H   0  0  0  0  0  0  0  0  0  0  0  0
   -9.9730    7.7111  -13.6427 H   0  0  0  0  0  0  0  0  0  0  0  0
   -9.8858    3.1800  -16.9658 H   0  0  0  0  0  0  0  0  0  0  0  0
  -10.7843    4.2143  -15.8744 H   0  0  0  0  0  0  0  0  0  0  0  0
   -9.7740    7.7337  -11.1232 H   0  0  0  0  0  0  0  0  0  0  0  0
   -7.3222    6.6356  -12.5564 H   0  0  0  0  0  0  0  0  0  0  0  0
   -7.3316    7.5023  -11.0085 H   0  0  0  0  0  0  0  0  0  0  0  0
   -7.8274    8.3352  -12.4946 H   0  0  0  0  0  0  0  0  0  0  0  0
   -9.3944    4.8416  -11.4564 H   0  0  0  0  0  0  0  0  0  0  0  0
  -10.2415    4.7810  -13.6924 H   0  0  0  0  0  0  0  0  0  0  0  0
  -10.0478    6.1092  -17.1333 H   0  0  0  0  0  0  0  0  0  0  0  0
  1  2  2  0  0  0  0
  1  3  1  0  0  0  0
  2  4  1  0  0  0  0
  3  5  2  0  0  0  0
  4  6  2  0  0  0  0
  5  6  1  0  0  0  0
  5  9  1  0  0  0  0
  6 26  1  0  0  0  0
  7  8  2  0  0  0  0
  7 11  1  0  0  0  0
  8 12  1  0  0  0  0
  9 21  1  0  0  0  0
  9 24  2  0  0  0  0
 10 19  1  0  0  0  0
 10 22  1  0  0  0  0
 10 25  2  0  0  0  0
 11 19  1  0  0  0  0
 12 26  1  0  0  0  0
 13 14  1  0  0  0  0
 13 15  1  0  0  0  0
 14 19  1  1  0  0  0
 15 23  1  0  0  0  0
 16 18  1  0  0  0  0
 16 22  1  0  0  0  0
 17 19  1  0  0  0  0
 17 23  1  0  0  0  0
 18 20  1  1  0  0  0
 18 21  1  0  0  0  0
  1 27  1  0  0  0  0
  2 28  1  0  0  0  0
  3 29  1  0  0  0  0
  4 30  1  0  0  0  0
  7 31  1  0  0  0  0
  8 32  1  0  0  0  0
 11 33  1  0  0  0  0
 11 34  1  0  0  0  0
 12 35  1  0  0  0  0
 12 36  1  0  0  0  0
 13 37  1  0  0  0  0
 13 38  1  0  0  0  0
 14 39  1  0  0  0  0
 14 40  1  0  0  0  0
 15 41  1  0  0  0  0
 15 42  1  0  0  0  0
 16 43  1  0  0  0  0
 16 44  1  0  0  0  0
 17 45  1  0  0  0  0
 17 46  1  0  0  0  0
 18 47  1  0  0  0  0
 20 48  1  0  0  0  0
 20 49  1  0  0  0  0
 20 50  1  0  0  0  0
 21 51  1  0  0  0  0
 22 52  1  0  0  0  0
 23 53  1  0  0  0  0
M  END
> <id>
EN300-6478490

> <smiles>
Cl.C[C@H]1CNC(=O)[C@@]2(CCCNC2)C/C=C/COC=3C=CC=CC3C(=O)N1

> <MDLNUMBER>
MFCD31737431

> <IUPAC Name>
(3E,6S,10S)-10-methyl-2,5,7,8,9,10,11,12-octahydrospiro[1,8,11-benzoxadiazacyclotetradecine-6,3'-piperidin]-3-ene-7,12-dione hydrochloride

> <CAS>
2253619-71-3

> <Purity>
95

> <URL>
https://www.enaminestore.com/catalog/EN300-6478490

> <Saltdate>
Cl

> <ROCS_ShapeQuery>
_x0404_0B

> <ROCS_TanimotoCombo>
0.410 

> <ROCS_ShapeTanimoto>
0.347 

> <ROCS_ColorTanimoto>
0.063 

> <ROCS_RefTversky>
0.313 

> <ROCS_RefColorTversky>
0.069 

> <ROCS_RefTverskyCombo>
0.382 

> <ROCS_FitTversky>
1.456 

> <ROCS_FitColorTversky>
0.405 

> <ROCS_FitTverskyCombo>
1.861 

> <ROCS_ColorScore>
-4.996

> <ROCS_Overlap>
2094.022

> <ROCS_Rank>
74                  

$$$$
untitled-dbase-40725_101
  -OEChem-08212314543D

 48 50  0     0  0  0  0  0  0999 V2000
   -9.0107    4.1653  -17.7821 C   0  0  0  0  0  0  0  0  0  0  0  0
   -7.7999    4.7808  -18.0849 C   0  0  0  0  0  0  0  0  0  0  0  0
   -9.6437    4.4369  -16.5711 C   0  0  0  0  0  0  0  0  0  0  0  0
   -7.2259    5.6759  -17.1807 C   0  0  0  0  0  0  0  0  0  0  0  0
   -9.0662    5.3256  -15.6526 C   0  0  0  0  0  0  0  0  0  0  0  0
   -7.8568    5.9746  -15.9644 C   0  0  0  0  0  0  0  0  0  0  0  0
   -8.7492    5.0215   -9.0224 C   0  0  0  0  0  0  0  0  0  0  0  0
   -9.7684    5.6072  -14.3444 C   0  0  0  0  0  0  0  0  0  0  0  0
   -7.8724    5.1191  -12.6868 C   0  0  0  0  0  0  0  0  0  0  0  0
   -9.7120    6.8022  -12.1292 C   0  0  0  0  0  0  0  0  0  0  0  0
   -8.4278    4.4271  -11.4454 C   0  0  0  0  0  0  0  0  0  0  0  0
   -9.0304    6.7571  -10.7669 C   0  0  0  0  0  0  0  0  0  0  0  0
   -8.0055    7.3365  -13.9218 C   0  0  0  0  0  0  0  0  0  0  0  0
   -8.8302    6.2051  -13.2604 C   0  0  0  0  0  0  0  0  0  0  0  0
  -10.8569    3.5321   -8.5534 C   0  0  0  0  0  0  0  0  0  0  0  0
   -9.3990    1.4940   -8.7265 C   0  0  0  0  0  0  0  0  0  0  0  0
   -9.2716    2.9532   -6.6862 C   0  0  0  0  0  0  0  0  0  0  0  0
   -9.5020    2.9226   -8.1965 C   0  0  0  0  0  0  0  0  0  0  0  0
   -7.2614    6.8552  -15.0712 N   0  0  0  0  0  0  0  0  0  0  0  0
   -8.7251    5.3819  -10.3734 N   0  0  0  0  0  0  0  0  0  0  0  0
   -8.9950    5.7994   -8.1023 O   0  0  0  0  0  0  0  0  0  0  0  0
   -8.4744    3.6930   -8.8302 O   0  0  0  0  0  0  0  0  0  0  0  0
   -9.4602    3.4723  -18.4872 H   0  0  0  0  0  0  0  0  0  0  0  0
   -7.3014    4.5662  -19.0257 H   0  0  0  0  0  0  0  0  0  0  0  0
  -10.5876    3.9484  -16.3432 H   0  0  0  0  0  0  0  0  0  0  0  0
   -6.2789    6.1461  -17.4362 H   0  0  0  0  0  0  0  0  0  0  0  0
  -10.5788    6.3172  -14.5630 H   0  0  0  0  0  0  0  0  0  0  0  0
  -10.2438    4.6876  -13.9834 H   0  0  0  0  0  0  0  0  0  0  0  0
   -6.9188    5.5892  -12.4196 H   0  0  0  0  0  0  0  0  0  0  0  0
   -7.6422    4.3594  -13.4387 H   0  0  0  0  0  0  0  0  0  0  0  0
  -10.6677    6.2708  -12.0733 H   0  0  0  0  0  0  0  0  0  0  0  0
   -9.9495    7.8462  -12.3655 H   0  0  0  0  0  0  0  0  0  0  0  0
   -9.3612    3.8973  -11.6726 H   0  0  0  0  0  0  0  0  0  0  0  0
   -7.7135    3.6675  -11.1090 H   0  0  0  0  0  0  0  0  0  0  0  0
   -8.1167    7.3591  -10.7937 H   0  0  0  0  0  0  0  0  0  0  0  0
   -9.6728    7.1842   -9.9892 H   0  0  0  0  0  0  0  0  0  0  0  0
   -8.6696    8.1457  -14.2483 H   0  0  0  0  0  0  0  0  0  0  0  0
   -7.3032    7.7735  -13.2040 H   0  0  0  0  0  0  0  0  0  0  0  0
  -10.9347    4.5576   -8.1747 H   0  0  0  0  0  0  0  0  0  0  0  0
  -11.0194    3.5480   -9.6360 H   0  0  0  0  0  0  0  0  0  0  0  0
  -11.6739    2.9682   -8.0890 H   0  0  0  0  0  0  0  0  0  0  0  0
   -8.4284    1.0527   -8.4726 H   0  0  0  0  0  0  0  0  0  0  0  0
   -9.4690    1.4775   -9.8201 H   0  0  0  0  0  0  0  0  0  0  0  0
  -10.1881    0.8540   -8.3188 H   0  0  0  0  0  0  0  0  0  0  0  0
   -8.2998    2.5160   -6.4299 H   0  0  0  0  0  0  0  0  0  0  0  0
   -9.3052    3.9748   -6.2938 H   0  0  0  0  0  0  0  0  0  0  0  0
  -10.0271    2.3547   -6.1646 H   0  0  0  0  0  0  0  0  0  0  0  0
   -6.4200    7.3422  -15.3493 H   0  0  0  0  0  0  0  0  0  0  0  0
  1  2  2  0  0  0  0
  1  3  1  0  0  0  0
  2  4  1  0  0  0  0
  3  5  2  0  0  0  0
  4  6  2  0  0  0  0
  5  6  1  0  0  0  0
  5  8  1  0  0  0  0
  6 19  1  0  0  0  0
  7 20  1  0  0  0  0
  7 21  2  0  0  0  0
  7 22  1  0  0  0  0
  8 14  1  0  0  0  0
  9 11  1  0  0  0  0
  9 14  1  0  0  0  0
 10 12  1  0  0  0  0
 10 14  1  0  0  0  0
 11 20  1  0  0  0  0
 12 20  1  0  0  0  0
 13 14  1  0  0  0  0
 13 19  1  0  0  0  0
 15 18  1  0  0  0  0
 16 18  1  0  0  0  0
 17 18  1  0  0  0  0
 18 22  1  0  0  0  0
  1 23  1  0  0  0  0
  2 24  1  0  0  0  0
  3 25  1  0  0  0  0
  4 26  1  0  0  0  0
  8 27  1  0  0  0  0
  8 28  1  0  0  0  0
  9 29  1  0  0  0  0
  9 30  1  0  0  0  0
 10 31  1  0  0  0  0
 10 32  1  0  0  0  0
 11 33  1  0  0  0  0
 11 34  1  0  0  0  0
 12 35  1  0  0  0  0
 12 36  1  0  0  0  0
 13 37  1  0  0  0  0
 13 38  1  0  0  0  0
 15 39  1  0  0  0  0
 15 40  1  0  0  0  0
 15 41  1  0  0  0  0
 16 42  1  0  0  0  0
 16 43  1  0  0  0  0
 16 44  1  0  0  0  0
 17 45  1  0  0  0  0
 17 46  1  0  0  0  0
 17 47  1  0  0  0  0
 19 48  1  0  0  0  0
M  END
> <id>
EN300-12568870

> <smiles>
CC(C)(C)OC(=O)N1CCC2(CC1)CNC=3C=CC=CC3C2

> <MDLNUMBER>
MFCD12198639

> <IUPAC Name>
tert-butyl 2',4'-dihydro-1'H-spiro[piperidine-4,3'-quinoline]-1-carboxylate

> <CAS>
1160247-77-7

> <Purity>
95

> <URL>
https://www.enaminestore.com/catalog/EN300-12568870

> <ROCS_ShapeQuery>
_x0404_0B

> <ROCS_TanimotoCombo>
0.409 

> <ROCS_ShapeTanimoto>
0.361 

> <ROCS_ColorTanimoto>
0.048 

> <ROCS_RefTversky>
0.316 

> <ROCS_RefColorTversky>
0.052 

> <ROCS_RefTverskyCombo>
0.368 

> <ROCS_FitTversky>
1.645 

> <ROCS_FitColorTversky>
0.395 

> <ROCS_FitTverskyCombo>
2.040 

> <ROCS_ColorScore>
-3.750

> <ROCS_Overlap>
2111.039

> <ROCS_Rank>
75                  

$$$$
untitled-dbase-14719_5
  -OEChem-08212314543D

 51 53  0     1  0  0  0  0  0999 V2000
   -9.0465    2.0566   -8.1308 C   0  0  0  0  0  0  0  0  0  0  0  0
   -9.0805    4.1444   -7.7821 C   0  0  0  0  0  0  0  0  0  0  0  0
   -9.0495    4.0050   -9.1506 C   0  0  0  0  0  0  0  0  0  0  0  0
   -8.6339    5.6026  -14.4971 C   0  0  0  0  0  0  0  0  0  0  0  0
   -9.1262    5.4660   -7.1228 C   0  0  0  0  0  0  0  0  0  0  0  0
  -10.1083    4.9001  -11.2433 C   0  0  0  0  0  0  0  0  0  0  0  0
   -7.6145    5.1964  -10.8123 C   0  0  0  0  0  0  0  0  0  0  0  0
   -8.7154    6.5597   -8.1324 C   0  0  0  0  0  0  0  0  0  0  0  0
   -9.5313    4.3207  -12.5315 C   0  0  0  0  0  0  0  0  0  0  0  0
   -9.0226    5.1228  -10.1595 C   0  0  2  0  0  0  0  0  0  0  0  0
   -7.5519    5.8663  -12.2188 C   0  0  0  0  0  0  0  0  0  0  0  0
   -7.7794    7.3849  -12.0918 C   0  0  0  0  0  0  0  0  0  0  0  0
   -6.1228    5.6192  -12.7546 C   0  0  0  0  0  0  0  0  0  0  0  0
   -7.8188    5.1585  -17.2079 C   0  0  0  0  0  0  0  0  0  0  0  0
   -9.7856    3.6026  -17.3493 C   0  0  0  0  0  0  0  0  0  0  0  0
  -10.1533    6.0449  -16.8931 C   0  0  0  0  0  0  0  0  0  0  0  0
   -9.2202    4.8537  -16.6806 C   0  0  0  0  0  0  0  0  0  0  0  0
   -9.0829    2.9343   -7.1488 N   0  0  0  0  0  0  0  0  0  0  0  0
   -9.0239    2.6563   -9.3646 N   0  0  0  0  0  0  0  0  0  0  0  0
   -9.3634    6.3990   -9.4530 N   0  0  0  0  0  0  0  0  0  0  0  0
   -8.5716    5.2615  -13.1327 N   0  0  0  0  0  0  0  0  0  0  0  0
   -8.2816    6.6816  -14.9685 O   0  0  0  0  0  0  0  0  0  0  0  0
   -9.1310    4.5892  -15.2755 O   0  0  0  0  0  0  0  0  0  0  0  0
   -9.0331    0.9816   -8.0206 H   0  0  0  0  0  0  0  0  0  0  0  0
  -10.1467    5.6538   -6.7686 H   0  0  0  0  0  0  0  0  0  0  0  0
   -8.4587    5.4898   -6.2551 H   0  0  0  0  0  0  0  0  0  0  0  0
  -10.6219    5.8411  -11.4683 H   0  0  0  0  0  0  0  0  0  0  0  0
  -10.8791    4.2158  -10.8715 H   0  0  0  0  0  0  0  0  0  0  0  0
   -6.9108    5.6857  -10.1353 H   0  0  0  0  0  0  0  0  0  0  0  0
   -7.2510    4.1676  -10.9122 H   0  0  0  0  0  0  0  0  0  0  0  0
   -8.9851    7.5415   -7.7264 H   0  0  0  0  0  0  0  0  0  0  0  0
   -7.6255    6.5710   -8.2554 H   0  0  0  0  0  0  0  0  0  0  0  0
   -9.0514    3.3890  -12.2914 H   0  0  0  0  0  0  0  0  0  0  0  0
  -10.3054    4.1436  -13.2589 H   0  0  0  0  0  0  0  0  0  0  0  0
   -7.7327    7.8339  -13.0772 H   0  0  0  0  0  0  0  0  0  0  0  0
   -7.0080    7.8070  -11.4582 H   0  0  0  0  0  0  0  0  0  0  0  0
   -8.7544    7.5617  -11.6525 H   0  0  0  0  0  0  0  0  0  0  0  0
   -6.0394    6.0707  -13.7327 H   0  0  0  0  0  0  0  0  0  0  0  0
   -5.9588    4.5531  -12.8175 H   0  0  0  0  0  0  0  0  0  0  0  0
   -5.4169    6.0688  -12.0713 H   0  0  0  0  0  0  0  0  0  0  0  0
   -7.4094    6.0559  -16.7303 H   0  0  0  0  0  0  0  0  0  0  0  0
   -7.1309    4.3254  -17.0301 H   0  0  0  0  0  0  0  0  0  0  0  0
   -7.8422    5.3644  -18.2841 H   0  0  0  0  0  0  0  0  0  0  0  0
  -10.7910    3.3801  -16.9740 H   0  0  0  0  0  0  0  0  0  0  0  0
   -9.1696    2.7254  -17.1204 H   0  0  0  0  0  0  0  0  0  0  0  0
   -9.8386    3.7147  -18.4371 H   0  0  0  0  0  0  0  0  0  0  0  0
  -11.1586    5.8265  -16.5150 H   0  0  0  0  0  0  0  0  0  0  0  0
   -9.7820    6.9430  -16.3890 H   0  0  0  0  0  0  0  0  0  0  0  0
  -10.2658    6.2661  -17.9607 H   0  0  0  0  0  0  0  0  0  0  0  0
   -8.9904    2.1849  -10.2588 H   0  0  0  0  0  0  0  0  0  0  0  0
  -10.3751    6.4398   -9.3166 H   0  0  0  0  0  0  0  0  0  0  0  0
  1 18  2  0  0  0  0
  1 19  1  0  0  0  0
  2  3  2  0  0  0  0
  2  5  1  0  0  0  0
  2 18  1  0  0  0  0
  3 10  1  0  0  0  0
  3 19  1  0  0  0  0
  4 21  1  0  0  0  0
  4 22  2  0  0  0  0
  4 23  1  0  0  0  0
  5  8  1  0  0  0  0
  6  9  1  0  0  0  0
  6 10  1  0  0  0  0
  7 10  1  0  0  0  0
  7 11  1  0  0  0  0
  8 20  1  0  0  0  0
  9 21  1  0  0  0  0
 10 20  1  0  0  0  0
 11 12  1  0  0  0  0
 11 13  1  0  0  0  0
 11 21  1  0  0  0  0
 14 17  1  0  0  0  0
 15 17  1  0  0  0  0
 16 17  1  0  0  0  0
 17 23  1  0  0  0  0
  1 24  1  0  0  0  0
  5 25  1  0  0  0  0
  5 26  1  0  0  0  0
  6 27  1  0  0  0  0
  6 28  1  0  0  0  0
  7 29  1  0  0  0  0
  7 30  1  0  0  0  0
  8 31  1  0  0  0  0
  8 32  1  0  0  0  0
  9 33  1  0  0  0  0
  9 34  1  0  0  0  0
 12 35  1  0  0  0  0
 12 36  1  0  0  0  0
 12 37  1  0  0  0  0
 13 38  1  0  0  0  0
 13 39  1  0  0  0  0
 13 40  1  0  0  0  0
 14 41  1  0  0  0  0
 14 42  1  0  0  0  0
 14 43  1  0  0  0  0
 15 44  1  0  0  0  0
 15 45  1  0  0  0  0
 15 46  1  0  0  0  0
 16 47  1  0  0  0  0
 16 48  1  0  0  0  0
 16 49  1  0  0  0  0
 19 50  1  0  0  0  0
 20 51  1  0  0  0  0
M  END
> <id>
EN300-1076172

> <smiles>
CC(C)(C)OC(=O)N1CCC2(CC1(C)C)NCCC=3N=CNC32

> <IUPAC Name>
tert-butyl 2',2'-dimethyl-3,5,6,7-tetrahydrospiro[imidazo[4,5-c]pyridine-4,4'-piperidine]-1'-carboxylate

> <CAS>
2000616-47-5

> <URL>
https://www.enaminestore.com/catalog/EN300-1076172

> <ROCS_ShapeQuery>
_x0404_0B

> <ROCS_TanimotoCombo>
0.409 

> <ROCS_ShapeTanimoto>
0.327 

> <ROCS_ColorTanimoto>
0.082 

> <ROCS_RefTversky>
0.296 

> <ROCS_RefColorTversky>
0.091 

> <ROCS_RefTverskyCombo>
0.386 

> <ROCS_FitTversky>
1.480 

> <ROCS_FitColorTversky>
0.460 

> <ROCS_FitTverskyCombo>
1.940 

> <ROCS_ColorScore>
-6.549

> <ROCS_Overlap>
1975.927

> <ROCS_Rank>
76                  

$$$$
untitled-dbase-49500_6
  -OEChem-08212314543D

 38 40  0     0  0  0  0  0  0999 V2000
   -9.1474    2.7372   -7.1129 C   0  0  0  0  0  0  0  0  0  0  0  0
   -9.0998    4.1842   -9.3587 C   0  0  0  0  0  0  0  0  0  0  0  0
   -9.1107    4.6798  -10.7037 C   0  0  0  0  0  0  0  0  0  0  0  0
   -9.2506    3.6622  -11.6291 C   0  0  0  0  0  0  0  0  0  0  0  0
   -8.9752    4.8045   -8.1101 C   0  0  0  0  0  0  0  0  0  0  0  0
   -9.2437    2.8018   -9.3410 C   0  0  0  0  0  0  0  0  0  0  0  0
   -8.3906    5.6031  -14.6723 C   0  0  0  0  0  0  0  0  0  0  0  0
   -8.9724    6.1040  -11.1452 C   0  0  0  0  0  0  0  0  0  0  0  0
   -9.3051    3.8372  -13.1137 C   0  0  0  0  0  0  0  0  0  0  0  0
   -9.5221    6.2834  -12.5651 C   0  0  0  0  0  0  0  0  0  0  0  0
   -7.0750    5.8180  -17.2046 C   0  0  0  0  0  0  0  0  0  0  0  0
   -7.7681    3.4299  -17.5593 C   0  0  0  0  0  0  0  0  0  0  0  0
   -9.5165    5.2114  -17.2807 C   0  0  0  0  0  0  0  0  0  0  0  0
   -8.1172    4.7501  -16.8757 C   0  0  0  0  0  0  0  0  0  0  0  0
   -9.0001    4.0692   -6.9781 N   0  0  0  0  0  0  0  0  0  0  0  0
   -9.2754    2.0209   -8.2435 N   0  0  0  0  0  0  0  0  0  0  0  0
   -9.0098    5.2411  -13.4703 N   0  0  0  0  0  0  0  0  0  0  0  0
   -8.1312    6.7596  -14.9990 O   0  0  0  0  0  0  0  0  0  0  0  0
   -8.8161    6.1619   -7.9743 O   0  0  0  0  0  0  0  0  0  0  0  0
   -8.1041    4.5206  -15.4621 O   0  0  0  0  0  0  0  0  0  0  0  0
   -9.3833    2.1303  -10.9010 S   0  0  0  0  0  0  0  0  0  0  0  0
   -9.1644    2.1693   -6.1893 H   0  0  0  0  0  0  0  0  0  0  0  0
   -9.5172    6.7723  -10.4702 H   0  0  0  0  0  0  0  0  0  0  0  0
   -7.9136    6.3876  -11.1166 H   0  0  0  0  0  0  0  0  0  0  0  0
   -8.5963    3.1647  -13.6068 H   0  0  0  0  0  0  0  0  0  0  0  0
  -10.3115    3.6179  -13.4880 H   0  0  0  0  0  0  0  0  0  0  0  0
  -10.6162    6.1981  -12.5693 H   0  0  0  0  0  0  0  0  0  0  0  0
   -9.2706    7.2819  -12.9367 H   0  0  0  0  0  0  0  0  0  0  0  0
   -7.3221    6.7672  -16.7158 H   0  0  0  0  0  0  0  0  0  0  0  0
   -6.0721    5.5141  -16.8874 H   0  0  0  0  0  0  0  0  0  0  0  0
   -7.0505    6.0220  -18.2812 H   0  0  0  0  0  0  0  0  0  0  0  0
   -8.5133    2.6608  -17.3261 H   0  0  0  0  0  0  0  0  0  0  0  0
   -6.8062    3.0467  -17.2001 H   0  0  0  0  0  0  0  0  0  0  0  0
   -7.7128    3.5405  -18.6471 H   0  0  0  0  0  0  0  0  0  0  0  0
  -10.2643    4.4455  -17.0449 H   0  0  0  0  0  0  0  0  0  0  0  0
   -9.7988    6.1384  -16.7713 H   0  0  0  0  0  0  0  0  0  0  0  0
   -9.5742    5.3771  -18.3626 H   0  0  0  0  0  0  0  0  0  0  0  0
   -8.7497    6.3882   -7.0372 H   0  0  0  0  0  0  0  0  0  0  0  0
  1 15  2  0  0  0  0
  1 16  1  0  0  0  0
  2  3  1  0  0  0  0
  2  5  2  0  0  0  0
  2  6  1  0  0  0  0
  3  4  2  0  0  0  0
  3  8  1  0  0  0  0
  4  9  1  0  0  0  0
  4 21  1  0  0  0  0
  5 15  1  0  0  0  0
  5 19  1  0  0  0  0
  6 16  2  0  0  0  0
  6 21  1  0  0  0  0
  7 17  1  0  0  0  0
  7 18  2  0  0  0  0
  7 20  1  0  0  0  0
  8 10  1  0  0  0  0
  9 17  1  0  0  0  0
 10 17  1  0  0  0  0
 11 14  1  0  0  0  0
 12 14  1  0  0  0  0
 13 14  1  0  0  0  0
 14 20  1  0  0  0  0
  1 22  1  0  0  0  0
  8 23  1  0  0  0  0
  8 24  1  0  0  0  0
  9 25  1  0  0  0  0
  9 26  1  0  0  0  0
 10 27  1  0  0  0  0
 10 28  1  0  0  0  0
 11 29  1  0  0  0  0
 11 30  1  0  0  0  0
 11 31  1  0  0  0  0
 12 32  1  0  0  0  0
 12 33  1  0  0  0  0
 12 34  1  0  0  0  0
 13 35  1  0  0  0  0
 13 36  1  0  0  0  0
 13 37  1  0  0  0  0
 19 38  1  0  0  0  0
M  END
> <id>
EN300-3429461

> <smiles>
CC(C)(C)OC(=O)N1CCC2=C(C1)SC=3N=CN=C(O)C23

> <MDLNUMBER>
MFCD30729669

> <IUPAC Name>
tert-butyl 3-hydroxy-8-thia-4,6,11-triazatricyclo[7.4.0.0,2,7]trideca-1(9),2,4,6-tetraene-11-carboxylate

> <CAS>
874801-60-2

> <Purity>
95

> <URL>
https://www.enaminestore.com/catalog/EN300-3429461

> <ROCS_ShapeQuery>
_x0404_0B

> <ROCS_TanimotoCombo>
0.408 

> <ROCS_ShapeTanimoto>
0.333 

> <ROCS_ColorTanimoto>
0.076 

> <ROCS_RefTversky>
0.296 

> <ROCS_RefColorTversky>
0.083 

> <ROCS_RefTverskyCombo>
0.379 

> <ROCS_FitTversky>
1.580 

> <ROCS_FitColorTversky>
0.483 

> <ROCS_FitTverskyCombo>
2.063 

> <ROCS_ColorScore>
-5.970

> <ROCS_Overlap>
1977.661

> <ROCS_Rank>
77                  

$$$$
untitled-dbase-50595_15
  -OEChem-08212314543D

 82 86  0     0  0  0  0  0  0999 V2000
   -5.9722    0.9643  -15.6277 C   0  0  0  0  0  0  0  0  0  0  0  0
   -5.8097    0.2370  -14.4226 C   0  0  0  0  0  0  0  0  0  0  0  0
   -6.8985    1.9714  -15.4118 C   0  0  0  0  0  0  0  0  0  0  0  0
   -6.6257    0.8185  -13.4781 C   0  0  0  0  0  0  0  0  0  0  0  0
   -8.8154    6.0878  -16.0386 C   0  0  0  0  0  0  0  0  0  0  0  0
   -9.0753    6.3678  -10.2422 C   0  0  0  0  0  0  0  0  0  0  0  0
   -7.8098    0.7004   -9.8792 C   0  0  0  0  0  0  0  0  0  0  0  0
   -8.4773    5.0337  -16.7844 C   0  0  0  0  0  0  0  0  0  0  0  0
   -8.9740    7.1335  -11.3319 C   0  0  0  0  0  0  0  0  0  0  0  0
   -8.4330    1.6826   -9.2270 C   0  0  0  0  0  0  0  0  0  0  0  0
   -8.3743    5.7117  -14.7044 C   0  0  0  0  0  0  0  0  0  0  0  0
   -8.9294    5.0162  -10.7626 C   0  0  0  0  0  0  0  0  0  0  0  0
   -7.8470    4.0263  -15.8945 C   0  0  0  0  0  0  0  0  0  0  0  0
   -8.7609    6.2406  -12.4960 C   0  0  0  0  0  0  0  0  0  0  0  0
   -8.4849    2.8426  -10.1351 C   0  0  0  0  0  0  0  0  0  0  0  0
   -7.4970    1.2435  -11.2126 C   0  0  0  0  0  0  0  0  0  0  0  0
   -3.4284   -0.5797  -14.5132 C   0  0  0  0  0  0  0  0  0  0  0  0
   -5.3095   -2.1112  -15.1858 C   0  0  0  0  0  0  0  0  0  0  0  0
   -4.9286   -1.5622  -12.7910 C   0  0  0  0  0  0  0  0  0  0  0  0
   -9.5642    3.5884  -18.4758 C   0  0  0  0  0  0  0  0  0  0  0  0
   -7.3155    4.6008  -18.9375 C   0  0  0  0  0  0  0  0  0  0  0  0
   -9.3525    6.0567  -18.8725 C   0  0  0  0  0  0  0  0  0  0  0  0
  -10.2010    9.0164  -12.3711 C   0  0  0  0  0  0  0  0  0  0  0  0
   -7.7213    9.1658  -12.0199 C   0  0  0  0  0  0  0  0  0  0  0  0
   -9.2694    9.2427  -10.0525 C   0  0  0  0  0  0  0  0  0  0  0  0
   -9.5873    3.0745   -7.5354 C   0  0  0  0  0  0  0  0  0  0  0  0
   -7.8599    1.3988   -6.8262 C   0  0  0  0  0  0  0  0  0  0  0  0
  -10.0753    0.6187   -7.6961 C   0  0  0  0  0  0  0  0  0  0  0  0
   -4.9273   -0.9317  -14.2300 C   0  0  0  0  0  0  0  0  0  0  0  0
   -8.6730    4.8247  -18.2372 C   0  0  0  0  0  0  0  0  0  0  0  0
   -9.0396    8.6084  -11.4412 C   0  0  0  0  0  0  0  0  0  0  0  0
   -8.9770    1.6930   -7.8510 C   0  0  0  0  0  0  0  0  0  0  0  0
   -7.4339    2.8644  -16.2850 N   0  0  0  0  0  0  0  0  0  0  0  0
   -7.8000    4.5521  -14.6223 N   0  0  0  0  0  0  0  0  0  0  0  0
   -8.7764    4.9411  -12.0473 N   0  0  0  0  0  0  0  0  0  0  0  0
   -8.5870    6.6280  -13.7161 N   0  0  0  0  0  0  0  0  0  0  0  0
   -8.9747    4.0036   -9.8476 N   0  0  0  0  0  0  0  0  0  0  0  0
   -7.9044    2.4800  -11.3241 N   0  0  0  0  0  0  0  0  0  0  0  0
   -7.2887    1.8490  -14.0953 N   0  0  0  0  0  0  0  0  0  0  0  0
   -6.8432    0.4977  -12.1772 N   0  0  0  0  0  0  0  0  0  0  0  0
   -5.4524    0.7910  -16.5608 H   0  0  0  0  0  0  0  0  0  0  0  0
   -9.3013    7.0003  -16.3341 H   0  0  0  0  0  0  0  0  0  0  0  0
   -9.2283    6.6608   -9.2191 H   0  0  0  0  0  0  0  0  0  0  0  0
   -7.5618   -0.2860   -9.5278 H   0  0  0  0  0  0  0  0  0  0  0  0
   -2.7513   -1.4311  -14.3772 H   0  0  0  0  0  0  0  0  0  0  0  0
   -3.2914   -0.2229  -15.5399 H   0  0  0  0  0  0  0  0  0  0  0  0
   -3.0980    0.2202  -13.8401 H   0  0  0  0  0  0  0  0  0  0  0  0
   -4.6502   -2.9732  -15.0360 H   0  0  0  0  0  0  0  0  0  0  0  0
   -6.3372   -2.4660  -15.0451 H   0  0  0  0  0  0  0  0  0  0  0  0
   -5.2057   -1.7952  -16.2305 H   0  0  0  0  0  0  0  0  0  0  0  0
   -4.2589   -2.4257  -12.6983 H   0  0  0  0  0  0  0  0  0  0  0  0
   -4.6073   -0.8246  -12.0463 H   0  0  0  0  0  0  0  0  0  0  0  0
   -5.9344   -1.9046  -12.5209 H   0  0  0  0  0  0  0  0  0  0  0  0
   -9.7201    3.4180  -19.5476 H   0  0  0  0  0  0  0  0  0  0  0  0
   -9.1223    2.6772  -18.0565 H   0  0  0  0  0  0  0  0  0  0  0  0
  -10.5502    3.7207  -18.0151 H   0  0  0  0  0  0  0  0  0  0  0  0
   -7.4492    4.4449  -20.0145 H   0  0  0  0  0  0  0  0  0  0  0  0
   -6.8086    3.7157  -18.5353 H   0  0  0  0  0  0  0  0  0  0  0  0
   -6.6419    5.4559  -18.8091 H   0  0  0  0  0  0  0  0  0  0  0  0
   -9.5013    5.9103  -19.9489 H   0  0  0  0  0  0  0  0  0  0  0  0
   -8.7381    6.9556  -18.7426 H   0  0  0  0  0  0  0  0  0  0  0  0
  -10.3329    6.2600  -18.4265 H   0  0  0  0  0  0  0  0  0  0  0  0
  -10.2647   10.1071  -12.4638 H   0  0  0  0  0  0  0  0  0  0  0  0
  -10.0831    8.6046  -13.3799 H   0  0  0  0  0  0  0  0  0  0  0  0
  -11.1612    8.6613  -11.9785 H   0  0  0  0  0  0  0  0  0  0  0  0
   -7.7598   10.2582  -12.1050 H   0  0  0  0  0  0  0  0  0  0  0  0
   -7.5318    8.7622  -13.0216 H   0  0  0  0  0  0  0  0  0  0  0  0
   -6.8587    8.9139  -11.3922 H   0  0  0  0  0  0  0  0  0  0  0  0
   -9.3193   10.3356  -10.1247 H   0  0  0  0  0  0  0  0  0  0  0  0
   -8.4515    8.9934   -9.3660 H   0  0  0  0  0  0  0  0  0  0  0  0
  -10.2027    8.8974   -9.5929 H   0  0  0  0  0  0  0  0  0  0  0  0
   -9.9956    3.0996   -6.5182 H   0  0  0  0  0  0  0  0  0  0  0  0
   -8.8468    3.8786   -7.6150 H   0  0  0  0  0  0  0  0  0  0  0  0
  -10.4060    3.3084   -8.2262 H   0  0  0  0  0  0  0  0  0  0  0  0
   -8.2537    1.4043   -5.8029 H   0  0  0  0  0  0  0  0  0  0  0  0
   -7.0694    2.1565   -6.8808 H   0  0  0  0  0  0  0  0  0  0  0  0
   -7.3946    0.4209   -6.9953 H   0  0  0  0  0  0  0  0  0  0  0  0
  -10.4835    0.6202   -6.6785 H   0  0  0  0  0  0  0  0  0  0  0  0
   -9.6752   -0.3835   -7.8907 H   0  0  0  0  0  0  0  0  0  0  0  0
  -10.9094    0.7811   -8.3885 H   0  0  0  0  0  0  0  0  0  0  0  0
   -7.9663    2.4469  -13.6442 H   0  0  0  0  0  0  0  0  0  0  0  0
   -6.5104   -0.4151  -11.8709 H   0  0  0  0  0  0  0  0  0  0  0  0
  1  2  1  0  0  0  0
  1  3  2  0  0  0  0
  2  4  2  0  0  0  0
  2 29  1  0  0  0  0
  3 33  1  0  0  0  0
  3 39  1  0  0  0  0
  4 39  1  0  0  0  0
  4 40  1  0  0  0  0
  5  8  2  0  0  0  0
  5 11  1  0  0  0  0
  6  9  2  0  0  0  0
  6 12  1  0  0  0  0
  7 10  2  0  0  0  0
  7 16  1  0  0  0  0
  8 13  1  0  0  0  0
  8 30  1  0  0  0  0
  9 14  1  0  0  0  0
  9 31  1  0  0  0  0
 10 15  1  0  0  0  0
 10 32  1  0  0  0  0
 11 34  2  0  0  0  0
 11 36  1  0  0  0  0
 12 35  2  0  0  0  0
 12 37  1  0  0  0  0
 13 33  2  0  0  0  0
 13 34  1  0  0  0  0
 14 35  1  0  0  0  0
 14 36  2  0  0  0  0
 15 37  2  0  0  0  0
 15 38  1  0  0  0  0
 16 38  2  0  0  0  0
 16 40  1  0  0  0  0
 17 29  1  0  0  0  0
 18 29  1  0  0  0  0
 19 29  1  0  0  0  0
 20 30  1  0  0  0  0
 21 30  1  0  0  0  0
 22 30  1  0  0  0  0
 23 31  1  0  0  0  0
 24 31  1  0  0  0  0
 25 31  1  0  0  0  0
 26 32  1  0  0  0  0
 27 32  1  0  0  0  0
 28 32  1  0  0  0  0
  1 41  1  0  0  0  0
  5 42  1  0  0  0  0
  6 43  1  0  0  0  0
  7 44  1  0  0  0  0
 17 45  1  0  0  0  0
 17 46  1  0  0  0  0
 17 47  1  0  0  0  0
 18 48  1  0  0  0  0
 18 49  1  0  0  0  0
 18 50  1  0  0  0  0
 19 51  1  0  0  0  0
 19 52  1  0  0  0  0
 19 53  1  0  0  0  0
 20 54  1  0  0  0  0
 20 55  1  0  0  0  0
 20 56  1  0  0  0  0
 21 57  1  0  0  0  0
 21 58  1  0  0  0  0
 21 59  1  0  0  0  0
 22 60  1  0  0  0  0
 22 61  1  0  0  0  0
 22 62  1  0  0  0  0
 23 63  1  0  0  0  0
 23 64  1  0  0  0  0
 23 65  1  0  0  0  0
 24 66  1  0  0  0  0
 24 67  1  0  0  0  0
 24 68  1  0  0  0  0
 25 69  1  0  0  0  0
 25 70  1  0  0  0  0
 25 71  1  0  0  0  0
 26 72  1  0  0  0  0
 26 73  1  0  0  0  0
 26 74  1  0  0  0  0
 27 75  1  0  0  0  0
 27 76  1  0  0  0  0
 27 77  1  0  0  0  0
 28 78  1  0  0  0  0
 28 79  1  0  0  0  0
 28 80  1  0  0  0  0
 39 81  1  0  0  0  0
 40 82  1  0  0  0  0
M  END
> <id>
EN300-6743643

> <smiles>
CC(C)(C)C1=CC2=NC1=NC=3C=C(C(N3)=NC4=CC(=C(N4)NC=5C=C(C(N5)=N2)C(C)(C)C)C(C)(C)C)C(C)(C)C

> <IUPAC Name>
5,10,15,20-tetra-tert-butyl-2,7,12,17,21,22,23,24-octaazapentacyclo[16.2.1.1^{3,6}.1^{8,11}.1^{13,16}]tetracosa-1,3,5,8(23),9,11,13(22),14,16,18(21),19-undecaene

> <CAS>
64987-70-8

> <Purity>
95

> <URL>
https://www.enaminestore.com/catalog/EN300-6743643

> <MP>
182-183

> <ROCS_ShapeQuery>
_x0404_0B

> <ROCS_TanimotoCombo>
0.408 

> <ROCS_ShapeTanimoto>
0.356 

> <ROCS_ColorTanimoto>
0.053 

> <ROCS_RefTversky>
0.345 

> <ROCS_RefColorTversky>
0.059 

> <ROCS_RefTverskyCombo>
0.404 

> <ROCS_FitTversky>
1.095 

> <ROCS_FitColorTversky>
0.343 

> <ROCS_FitTverskyCombo>
1.439 

> <ROCS_ColorScore>
-4.234

> <ROCS_Overlap>
2317.744

> <ROCS_Rank>
78                  

$$$$
untitled-dbase-27155_28
  -OEChem-08212314543D

 48 51  0     1  0  0  0  0  0999 V2000
   -6.6806    2.9247  -17.9434 C   0  0  0  0  0  0  0  0  0  0  0  0
   -6.3085    1.7100  -17.3746 C   0  0  0  0  0  0  0  0  0  0  0  0
   -7.2879    3.9106  -17.1616 C   0  0  0  0  0  0  0  0  0  0  0  0
   -6.5378    1.4793  -16.0207 C   0  0  0  0  0  0  0  0  0  0  0  0
   -7.5320    3.6949  -15.7960 C   0  0  0  0  0  0  0  0  0  0  0  0
   -7.1299    2.4711  -15.2285 C   0  0  0  0  0  0  0  0  0  0  0  0
   -6.5308    3.1053  -10.7396 C   0  0  0  0  0  0  0  0  0  0  0  0
   -6.5867    2.1422  -11.6724 C   0  0  0  0  0  0  0  0  0  0  0  0
   -8.1683    4.8173  -15.0349 C   0  0  0  0  0  0  0  0  0  0  0  0
   -8.1881    5.1792   -9.3053 C   0  0  0  0  0  0  0  0  0  0  0  0
   -6.8917    2.9165   -9.2933 C   0  0  0  0  0  0  0  0  0  0  0  0
   -6.1973    2.3498  -13.1076 C   0  0  0  0  0  0  0  0  0  0  0  0
   -8.3272    6.6174  -12.5467 C   0  0  0  0  0  0  0  0  0  0  0  0
   -8.5465    6.8962  -11.0700 C   0  0  0  0  0  0  0  0  0  0  0  0
   -9.4632    4.7468  -11.4886 C   0  0  0  0  0  0  0  0  0  0  0  0
   -8.5234    3.4160   -7.3952 C   0  0  0  0  0  0  0  0  0  0  0  0
   -9.5258    2.8170   -9.1055 C   0  0  0  0  0  0  0  0  0  0  0  0
   -9.2556    5.4301  -12.8475 C   0  0  2  0  0  0  0  0  0  0  0  0
   -8.2132    3.6439   -8.9199 C   0  0  0  0  0  0  0  0  0  0  0  0
   -8.6996    4.4847  -13.8053 N   0  0  0  0  0  0  0  0  0  0  0  0
   -9.3672    2.2631   -7.7493 N   0  0  0  0  0  0  0  0  0  0  0  0
   -8.7556    5.5704  -10.5197 N   0  0  0  0  0  0  0  0  0  0  0  0
   -8.1794    5.9489  -15.5121 O   0  0  0  0  0  0  0  0  0  0  0  0
   -7.6309    6.0066   -8.5648 O   0  0  0  0  0  0  0  0  0  0  0  0
   -7.3716    2.1701  -13.9110 O   0  0  0  0  0  0  0  0  0  0  0  0
   -6.4988    3.1093  -18.9994 H   0  0  0  0  0  0  0  0  0  0  0  0
   -5.8517    0.9415  -17.9877 H   0  0  0  0  0  0  0  0  0  0  0  0
   -7.5569    4.8606  -17.6295 H   0  0  0  0  0  0  0  0  0  0  0  0
   -6.2654    0.5120  -15.6114 H   0  0  0  0  0  0  0  0  0  0  0  0
   -6.2219    4.1135  -11.0317 H   0  0  0  0  0  0  0  0  0  0  0  0
   -6.9156    1.1572  -11.4069 H   0  0  0  0  0  0  0  0  0  0  0  0
   -6.9609    1.8346   -9.0991 H   0  0  0  0  0  0  0  0  0  0  0  0
   -6.0805    3.2869   -8.6448 H   0  0  0  0  0  0  0  0  0  0  0  0
   -5.8291    3.3656  -13.2187 H   0  0  0  0  0  0  0  0  0  0  0  0
   -5.4372    1.6223  -13.3699 H   0  0  0  0  0  0  0  0  0  0  0  0
   -8.6459    7.4841  -13.1392 H   0  0  0  0  0  0  0  0  0  0  0  0
   -7.2800    6.4132  -12.7903 H   0  0  0  0  0  0  0  0  0  0  0  0
   -7.6600    7.3206  -10.6055 H   0  0  0  0  0  0  0  0  0  0  0  0
   -9.4034    7.5348  -10.8829 H   0  0  0  0  0  0  0  0  0  0  0  0
  -10.5286    4.7751  -11.2279 H   0  0  0  0  0  0  0  0  0  0  0  0
   -9.1326    3.7054  -11.4761 H   0  0  0  0  0  0  0  0  0  0  0  0
   -7.6683    3.1754   -6.7490 H   0  0  0  0  0  0  0  0  0  0  0  0
   -9.0854    4.2298   -6.9113 H   0  0  0  0  0  0  0  0  0  0  0  0
  -10.4481    3.4065   -9.2008 H   0  0  0  0  0  0  0  0  0  0  0  0
   -9.5202    2.0626   -9.9027 H   0  0  0  0  0  0  0  0  0  0  0  0
  -10.2333    5.7874  -13.2479 H   0  0  0  0  0  0  0  0  0  0  0  0
   -8.7610    3.4840  -13.5549 H   0  0  0  0  0  0  0  0  0  0  0  0
   -8.8668    1.3735   -7.7310 H   0  0  0  0  0  0  0  0  0  0  0  0
  1  2  2  0  0  0  0
  1  3  1  0  0  0  0
  2  4  1  0  0  0  0
  3  5  2  0  0  0  0
  4  6  2  0  0  0  0
  5  6  1  0  0  0  0
  5  9  1  0  0  0  0
  6 25  1  0  0  0  0
  7  8  2  3  0  0  0
  7 11  1  0  0  0  0
  8 12  1  0  0  0  0
  9 20  1  0  0  0  0
  9 23  2  0  0  0  0
 10 19  1  0  0  0  0
 10 22  1  0  0  0  0
 10 24  2  0  0  0  0
 11 19  1  0  0  0  0
 12 25  1  0  0  0  0
 13 14  1  0  0  0  0
 13 18  1  6  0  0  0
 14 22  1  0  0  0  0
 15 18  1  0  0  0  0
 15 22  1  0  0  0  0
 16 19  1  0  0  0  0
 16 21  1  0  0  0  0
 17 19  1  0  0  0  0
 17 21  1  0  0  0  0
 18 20  1  0  0  0  0
  1 26  1  0  0  0  0
  2 27  1  0  0  0  0
  3 28  1  0  0  0  0
  4 29  1  0  0  0  0
  7 30  1  0  0  0  0
  8 31  1  0  0  0  0
 11 32  1  0  0  0  0
 11 33  1  0  0  0  0
 12 34  1  0  0  0  0
 12 35  1  0  0  0  0
 13 36  1  0  0  0  0
 13 37  1  0  0  0  0
 14 38  1  0  0  0  0
 14 39  1  0  0  0  0
 15 40  1  0  0  0  0
 15 41  1  0  0  0  0
 16 42  1  0  0  0  0
 16 43  1  0  0  0  0
 17 44  1  0  0  0  0
 17 45  1  0  0  0  0
 18 46  1  0  0  0  0
 20 47  1  0  0  0  0
 21 48  1  0  0  0  0
M  END
> <id>
EN300-6482326

> <smiles>
OC(=O)C(F)(F)F.O=C1N[C@@H]2CCN(C2)C(=O)C3(CNC3)CC=CCOC=4C=CC=CC14

> <IUPAC Name>
(1'R)-10'-oxa-2',17'-diazaspiro[azetidine-3,15'-tricyclo[15.2.1.0,4,9]icosane]-4'(9'),5',7',12'-tetraene-3',16'-dione; trifluoroacetic acid

> <CAS>
2648861-05-4

> <URL>
https://www.enaminestore.com/catalog/EN300-6482326

> <Saltdate>
OC(=O)C(F)(F)F

> <ROCS_ShapeQuery>
_x0404_0B

> <ROCS_TanimotoCombo>
0.408 

> <ROCS_ShapeTanimoto>
0.276 

> <ROCS_ColorTanimoto>
0.132 

> <ROCS_RefTversky>
0.262 

> <ROCS_RefColorTversky>
0.137 

> <ROCS_RefTverskyCombo>
0.399 

> <ROCS_FitTversky>
1.231 

> <ROCS_FitColorTversky>
0.801 

> <ROCS_FitTverskyCombo>
2.032 

> <ROCS_ColorScore>
-9.877

> <ROCS_Overlap>
1752.587

> <ROCS_Rank>
79                  

$$$$
untitled-dbase-8581_2
  -OEChem-08212314543D

 53 57  0     1  0  0  0  0  0999 V2000
   -6.2791    6.3600  -14.3758 C   0  0  0  0  0  0  0  0  0  0  0  0
   -6.9844    5.5311  -16.5325 C   0  0  0  0  0  0  0  0  0  0  0  0
   -6.4739    6.5670  -13.0664 C   0  0  0  0  0  0  0  0  0  0  0  0
   -7.3146    5.8711  -15.2752 C   0  0  0  0  0  0  0  0  0  0  0  0
   -7.9963    5.0227  -17.4895 C   0  0  0  0  0  0  0  0  0  0  0  0
   -8.6064    3.1600   -7.4510 C   0  0  0  0  0  0  0  0  0  0  0  0
   -9.4227    4.8616  -17.0274 C   0  0  0  0  0  0  0  0  0  0  0  0
   -9.7021    2.4067   -8.1410 C   0  0  0  0  0  0  0  0  0  0  0  0
   -9.5073    4.6676  -15.5190 C   0  0  0  0  0  0  0  0  0  0  0  0
  -10.1134    3.3784   -9.2244 C   0  0  0  0  0  0  0  0  0  0  0  0
  -10.0226    5.0698  -12.5218 C   0  0  0  0  0  0  0  0  0  0  0  0
   -6.8457    4.3822  -10.8645 C   0  0  0  0  0  0  0  0  0  0  0  0
  -10.1531    5.7077  -11.1404 C   0  0  0  0  0  0  0  0  0  0  0  0
   -7.8955    3.3430  -10.4959 C   0  0  0  0  0  0  0  0  0  0  0  0
   -7.7789    6.2807  -12.3690 C   0  0  1  0  0  0  0  0  0  0  0  0
   -8.6649    5.3251  -13.2083 C   0  0  2  0  0  0  0  0  0  0  0  0
   -7.5828    5.7366  -10.9312 C   0  0  1  0  0  0  0  0  0  0  0  0
   -8.7415    5.7551  -14.7177 C   0  0  1  0  0  0  0  0  0  0  0  0
   -8.9439    5.5307  -10.1789 C   0  0  2  0  0  0  0  0  0  0  0  0
   -8.8219    4.1061   -9.5482 C   0  0  1  0  0  0  0  0  0  0  0  0
   -9.4467    7.1224  -14.8867 C   0  0  0  0  0  0  0  0  0  0  0  0
   -9.0943    6.6083   -9.0792 C   0  0  0  0  0  0  0  0  0  0  0  0
   -7.6671    4.7824  -18.6502 O   0  0  0  0  0  0  0  0  0  0  0  0
   -8.1590    2.9091   -6.3431 O   0  0  0  0  0  0  0  0  0  0  0  0
   -8.1526    4.1611   -8.2655 O   0  0  0  0  0  0  0  0  0  0  0  0
   -5.2986    6.5733  -14.7943 H   0  0  0  0  0  0  0  0  0  0  0  0
   -5.9692    5.6171  -16.9072 H   0  0  0  0  0  0  0  0  0  0  0  0
   -5.6565    6.9718  -12.4748 H   0  0  0  0  0  0  0  0  0  0  0  0
   -9.9924    5.7380  -17.3514 H   0  0  0  0  0  0  0  0  0  0  0  0
   -9.8468    3.9811  -17.5226 H   0  0  0  0  0  0  0  0  0  0  0  0
   -9.2969    1.4799   -8.5550 H   0  0  0  0  0  0  0  0  0  0  0  0
  -10.5272    2.1975   -7.4574 H   0  0  0  0  0  0  0  0  0  0  0  0
  -10.5655    4.6479  -15.2368 H   0  0  0  0  0  0  0  0  0  0  0  0
   -9.0984    3.6780  -15.2743 H   0  0  0  0  0  0  0  0  0  0  0  0
  -10.5724    2.8798  -10.0847 H   0  0  0  0  0  0  0  0  0  0  0  0
  -10.8570    4.0706   -8.8093 H   0  0  0  0  0  0  0  0  0  0  0  0
  -10.1909    3.9809  -12.4033 H   0  0  0  0  0  0  0  0  0  0  0  0
  -10.8520    5.4152  -13.1724 H   0  0  0  0  0  0  0  0  0  0  0  0
   -6.0530    4.4227  -10.1099 H   0  0  0  0  0  0  0  0  0  0  0  0
   -6.3697    4.1111  -11.8103 H   0  0  0  0  0  0  0  0  0  0  0  0
  -10.3681    6.7881  -11.2685 H   0  0  0  0  0  0  0  0  0  0  0  0
  -11.0725    5.3022  -10.6726 H   0  0  0  0  0  0  0  0  0  0  0  0
   -8.4172    3.0233  -11.3948 H   0  0  0  0  0  0  0  0  0  0  0  0
   -7.4306    2.4784  -10.0308 H   0  0  0  0  0  0  0  0  0  0  0  0
   -8.2913    7.2368  -12.2659 H   0  0  0  0  0  0  0  0  0  0  0  0
   -8.1524    4.3278  -13.2254 H   0  0  0  0  0  0  0  0  0  0  0  0
   -6.9820    6.4613  -10.3863 H   0  0  0  0  0  0  0  0  0  0  0  0
  -10.4530    7.0471  -14.4956 H   0  0  0  0  0  0  0  0  0  0  0  0
   -9.4745    7.3734  -15.9390 H   0  0  0  0  0  0  0  0  0  0  0  0
   -8.8902    7.8724  -14.3398 H   0  0  0  0  0  0  0  0  0  0  0  0
   -8.2683    6.5218   -8.3827 H   0  0  0  0  0  0  0  0  0  0  0  0
  -10.0323    6.4548   -8.5584 H   0  0  0  0  0  0  0  0  0  0  0  0
   -9.0855    7.5892   -9.5406 H   0  0  0  0  0  0  0  0  0  0  0  0
  1  3  2  0  0  0  0
  1  4  1  0  0  0  0
  2  4  2  0  0  0  0
  2  5  1  0  0  0  0
  3 15  1  0  0  0  0
  4 18  1  0  0  0  0
  5  7  1  0  0  0  0
  5 23  2  0  0  0  0
  6  8  1  0  0  0  0
  6 24  2  0  0  0  0
  6 25  1  0  0  0  0
  7  9  1  0  0  0  0
  8 10  1  0  0  0  0
  9 18  1  0  0  0  0
 10 20  1  0  0  0  0
 11 13  1  0  0  0  0
 11 16  1  0  0  0  0
 12 14  1  0  0  0  0
 12 17  1  0  0  0  0
 13 19  1  0  0  0  0
 14 20  1  0  0  0  0
 15 16  1  0  0  0  0
 15 17  1  0  0  0  0
 16 18  1  0  0  0  0
 17 19  1  0  0  0  0
 18 21  1  0  0  0  0
 19 20  1  0  0  0  0
 19 22  1  0  0  0  0
 20 25  1  0  0  0  0
  1 26  1  0  0  0  0
  2 27  1  0  0  0  0
  3 28  1  0  0  0  0
  7 29  1  0  0  0  0
  7 30  1  0  0  0  0
  8 31  1  0  0  0  0
  8 32  1  0  0  0  0
  9 33  1  0  0  0  0
  9 34  1  0  0  0  0
 10 35  1  0  0  0  0
 10 36  1  0  0  0  0
 11 37  1  0  0  0  0
 11 38  1  0  0  0  0
 12 39  1  0  0  0  0
 12 40  1  0  0  0  0
 13 41  1  0  0  0  0
 13 42  1  0  0  0  0
 14 43  1  0  0  0  0
 14 44  1  0  0  0  0
 15 45  1  0  0  0  0
 16 46  1  0  0  0  0
 17 47  1  0  0  0  0
 21 48  1  0  0  0  0
 21 49  1  0  0  0  0
 21 50  1  0  0  0  0
 22 51  1  0  0  0  0
 22 52  1  0  0  0  0
 22 53  1  0  0  0  0
M  END
> <id>
EN300-296109

> <smiles>
CC12CCC3C(C=CC4=CC(=O)CCC34C)C2CCC51CCC(=O)O5

> <IUPAC Name>
9a,11a-dimethyl-2,3,3a,3b,7,8,9,9a,9b,10,11,11a-dodecahydrospiro[cyclopenta[a]phenanthrene-1,2'-oxolane]-5',7-dione

> <URL>
https://www.enaminestore.com/catalog/EN300-296109

> <ROCS_ShapeQuery>
_x0404_0B

> <ROCS_TanimotoCombo>
0.408 

> <ROCS_ShapeTanimoto>
0.354 

> <ROCS_ColorTanimoto>
0.054 

> <ROCS_RefTversky>
0.317 

> <ROCS_RefColorTversky>
0.058 

> <ROCS_RefTverskyCombo>
0.376 

> <ROCS_FitTversky>
1.482 

> <ROCS_FitColorTversky>
0.403 

> <ROCS_FitTverskyCombo>
1.885 

> <ROCS_ColorScore>
-4.217

> <ROCS_Overlap>
2121.529

> <ROCS_Rank>
80                  

$$$$
untitled-dbase-34269_96
  -OEChem-08212314543D

 51 53  0     1  0  0  0  0  0999 V2000
   -8.8665    2.7468   -9.3525 C   0  0  0  0  0  0  0  0  0  0  0  0
   -9.1299    2.2427   -8.0957 C   0  0  0  0  0  0  0  0  0  0  0  0
   -8.9069    4.1593   -9.2304 C   0  0  0  0  0  0  0  0  0  0  0  0
   -9.2008    4.3937   -7.9063 C   0  0  0  0  0  0  0  0  0  0  0  0
   -8.1712    5.7710  -14.5560 C   0  0  0  0  0  0  0  0  0  0  0  0
   -9.3434    5.7070   -7.2540 C   0  0  0  0  0  0  0  0  0  0  0  0
   -7.4283    5.0603  -11.0657 C   0  0  0  0  0  0  0  0  0  0  0  0
   -9.9564    5.3460  -11.1785 C   0  0  0  0  0  0  0  0  0  0  0  0
   -9.4796    6.7693   -8.3618 C   0  0  0  0  0  0  0  0  0  0  0  0
   -7.7143    4.4820  -12.4482 C   0  0  0  0  0  0  0  0  0  0  0  0
   -8.7218    5.2768  -10.2360 C   0  0  1  0  0  0  0  0  0  0  0  0
   -9.7199    6.0199  -12.5640 C   0  0  0  0  0  0  0  0  0  0  0  0
   -9.5339    7.5392  -12.3878 C   0  0  0  0  0  0  0  0  0  0  0  0
  -10.9991    5.7668  -13.3947 C   0  0  0  0  0  0  0  0  0  0  0  0
   -7.2003    6.0169  -17.2405 C   0  0  0  0  0  0  0  0  0  0  0  0
   -6.8775    3.5274  -17.1550 C   0  0  0  0  0  0  0  0  0  0  0  0
   -9.1822    4.4984  -16.9231 C   0  0  0  0  0  0  0  0  0  0  0  0
   -7.6964    4.7058  -16.6326 C   0  0  0  0  0  0  0  0  0  0  0  0
   -8.5336    6.5542   -9.4767 N   0  0  0  0  0  0  0  0  0  0  0  0
   -8.5251    5.4227  -13.2388 N   0  0  0  0  0  0  0  0  0  0  0  0
   -8.4180    6.8514  -15.0875 O   0  0  0  0  0  0  0  0  0  0  0  0
   -9.3346    3.2494   -7.2010 O   0  0  0  0  0  0  0  0  0  0  0  0
   -7.5130    4.7633  -15.2131 O   0  0  0  0  0  0  0  0  0  0  0  0
   -8.6734    2.1642  -10.2418 H   0  0  0  0  0  0  0  0  0  0  0  0
   -9.2055    1.2425   -7.6945 H   0  0  0  0  0  0  0  0  0  0  0  0
  -10.2178    5.7318   -6.5958 H   0  0  0  0  0  0  0  0  0  0  0  0
   -8.4527    5.9094   -6.6482 H   0  0  0  0  0  0  0  0  0  0  0  0
   -6.7510    4.3806  -10.5376 H   0  0  0  0  0  0  0  0  0  0  0  0
   -6.8876    6.0062  -11.1758 H   0  0  0  0  0  0  0  0  0  0  0  0
  -10.2818    4.3139  -11.3498 H   0  0  0  0  0  0  0  0  0  0  0  0
  -10.7926    5.8286  -10.6684 H   0  0  0  0  0  0  0  0  0  0  0  0
  -10.5079    6.7948   -8.7415 H   0  0  0  0  0  0  0  0  0  0  0  0
   -9.2890    7.7561   -7.9238 H   0  0  0  0  0  0  0  0  0  0  0  0
   -6.8065    4.2976  -12.9950 H   0  0  0  0  0  0  0  0  0  0  0  0
   -8.2388    3.5528  -12.3149 H   0  0  0  0  0  0  0  0  0  0  0  0
   -9.3708    7.9914  -13.3593 H   0  0  0  0  0  0  0  0  0  0  0  0
   -8.6768    7.7197  -11.7494 H   0  0  0  0  0  0  0  0  0  0  0  0
  -10.4257    7.9551  -11.9333 H   0  0  0  0  0  0  0  0  0  0  0  0
  -10.8686    6.2221  -14.3639 H   0  0  0  0  0  0  0  0  0  0  0  0
  -11.8332    6.2114  -12.8750 H   0  0  0  0  0  0  0  0  0  0  0  0
  -11.1348    4.7009  -13.4904 H   0  0  0  0  0  0  0  0  0  0  0  0
   -7.7856    6.8652  -16.8680 H   0  0  0  0  0  0  0  0  0  0  0  0
   -6.1448    6.1946  -17.0097 H   0  0  0  0  0  0  0  0  0  0  0  0
   -7.3204    6.0130  -18.3299 H   0  0  0  0  0  0  0  0  0  0  0  0
   -7.2300    2.5846  -16.7214 H   0  0  0  0  0  0  0  0  0  0  0  0
   -5.8247    3.6253  -16.8663 H   0  0  0  0  0  0  0  0  0  0  0  0
   -6.9321    3.4493  -18.2456 H   0  0  0  0  0  0  0  0  0  0  0  0
   -9.5383    3.5580  -16.4872 H   0  0  0  0  0  0  0  0  0  0  0  0
   -9.7895    5.3167  -16.5228 H   0  0  0  0  0  0  0  0  0  0  0  0
   -9.3620    4.4268  -18.0019 H   0  0  0  0  0  0  0  0  0  0  0  0
   -8.5373    7.3557  -10.0981 H   0  0  0  0  0  0  0  0  0  0  0  0
  1  2  2  0  0  0  0
  1  3  1  0  0  0  0
  2 22  1  0  0  0  0
  3  4  2  0  0  0  0
  3 11  1  0  0  0  0
  4  6  1  0  0  0  0
  4 22  1  0  0  0  0
  5 20  1  0  0  0  0
  5 21  2  0  0  0  0
  5 23  1  0  0  0  0
  6  9  1  0  0  0  0
  7 10  1  0  0  0  0
  7 11  1  0  0  0  0
  8 11  1  0  0  0  0
  8 12  1  0  0  0  0
  9 19  1  0  0  0  0
 10 20  1  0  0  0  0
 11 19  1  0  0  0  0
 12 13  1  0  0  0  0
 12 14  1  0  0  0  0
 12 20  1  0  0  0  0
 15 18  1  0  0  0  0
 16 18  1  0  0  0  0
 17 18  1  0  0  0  0
 18 23  1  0  0  0  0
  1 24  1  0  0  0  0
  2 25  1  0  0  0  0
  6 26  1  0  0  0  0
  6 27  1  0  0  0  0
  7 28  1  0  0  0  0
  7 29  1  0  0  0  0
  8 30  1  0  0  0  0
  8 31  1  0  0  0  0
  9 32  1  0  0  0  0
  9 33  1  0  0  0  0
 10 34  1  0  0  0  0
 10 35  1  0  0  0  0
 13 36  1  0  0  0  0
 13 37  1  0  0  0  0
 13 38  1  0  0  0  0
 14 39  1  0  0  0  0
 14 40  1  0  0  0  0
 14 41  1  0  0  0  0
 15 42  1  0  0  0  0
 15 43  1  0  0  0  0
 15 44  1  0  0  0  0
 16 45  1  0  0  0  0
 16 46  1  0  0  0  0
 16 47  1  0  0  0  0
 17 48  1  0  0  0  0
 17 49  1  0  0  0  0
 17 50  1  0  0  0  0
 19 51  1  0  0  0  0
M  END
> <id>
EN300-1076416

> <smiles>
CC(C)(C)OC(=O)N1CCC2(CC1(C)C)NCCC=3OC=CC32

> <IUPAC Name>
tert-butyl 2',2'-dimethyl-6,7-dihydro-5H-spiro[furo[3,2-c]pyridine-4,4'-piperidine]-1'-carboxylate

> <CAS>
1997148-03-4

> <URL>
https://www.enaminestore.com/catalog/EN300-1076416

> <ROCS_ShapeQuery>
_x0404_0B

> <ROCS_TanimotoCombo>
0.407 

> <ROCS_ShapeTanimoto>
0.335 

> <ROCS_ColorTanimoto>
0.072 

> <ROCS_RefTversky>
0.301 

> <ROCS_RefColorTversky>
0.079 

> <ROCS_RefTverskyCombo>
0.380 

> <ROCS_FitTversky>
1.510 

> <ROCS_FitColorTversky>
0.461 

> <ROCS_FitTverskyCombo>
1.971 

> <ROCS_ColorScore>
-5.693

> <ROCS_Overlap>
2011.238

> <ROCS_Rank>
81                  

$$$$
untitled-dbase-51434_54
  -OEChem-08212314543D

 44 46  0     0  0  0  0  0  0999 V2000
   -9.0949    3.9440   -6.8302 C   0  0  0  0  0  0  0  0  0  0  0  0
   -9.1218    2.5592   -7.0001 C   0  0  0  0  0  0  0  0  0  0  0  0
   -8.9965    2.8029   -9.4237 C   0  0  0  0  0  0  0  0  0  0  0  0
   -8.9672    4.1766   -9.2511 C   0  0  0  0  0  0  0  0  0  0  0  0
   -9.0189    4.7206   -7.9696 C   0  0  0  0  0  0  0  0  0  0  0  0
   -9.0734    1.9929   -8.2862 C   0  0  0  0  0  0  0  0  0  0  0  0
   -8.9105    6.5482   -9.3641 C   0  0  0  0  0  0  0  0  0  0  0  0
   -8.7713    5.7859  -14.6037 C   0  0  0  0  0  0  0  0  0  0  0  0
   -7.5575    5.2376  -11.0475 C   0  0  0  0  0  0  0  0  0  0  0  0
  -10.1239    5.3045  -11.2039 C   0  0  0  0  0  0  0  0  0  0  0  0
   -7.6273    5.9803  -12.3794 C   0  0  0  0  0  0  0  0  0  0  0  0
   -9.8082    4.7664  -12.5965 C   0  0  0  0  0  0  0  0  0  0  0  0
   -8.8917    5.2876  -10.2775 C   0  0  0  0  0  0  0  0  0  0  0  0
   -8.0895    5.0749  -17.2897 C   0  0  0  0  0  0  0  0  0  0  0  0
  -10.2505    3.7945  -17.3039 C   0  0  0  0  0  0  0  0  0  0  0  0
  -10.2754    6.2867  -16.9925 C   0  0  0  0  0  0  0  0  0  0  0  0
   -9.5060    4.9944  -16.7223 C   0  0  0  0  0  0  0  0  0  0  0  0
   -8.9850    6.1066   -8.0405 N   0  0  0  0  0  0  0  0  0  0  0  0
   -8.7267    5.5182  -13.2314 N   0  0  0  0  0  0  0  0  0  0  0  0
   -8.8628    7.7089   -9.7446 O   0  0  0  0  0  0  0  0  0  0  0  0
   -8.2839    6.7829  -15.1329 O   0  0  0  0  0  0  0  0  0  0  0  0
   -9.4193    4.8031  -15.3057 O   0  0  0  0  0  0  0  0  0  0  0  0
   -9.1017    0.6599   -8.4219 F   0  0  0  0  0  0  0  0  0  0  0  0
   -9.1326    4.3837   -5.8402 H   0  0  0  0  0  0  0  0  0  0  0  0
   -9.1809    1.9099   -6.1307 H   0  0  0  0  0  0  0  0  0  0  0  0
   -8.9609    2.3574  -10.4116 H   0  0  0  0  0  0  0  0  0  0  0  0
   -7.2835    4.1974  -11.2533 H   0  0  0  0  0  0  0  0  0  0  0  0
   -6.7487    5.6623  -10.4447 H   0  0  0  0  0  0  0  0  0  0  0  0
  -10.5221    6.3193  -11.2951 H   0  0  0  0  0  0  0  0  0  0  0  0
  -10.9212    4.6892  -10.7754 H   0  0  0  0  0  0  0  0  0  0  0  0
   -7.7740    7.0613  -12.2204 H   0  0  0  0  0  0  0  0  0  0  0  0
   -6.6651    5.8792  -12.9073 H   0  0  0  0  0  0  0  0  0  0  0  0
   -9.5666    3.6988  -12.5264 H   0  0  0  0  0  0  0  0  0  0  0  0
  -10.6856    4.8429  -13.2534 H   0  0  0  0  0  0  0  0  0  0  0  0
   -7.5518    5.9349  -16.8746 H   0  0  0  0  0  0  0  0  0  0  0  0
   -7.5158    4.1681  -17.0722 H   0  0  0  0  0  0  0  0  0  0  0  0
   -8.1110    5.2187  -18.3760 H   0  0  0  0  0  0  0  0  0  0  0  0
  -11.2673    3.7329  -16.8996 H   0  0  0  0  0  0  0  0  0  0  0  0
   -9.7526    2.8569  -17.0315 H   0  0  0  0  0  0  0  0  0  0  0  0
  -10.3141    3.8489  -18.3955 H   0  0  0  0  0  0  0  0  0  0  0  0
  -11.2915    6.2292  -16.5857 H   0  0  0  0  0  0  0  0  0  0  0  0
   -9.7747    7.1541  -16.5504 H   0  0  0  0  0  0  0  0  0  0  0  0
  -10.3829    6.4582  -18.0697 H   0  0  0  0  0  0  0  0  0  0  0  0
   -9.0116    6.7106   -7.2282 H   0  0  0  0  0  0  0  0  0  0  0  0
  1  2  1  0  0  0  0
  1  5  2  0  0  0  0
  2  6  2  0  0  0  0
  3  4  2  0  0  0  0
  3  6  1  0  0  0  0
  4  5  1  0  0  0  0
  4 13  1  0  0  0  0
  5 18  1  0  0  0  0
  6 23  1  0  0  0  0
  7 13  1  0  0  0  0
  7 18  1  0  0  0  0
  7 20  2  0  0  0  0
  8 19  1  0  0  0  0
  8 21  2  0  0  0  0
  8 22  1  0  0  0  0
  9 11  1  0  0  0  0
  9 13  1  0  0  0  0
 10 12  1  0  0  0  0
 10 13  1  0  0  0  0
 11 19  1  0  0  0  0
 12 19  1  0  0  0  0
 14 17  1  0  0  0  0
 15 17  1  0  0  0  0
 16 17  1  0  0  0  0
 17 22  1  0  0  0  0
  1 24  1  0  0  0  0
  2 25  1  0  0  0  0
  3 26  1  0  0  0  0
  9 27  1  0  0  0  0
  9 28  1  0  0  0  0
 10 29  1  0  0  0  0
 10 30  1  0  0  0  0
 11 31  1  0  0  0  0
 11 32  1  0  0  0  0
 12 33  1  0  0  0  0
 12 34  1  0  0  0  0
 14 35  1  0  0  0  0
 14 36  1  0  0  0  0
 14 37  1  0  0  0  0
 15 38  1  0  0  0  0
 15 39  1  0  0  0  0
 15 40  1  0  0  0  0
 16 41  1  0  0  0  0
 16 42  1  0  0  0  0
 16 43  1  0  0  0  0
 18 44  1  0  0  0  0
M  END
> <id>
EN300-7366372

> <smiles>
CC(C)(C)OC(=O)N1CCC2(CC1)C(=O)NC=3C=CC(F)=CC32

> <MDLNUMBER>
MFCD10566054

> <IUPAC Name>
tert-butyl 5-fluoro-2-oxo-1,2-dihydrospiro[indole-3,4'-piperidine]-1'-carboxylate

> <CAS>
866028-06-0

> <Purity>
95

> <URL>
https://www.enaminestore.com/catalog/EN300-7366372

> <ROCS_ShapeQuery>
_x0404_0B

> <ROCS_TanimotoCombo>
0.407 

> <ROCS_ShapeTanimoto>
0.331 

> <ROCS_ColorTanimoto>
0.076 

> <ROCS_RefTversky>
0.299 

> <ROCS_RefColorTversky>
0.081 

> <ROCS_RefTverskyCombo>
0.380 

> <ROCS_FitTversky>
1.482 

> <ROCS_FitColorTversky>
0.560 

> <ROCS_FitTverskyCombo>
2.042 

> <ROCS_ColorScore>
-5.852

> <ROCS_Overlap>
1993.513

> <ROCS_Rank>
82                  

$$$$
untitled-dbase-34249_140
  -OEChem-08212314543D

 46 48  0     1  0  0  0  0  0999 V2000
   -8.3821    5.8818  -14.5958 C   0  0  0  0  0  0  0  0  0  0  0  0
   -7.8556    5.7003  -10.8668 C   0  0  0  0  0  0  0  0  0  0  0  0
  -10.0332    4.5552  -11.5564 C   0  0  0  0  0  0  0  0  0  0  0  0
   -8.0930    6.4635  -12.1664 C   0  0  0  0  0  0  0  0  0  0  0  0
   -9.2492    4.3551  -12.8481 C   0  0  0  0  0  0  0  0  0  0  0  0
   -9.8904    5.7983   -9.3404 C   0  0  0  0  0  0  0  0  0  0  0  0
   -9.7735    2.7630   -9.0711 C   0  0  0  0  0  0  0  0  0  0  0  0
   -8.6145    3.3355   -7.1312 C   0  0  0  0  0  0  0  0  0  0  0  0
   -8.6957    3.7640   -9.4786 C   0  0  2  0  0  0  0  0  0  0  0  0
   -8.3468    4.4187   -8.1581 C   0  0  1  0  0  0  0  0  0  0  0  0
   -9.1254    4.9433  -10.3695 C   0  0  0  0  0  0  0  0  0  0  0  0
   -6.7835    5.7937  -16.9668 C   0  0  0  0  0  0  0  0  0  0  0  0
   -7.9296    3.6086  -17.4367 C   0  0  0  0  0  0  0  0  0  0  0  0
   -9.2751    5.7259  -17.3158 C   0  0  0  0  0  0  0  0  0  0  0  0
   -8.0599    4.9768  -16.7710 C   0  0  0  0  0  0  0  0  0  0  0  0
   -9.2163    5.6003   -8.0468 N   0  0  0  0  0  0  0  0  0  0  0  0
   -8.5556    5.5810  -13.2414 N   0  0  0  0  0  0  0  0  0  0  0  0
   -8.3434    7.0227  -15.0525 O   0  0  0  0  0  0  0  0  0  0  0  0
   -9.5048    2.3800   -7.7179 O   0  0  0  0  0  0  0  0  0  0  0  0
   -8.2502    4.7579  -15.3685 O   0  0  0  0  0  0  0  0  0  0  0  0
   -7.0546    4.9717  -11.0393 H   0  0  0  0  0  0  0  0  0  0  0  0
   -7.4809    6.3950  -10.1101 H   0  0  0  0  0  0  0  0  0  0  0  0
  -10.7965    5.3202  -11.7322 H   0  0  0  0  0  0  0  0  0  0  0  0
  -10.5678    3.6280  -11.3149 H   0  0  0  0  0  0  0  0  0  0  0  0
   -8.8604    7.2376  -12.0334 H   0  0  0  0  0  0  0  0  0  0  0  0
   -7.1716    6.9847  -12.4515 H   0  0  0  0  0  0  0  0  0  0  0  0
   -8.5364    3.5340  -12.7237 H   0  0  0  0  0  0  0  0  0  0  0  0
   -9.9181    4.0817  -13.6717 H   0  0  0  0  0  0  0  0  0  0  0  0
   -9.9224    6.8679   -9.5957 H   0  0  0  0  0  0  0  0  0  0  0  0
  -10.9392    5.4729   -9.2450 H   0  0  0  0  0  0  0  0  0  0  0  0
  -10.7932    3.1805   -9.0996 H   0  0  0  0  0  0  0  0  0  0  0  0
   -9.7678    1.8663   -9.7108 H   0  0  0  0  0  0  0  0  0  0  0  0
   -7.6935    2.8198   -6.8229 H   0  0  0  0  0  0  0  0  0  0  0  0
   -9.0881    3.7280   -6.2178 H   0  0  0  0  0  0  0  0  0  0  0  0
   -7.8365    3.2286   -9.8812 H   0  0  0  0  0  0  0  0  0  0  0  0
   -7.3094    4.7305   -8.1285 H   0  0  0  0  0  0  0  0  0  0  0  0
   -6.8730    6.7766  -16.4904 H   0  0  0  0  0  0  0  0  0  0  0  0
   -5.9097    5.2831  -16.5490 H   0  0  0  0  0  0  0  0  0  0  0  0
   -6.5988    5.9815  -18.0307 H   0  0  0  0  0  0  0  0  0  0  0  0
   -8.8432    3.0190  -17.2987 H   0  0  0  0  0  0  0  0  0  0  0  0
   -7.1172    3.0295  -16.9829 H   0  0  0  0  0  0  0  0  0  0  0  0
   -7.7338    3.6985  -18.5100 H   0  0  0  0  0  0  0  0  0  0  0  0
  -10.1908    5.1401  -17.1755 H   0  0  0  0  0  0  0  0  0  0  0  0
   -9.4058    6.6948  -16.8231 H   0  0  0  0  0  0  0  0  0  0  0  0
   -9.1779    5.8940  -18.3945 H   0  0  0  0  0  0  0  0  0  0  0  0
   -8.6310    6.4159   -7.8604 H   0  0  0  0  0  0  0  0  0  0  0  0
  1 17  1  0  0  0  0
  1 18  2  0  0  0  0
  1 20  1  0  0  0  0
  2  4  1  0  0  0  0
  2 11  1  0  0  0  0
  3  5  1  0  0  0  0
  3 11  1  0  0  0  0
  4 17  1  0  0  0  0
  5 17  1  0  0  0  0
  6 11  1  0  0  0  0
  6 16  1  0  0  0  0
  7  9  1  0  0  0  0
  7 19  1  0  0  0  0
  8 10  1  0  0  0  0
  8 19  1  0  0  0  0
  9 10  1  0  0  0  0
  9 11  1  0  0  0  0
 10 16  1  0  0  0  0
 12 15  1  0  0  0  0
 13 15  1  0  0  0  0
 14 15  1  0  0  0  0
 15 20  1  0  0  0  0
  2 21  1  0  0  0  0
  2 22  1  0  0  0  0
  3 23  1  0  0  0  0
  3 24  1  0  0  0  0
  4 25  1  0  0  0  0
  4 26  1  0  0  0  0
  5 27  1  0  0  0  0
  5 28  1  0  0  0  0
  6 29  1  0  0  0  0
  6 30  1  0  0  0  0
  7 31  1  0  0  0  0
  7 32  1  0  0  0  0
  8 33  1  0  0  0  0
  8 34  1  0  0  0  0
  9 35  1  0  0  0  0
 10 36  1  0  0  0  0
 12 37  1  0  0  0  0
 12 38  1  0  0  0  0
 12 39  1  0  0  0  0
 13 40  1  0  0  0  0
 13 41  1  0  0  0  0
 13 42  1  0  0  0  0
 14 43  1  0  0  0  0
 14 44  1  0  0  0  0
 14 45  1  0  0  0  0
 16 46  1  0  0  0  0
M  END
> <id>
EN300-249882

> <smiles>
CC(C)(C)OC(=O)N1CCC2(CNC3COCC32)CC1

> <MDLNUMBER>
MFCD30180332

> <IUPAC Name>
tert-butyl hexahydrospiro[furo[3,4-b]pyrrole-3,4'-piperidine]-1'-carboxylate

> <CAS>
1935013-51-6

> <URL>
https://www.enaminestore.com/catalog/EN300-249882

> <ROCS_ShapeQuery>
_x0404_0B

> <ROCS_TanimotoCombo>
0.407 

> <ROCS_ShapeTanimoto>
0.327 

> <ROCS_ColorTanimoto>
0.079 

> <ROCS_RefTversky>
0.291 

> <ROCS_RefColorTversky>
0.085 

> <ROCS_RefTverskyCombo>
0.376 

> <ROCS_FitTversky>
1.620 

> <ROCS_FitColorTversky>
0.537 

> <ROCS_FitTverskyCombo>
2.158 

> <ROCS_ColorScore>
-6.158

> <ROCS_Overlap>
1938.732

> <ROCS_Rank>
83                  

$$$$
untitled-dbase-38790_49
  -OEChem-08212314543D

 45 47  0     0  0  0  0  0  0999 V2000
   -8.8408    2.8682   -9.4098 C   0  0  0  0  0  0  0  0  0  0  0  0
   -8.7459    2.0184   -8.3017 C   0  0  0  0  0  0  0  0  0  0  0  0
   -9.0832    3.8826   -6.7837 C   0  0  0  0  0  0  0  0  0  0  0  0
   -9.1760    4.6959   -7.8992 C   0  0  0  0  0  0  0  0  0  0  0  0
   -9.0589    4.2246   -9.2032 C   0  0  0  0  0  0  0  0  0  0  0  0
   -8.8644    2.5232   -6.9975 C   0  0  0  0  0  0  0  0  0  0  0  0
   -9.4282    6.1244   -7.9454 C   0  0  0  0  0  0  0  0  0  0  0  0
   -8.5053    5.7153  -14.5493 C   0  0  0  0  0  0  0  0  0  0  0  0
   -9.6068    6.5514   -9.3803 C   0  0  0  0  0  0  0  0  0  0  0  0
  -10.2012    5.0317  -11.3403 C   0  0  0  0  0  0  0  0  0  0  0  0
   -7.7467    5.5792  -10.8466 C   0  0  0  0  0  0  0  0  0  0  0  0
   -9.5678    4.5401  -12.6403 C   0  0  0  0  0  0  0  0  0  0  0  0
   -7.8276    6.2842  -12.1972 C   0  0  0  0  0  0  0  0  0  0  0  0
   -9.1511    5.3285  -10.2407 C   0  0  0  0  0  0  0  0  0  0  0  0
   -7.2524    5.0896  -17.0440 C   0  0  0  0  0  0  0  0  0  0  0  0
   -9.0172    3.3172  -17.2753 C   0  0  0  0  0  0  0  0  0  0  0  0
   -9.6817    5.7368  -17.1638 C   0  0  0  0  0  0  0  0  0  0  0  0
   -8.6816    4.6853  -16.6853 C   0  0  0  0  0  0  0  0  0  0  0  0
   -8.6180    5.5208  -13.1693 N   0  0  0  0  0  0  0  0  0  0  0  0
   -9.5203    6.8383   -6.9638 O   0  0  0  0  0  0  0  0  0  0  0  0
   -8.1896    6.7802  -15.0764 O   0  0  0  0  0  0  0  0  0  0  0  0
   -8.7806    4.5768  -15.2607 O   0  0  0  0  0  0  0  0  0  0  0  0
   -8.7264    1.3484   -5.5218 Br  0  0  0  0  0  0  0  0  0  0  0  0
   -8.7440    2.4616  -10.4113 H   0  0  0  0  0  0  0  0  0  0  0  0
   -8.5779    0.9570   -8.4699 H   0  0  0  0  0  0  0  0  0  0  0  0
   -9.1777    4.2932   -5.7844 H   0  0  0  0  0  0  0  0  0  0  0  0
  -10.6597    6.8023   -9.5369 H   0  0  0  0  0  0  0  0  0  0  0  0
   -8.9897    7.4373   -9.5552 H   0  0  0  0  0  0  0  0  0  0  0  0
  -10.8054    5.9267  -11.5435 H   0  0  0  0  0  0  0  0  0  0  0  0
  -10.9073    4.2655  -10.9896 H   0  0  0  0  0  0  0  0  0  0  0  0
   -7.2203    4.6270  -10.9837 H   0  0  0  0  0  0  0  0  0  0  0  0
   -7.1337    6.1725  -10.1588 H   0  0  0  0  0  0  0  0  0  0  0  0
   -9.0853    3.5723  -12.4645 H   0  0  0  0  0  0  0  0  0  0  0  0
  -10.3298    4.3772  -13.4135 H   0  0  0  0  0  0  0  0  0  0  0  0
   -8.3000    7.2733  -12.1023 H   0  0  0  0  0  0  0  0  0  0  0  0
   -6.8132    6.4585  -12.5837 H   0  0  0  0  0  0  0  0  0  0  0  0
   -7.0077    6.0711  -16.6223 H   0  0  0  0  0  0  0  0  0  0  0  0
   -6.5227    4.3612  -16.6758 H   0  0  0  0  0  0  0  0  0  0  0  0
   -7.1327    5.1810  -18.1296 H   0  0  0  0  0  0  0  0  0  0  0  0
  -10.0418    3.0231  -17.0204 H   0  0  0  0  0  0  0  0  0  0  0  0
   -8.3617    2.5423  -16.8616 H   0  0  0  0  0  0  0  0  0  0  0  0
   -8.9159    3.3115  -18.3653 H   0  0  0  0  0  0  0  0  0  0  0  0
  -10.7069    5.4470  -16.9066 H   0  0  0  0  0  0  0  0  0  0  0  0
   -9.4785    6.7174  -16.7214 H   0  0  0  0  0  0  0  0  0  0  0  0
   -9.6525    5.8342  -18.2551 H   0  0  0  0  0  0  0  0  0  0  0  0
  1  2  1  0  0  0  0
  1  5  2  0  0  0  0
  2  6  2  0  0  0  0
  3  4  2  0  0  0  0
  3  6  1  0  0  0  0
  4  5  1  0  0  0  0
  4  7  1  0  0  0  0
  5 14  1  0  0  0  0
  6 23  1  0  0  0  0
  7  9  1  0  0  0  0
  7 20  2  0  0  0  0
  8 19  1  0  0  0  0
  8 21  2  0  0  0  0
  8 22  1  0  0  0  0
  9 14  1  0  0  0  0
 10 12  1  0  0  0  0
 10 14  1  0  0  0  0
 11 13  1  0  0  0  0
 11 14  1  0  0  0  0
 12 19  1  0  0  0  0
 13 19  1  0  0  0  0
 15 18  1  0  0  0  0
 16 18  1  0  0  0  0
 17 18  1  0  0  0  0
 18 22  1  0  0  0  0
  1 24  1  0  0  0  0
  2 25  1  0  0  0  0
  3 26  1  0  0  0  0
  9 27  1  0  0  0  0
  9 28  1  0  0  0  0
 10 29  1  0  0  0  0
 10 30  1  0  0  0  0
 11 31  1  0  0  0  0
 11 32  1  0  0  0  0
 12 33  1  0  0  0  0
 12 34  1  0  0  0  0
 13 35  1  0  0  0  0
 13 36  1  0  0  0  0
 15 37  1  0  0  0  0
 15 38  1  0  0  0  0
 15 39  1  0  0  0  0
 16 40  1  0  0  0  0
 16 41  1  0  0  0  0
 16 42  1  0  0  0  0
 17 43  1  0  0  0  0
 17 44  1  0  0  0  0
 17 45  1  0  0  0  0
M  END
> <id>
EN300-269018

> <smiles>
CC(C)(C)OC(=O)N1CCC2(CC(=O)C=3C=C(Br)C=CC32)CC1

> <MDLNUMBER>
MFCD12198586

> <IUPAC Name>
tert-butyl 5-bromo-3-oxo-2,3-dihydrospiro[indene-1,4'-piperidine]-1'-carboxylate

> <CAS>
1160247-30-2

> <Purity>
95

> <URL>
https://www.enaminestore.com/catalog/EN300-269018

> <ROCS_ShapeQuery>
_x0404_0B

> <ROCS_TanimotoCombo>
0.406 

> <ROCS_ShapeTanimoto>
0.328 

> <ROCS_ColorTanimoto>
0.079 

> <ROCS_RefTversky>
0.296 

> <ROCS_RefColorTversky>
0.083 

> <ROCS_RefTverskyCombo>
0.379 

> <ROCS_FitTversky>
1.492 

> <ROCS_FitColorTversky>
0.577 

> <ROCS_FitTverskyCombo>
2.069 

> <ROCS_ColorScore>
-6.024

> <ROCS_Overlap>
1974.339

> <ROCS_Rank>
84                  

$$$$
untitled-dbase-44890_562
  -OEChem-08212314543D

 40 40  0     1  0  0  0  0  0999 V2000
   -8.5883    3.6949   -9.7918 C   0  0  0  0  0  0  0  0  0  0  0  0
   -8.5161    5.2781  -14.8095 C   0  0  0  0  0  0  0  0  0  0  0  0
   -8.2538    5.6028  -11.4358 C   0  0  0  0  0  0  0  0  0  0  0  0
   -9.3398    5.6907  -12.5061 C   0  0  0  0  0  0  0  0  0  0  0  0
   -7.3038    3.3484  -11.8624 C   0  0  0  0  0  0  0  0  0  0  0  0
   -9.3882    3.3645  -13.4170 C   0  0  0  0  0  0  0  0  0  0  0  0
   -8.2074    2.5784  -12.8316 C   0  0  1  0  0  0  0  0  0  0  0  0
   -7.3049    5.7669  -17.3556 C   0  0  0  0  0  0  0  0  0  0  0  0
   -8.2039    3.5142  -18.0085 C   0  0  0  0  0  0  0  0  0  0  0  0
   -9.7882    5.3584  -17.3784 C   0  0  0  0  0  0  0  0  0  0  0  0
   -8.8366    4.6588   -8.6592 C   0  0  0  0  0  0  0  0  0  0  0  0
   -8.4137    4.7414  -17.1241 C   0  0  0  0  0  0  0  0  0  0  0  0
   -8.0411    4.2295  -10.9599 N   0  0  0  0  0  0  0  0  0  0  0  0
   -9.0970    4.7876  -13.6343 N   0  0  0  0  0  0  0  0  0  0  0  0
   -8.8699    2.5025   -9.6463 O   0  0  0  0  0  0  0  0  0  0  0  0
   -8.1798    6.4485  -14.9801 O   0  0  0  0  0  0  0  0  0  0  0  0
   -7.4042    2.0960  -13.9097 O   0  0  0  0  0  0  0  0  0  0  0  0
   -8.3544    4.3061  -15.7611 O   0  0  0  0  0  0  0  0  0  0  0  0
   -8.4663    5.9036   -9.0088 F   0  0  0  0  0  0  0  0  0  0  0  0
  -10.1416    4.6824   -8.3345 F   0  0  0  0  0  0  0  0  0  0  0  0
   -8.1370    4.3015   -7.5675 F   0  0  0  0  0  0  0  0  0  0  0  0
   -7.3005    5.9782  -11.8268 H   0  0  0  0  0  0  0  0  0  0  0  0
   -8.5207    6.2598  -10.6041 H   0  0  0  0  0  0  0  0  0  0  0  0
  -10.3243    5.4591  -12.0838 H   0  0  0  0  0  0  0  0  0  0  0  0
   -9.3881    6.7224  -12.8719 H   0  0  0  0  0  0  0  0  0  0  0  0
   -6.7309    2.6244  -11.2689 H   0  0  0  0  0  0  0  0  0  0  0  0
   -6.5526    3.9367  -12.4044 H   0  0  0  0  0  0  0  0  0  0  0  0
   -9.7079    2.9201  -14.3661 H   0  0  0  0  0  0  0  0  0  0  0  0
  -10.2452    3.3051  -12.7356 H   0  0  0  0  0  0  0  0  0  0  0  0
   -8.6116    1.6952  -12.3217 H   0  0  0  0  0  0  0  0  0  0  0  0
   -7.4518    6.6493  -16.7226 H   0  0  0  0  0  0  0  0  0  0  0  0
   -6.3163    5.3471  -17.1429 H   0  0  0  0  0  0  0  0  0  0  0  0
   -7.3133    6.1248  -18.3915 H   0  0  0  0  0  0  0  0  0  0  0  0
   -8.9972    2.7757  -17.8456 H   0  0  0  0  0  0  0  0  0  0  0  0
   -7.2606    3.0130  -17.7632 H   0  0  0  0  0  0  0  0  0  0  0  0
   -8.1897    3.7793  -19.0706 H   0  0  0  0  0  0  0  0  0  0  0  0
  -10.5838    4.6230  -17.2123 H   0  0  0  0  0  0  0  0  0  0  0  0
   -9.9712    6.2185  -16.7261 H   0  0  0  0  0  0  0  0  0  0  0  0
   -9.8819    5.6853  -18.4203 H   0  0  0  0  0  0  0  0  0  0  0  0
   -7.0156    2.8769  -14.3314 H   0  0  0  0  0  0  0  0  0  0  0  0
  1 11  1  0  0  0  0
  1 13  1  0  0  0  0
  1 15  2  0  0  0  0
  2 14  1  0  0  0  0
  2 16  2  0  0  0  0
  2 18  1  0  0  0  0
  3  4  1  0  0  0  0
  3 13  1  0  0  0  0
  4 14  1  0  0  0  0
  5  7  1  0  0  0  0
  5 13  1  0  0  0  0
  6  7  1  0  0  0  0
  6 14  1  0  0  0  0
  7 17  1  0  0  0  0
  8 12  1  0  0  0  0
  9 12  1  0  0  0  0
 10 12  1  0  0  0  0
 11 19  1  0  0  0  0
 11 20  1  0  0  0  0
 11 21  1  0  0  0  0
 12 18  1  0  0  0  0
  3 22  1  0  0  0  0
  3 23  1  0  0  0  0
  4 24  1  0  0  0  0
  4 25  1  0  0  0  0
  5 26  1  0  0  0  0
  5 27  1  0  0  0  0
  6 28  1  0  0  0  0
  6 29  1  0  0  0  0
  7 30  1  0  0  0  0
  8 31  1  0  0  0  0
  8 32  1  0  0  0  0
  8 33  1  0  0  0  0
  9 34  1  0  0  0  0
  9 35  1  0  0  0  0
  9 36  1  0  0  0  0
 10 37  1  0  0  0  0
 10 38  1  0  0  0  0
 10 39  1  0  0  0  0
 17 40  1  0  0  0  0
M  END
> <id>
EN300-7197929

> <smiles>
CC(C)(C)OC(=O)N1CCN(CC(O)C1)C(=O)C(F)(F)F

> <MDLNUMBER>
MFCD32796073

> <IUPAC Name>
tert-butyl 6-hydroxy-4-(trifluoroacetyl)-1,4-diazepane-1-carboxylate

> <CAS>
2680703-66-4

> <URL>
https://www.enaminestore.com/catalog/EN300-7197929

> <ROCS_ShapeQuery>
_x0404_0B

> <ROCS_TanimotoCombo>
0.406 

> <ROCS_ShapeTanimoto>
0.310 

> <ROCS_ColorTanimoto>
0.096 

> <ROCS_RefTversky>
0.281 

> <ROCS_RefColorTversky>
0.099 

> <ROCS_RefTverskyCombo>
0.380 

> <ROCS_FitTversky>
1.517 

> <ROCS_FitColorTversky>
0.753 

> <ROCS_FitTverskyCombo>
2.270 

> <ROCS_ColorScore>
-7.139

> <ROCS_Overlap>
1872.516

> <ROCS_Rank>
85                  

$$$$
untitled-dbase-43922_9903
  -OEChem-08212314543D

 83 83  0     0  0  0  0  0  0999 V2000
   -9.0989    5.0440   -9.2813 C   0  0  0  0  0  0  0  0  0  0  0  0
   -8.0939    5.2500  -17.2504 C   0  0  0  0  0  0  0  0  0  0  0  0
  -11.1123    6.8180  -12.2550 C   0  0  0  0  0  0  0  0  0  0  0  0
   -7.7487    3.0827  -11.5888 C   0  0  0  0  0  0  0  0  0  0  0  0
   -8.5421    7.2866  -14.5782 C   0  0  0  0  0  0  0  0  0  0  0  0
   -7.9386    1.9007  -12.5511 C   0  0  0  0  0  0  0  0  0  0  0  0
   -8.9190    4.0689  -11.5967 C   0  0  0  0  0  0  0  0  0  0  0  0
   -9.2009    6.0444  -15.1784 C   0  0  0  0  0  0  0  0  0  0  0  0
   -9.4949    8.1070  -13.7071 C   0  0  0  0  0  0  0  0  0  0  0  0
   -8.1578    2.9494  -14.7759 C   0  0  0  0  0  0  0  0  0  0  0  0
   -7.4319    4.2756  -15.0190 C   0  0  0  0  0  0  0  0  0  0  0  0
   -8.0267    6.3606  -11.0834 C   0  0  0  0  0  0  0  0  0  0  0  0
   -8.9477    7.5675  -11.3072 C   0  0  0  0  0  0  0  0  0  0  0  0
  -10.0905    4.3619   -6.6860 C   0  0  0  0  0  0  0  0  0  0  0  0
  -10.1828    2.0030   -7.5440 C   0  0  0  0  0  0  0  0  0  0  0  0
   -7.9772    3.1955   -7.3987 C   0  0  0  0  0  0  0  0  0  0  0  0
   -5.7576    6.1062  -18.6631 C   0  0  0  0  0  0  0  0  0  0  0  0
   -5.4681    3.6879  -19.2774 C   0  0  0  0  0  0  0  0  0  0  0  0
   -7.5097    4.9363  -20.0401 C   0  0  0  0  0  0  0  0  0  0  0  0
  -13.9695    6.9197  -12.1311 C   0  0  0  0  0  0  0  0  0  0  0  0
  -13.9090    6.4327  -14.5945 C   0  0  0  0  0  0  0  0  0  0  0  0
  -12.9801    4.7613  -12.9661 C   0  0  0  0  0  0  0  0  0  0  0  0
   -9.4756    3.3520   -7.6539 C   0  0  0  0  0  0  0  0  0  0  0  0
   -6.4738    4.7825  -18.9274 C   0  0  0  0  0  0  0  0  0  0  0  0
  -13.1906    6.2460  -13.2599 C   0  0  0  0  0  0  0  0  0  0  0  0
   -7.3859    2.0808  -13.8921 N   0  0  0  0  0  0  0  0  0  0  0  0
   -8.7194    5.1535  -10.6265 N   0  0  0  0  0  0  0  0  0  0  0  0
   -8.2261    5.1862  -15.8579 N   0  0  0  0  0  0  0  0  0  0  0  0
   -9.8738    7.4514  -12.4409 N   0  0  0  0  0  0  0  0  0  0  0  0
   -8.9455    5.9328   -8.4454 O   0  0  0  0  0  0  0  0  0  0  0  0
   -8.7523    5.9936  -17.9754 O   0  0  0  0  0  0  0  0  0  0  0  0
  -11.4577    6.2634  -11.2132 O   0  0  0  0  0  0  0  0  0  0  0  0
   -9.6629    3.8297   -8.9907 O   0  0  0  0  0  0  0  0  0  0  0  0
   -7.1479    4.3820  -17.7291 O   0  0  0  0  0  0  0  0  0  0  0  0
  -11.9090    6.8755  -13.3681 O   0  0  0  0  0  0  0  0  0  0  0  0
   -7.5751    2.7026  -10.5752 H   0  0  0  0  0  0  0  0  0  0  0  0
   -6.8304    3.6139  -11.8727 H   0  0  0  0  0  0  0  0  0  0  0  0
   -7.6649    6.9892  -13.9903 H   0  0  0  0  0  0  0  0  0  0  0  0
   -8.2043    7.9240  -15.3988 H   0  0  0  0  0  0  0  0  0  0  0  0
   -7.4595    1.0140  -12.1121 H   0  0  0  0  0  0  0  0  0  0  0  0
   -9.0083    1.6557  -12.6218 H   0  0  0  0  0  0  0  0  0  0  0  0
   -9.0381    4.4858  -12.6027 H   0  0  0  0  0  0  0  0  0  0  0  0
   -9.8655    3.5836  -11.3442 H   0  0  0  0  0  0  0  0  0  0  0  0
   -9.7064    5.4822  -14.3860 H   0  0  0  0  0  0  0  0  0  0  0  0
   -9.9652    6.3272  -15.9113 H   0  0  0  0  0  0  0  0  0  0  0  0
   -9.0342    9.0744  -13.4419 H   0  0  0  0  0  0  0  0  0  0  0  0
  -10.4024    8.3495  -14.2852 H   0  0  0  0  0  0  0  0  0  0  0  0
   -9.1534    3.1494  -14.3480 H   0  0  0  0  0  0  0  0  0  0  0  0
   -8.3365    2.4365  -15.7388 H   0  0  0  0  0  0  0  0  0  0  0  0
   -7.2116    4.7971  -14.0815 H   0  0  0  0  0  0  0  0  0  0  0  0
   -6.4727    4.0857  -15.5120 H   0  0  0  0  0  0  0  0  0  0  0  0
   -7.4957    6.1291  -12.0249 H   0  0  0  0  0  0  0  0  0  0  0  0
   -7.2335    6.5884  -10.3506 H   0  0  0  0  0  0  0  0  0  0  0  0
   -9.5435    7.7445  -10.3846 H   0  0  0  0  0  0  0  0  0  0  0  0
   -8.3596    8.5013  -11.4454 H   0  0  0  0  0  0  0  0  0  0  0  0
   -9.5856    5.3316   -6.7618 H   0  0  0  0  0  0  0  0  0  0  0  0
  -11.1577    4.5094   -6.8812 H   0  0  0  0  0  0  0  0  0  0  0  0
   -9.9709    4.0315   -5.6479 H   0  0  0  0  0  0  0  0  0  0  0  0
   -9.7448    1.2753   -8.2367 H   0  0  0  0  0  0  0  0  0  0  0  0
  -11.2400    2.0930   -7.8187 H   0  0  0  0  0  0  0  0  0  0  0  0
  -10.1217    1.5962   -6.5294 H   0  0  0  0  0  0  0  0  0  0  0  0
   -7.5358    2.4712   -8.0928 H   0  0  0  0  0  0  0  0  0  0  0  0
   -7.4476    4.1473   -7.5096 H   0  0  0  0  0  0  0  0  0  0  0  0
   -7.7920    2.8094   -6.3898 H   0  0  0  0  0  0  0  0  0  0  0  0
   -6.4760    6.8945  -18.4116 H   0  0  0  0  0  0  0  0  0  0  0  0
   -5.0368    6.0182  -17.8437 H   0  0  0  0  0  0  0  0  0  0  0  0
   -5.2245    6.4478  -19.5578 H   0  0  0  0  0  0  0  0  0  0  0  0
   -5.9776    2.7364  -19.4678 H   0  0  0  0  0  0  0  0  0  0  0  0
   -4.7806    3.5082  -18.4430 H   0  0  0  0  0  0  0  0  0  0  0  0
   -4.8787    3.9487  -20.1623 H   0  0  0  0  0  0  0  0  0  0  0  0
   -8.0235    3.9870  -20.2299 H   0  0  0  0  0  0  0  0  0  0  0  0
   -8.2612    5.6920  -19.7899 H   0  0  0  0  0  0  0  0  0  0  0  0
   -7.0293    5.2217  -20.9830 H   0  0  0  0  0  0  0  0  0  0  0  0
  -13.4571    6.7879  -11.1714 H   0  0  0  0  0  0  0  0  0  0  0  0
  -14.0970    7.9918  -12.3129 H   0  0  0  0  0  0  0  0  0  0  0  0
  -14.9614    6.4678  -12.0165 H   0  0  0  0  0  0  0  0  0  0  0  0
  -13.3537    5.9509  -15.4073 H   0  0  0  0  0  0  0  0  0  0  0  0
  -13.9782    7.4950  -14.8553 H   0  0  0  0  0  0  0  0  0  0  0  0
  -14.9207    6.0150  -14.5707 H   0  0  0  0  0  0  0  0  0  0  0  0
  -12.4214    4.2778  -13.7756 H   0  0  0  0  0  0  0  0  0  0  0  0
  -12.4333    4.6090  -12.0299 H   0  0  0  0  0  0  0  0  0  0  0  0
  -13.9405    4.2377  -12.8975 H   0  0  0  0  0  0  0  0  0  0  0  0
   -6.4179    2.4143  -13.8240 H   0  0  0  0  0  0  0  0  0  0  0  0
  1 27  1  0  0  0  0
  1 30  2  0  0  0  0
  1 33  1  0  0  0  0
  2 28  1  0  0  0  0
  2 31  2  0  0  0  0
  2 34  1  0  0  0  0
  3 29  1  0  0  0  0
  3 32  2  0  0  0  0
  3 35  1  0  0  0  0
  4  6  1  0  0  0  0
  4  7  1  0  0  0  0
  5  8  1  0  0  0  0
  5  9  1  0  0  0  0
  6 26  1  0  0  0  0
  7 27  1  0  0  0  0
  8 28  1  0  0  0  0
  9 29  1  0  0  0  0
 10 11  1  0  0  0  0
 10 26  1  0  0  0  0
 11 28  1  0  0  0  0
 12 13  1  0  0  0  0
 12 27  1  0  0  0  0
 13 29  1  0  0  0  0
 14 23  1  0  0  0  0
 15 23  1  0  0  0  0
 16 23  1  0  0  0  0
 17 24  1  0  0  0  0
 18 24  1  0  0  0  0
 19 24  1  0  0  0  0
 20 25  1  0  0  0  0
 21 25  1  0  0  0  0
 22 25  1  0  0  0  0
 23 33  1  0  0  0  0
 24 34  1  0  0  0  0
 25 35  1  0  0  0  0
  4 36  1  0  0  0  0
  4 37  1  0  0  0  0
  5 38  1  0  0  0  0
  5 39  1  0  0  0  0
  6 40  1  0  0  0  0
  6 41  1  0  0  0  0
  7 42  1  0  0  0  0
  7 43  1  0  0  0  0
  8 44  1  0  0  0  0
  8 45  1  0  0  0  0
  9 46  1  0  0  0  0
  9 47  1  0  0  0  0
 10 48  1  0  0  0  0
 10 49  1  0  0  0  0
 11 50  1  0  0  0  0
 11 51  1  0  0  0  0
 12 52  1  0  0  0  0
 12 53  1  0  0  0  0
 13 54  1  0  0  0  0
 13 55  1  0  0  0  0
 14 56  1  0  0  0  0
 14 57  1  0  0  0  0
 14 58  1  0  0  0  0
 15 59  1  0  0  0  0
 15 60  1  0  0  0  0
 15 61  1  0  0  0  0
 16 62  1  0  0  0  0
 16 63  1  0  0  0  0
 16 64  1  0  0  0  0
 17 65  1  0  0  0  0
 17 66  1  0  0  0  0
 17 67  1  0  0  0  0
 18 68  1  0  0  0  0
 18 69  1  0  0  0  0
 18 70  1  0  0  0  0
 19 71  1  0  0  0  0
 19 72  1  0  0  0  0
 19 73  1  0  0  0  0
 20 74  1  0  0  0  0
 20 75  1  0  0  0  0
 20 76  1  0  0  0  0
 21 77  1  0  0  0  0
 21 78  1  0  0  0  0
 21 79  1  0  0  0  0
 22 80  1  0  0  0  0
 22 81  1  0  0  0  0
 22 82  1  0  0  0  0
 26 83  1  0  0  0  0
M  END
> <id>
EN300-7373984

> <smiles>
CC(C)(C)OC(=O)N1CCCN(CCN(CCCNCC1)C(=O)OC(C)(C)C)C(=O)OC(C)(C)C

> <MDLNUMBER>
MFCD09263315

> <IUPAC Name>
1,4,8-tri-tert-butyl 1,4,8,11-tetraazacyclotetradecane-1,4,8-tricarboxylate

> <CAS>
170161-27-0

> <Purity>
95

> <URL>
https://www.enaminestore.com/catalog/EN300-7373984

> <ROCS_ShapeQuery>
_x0404_0B

> <ROCS_TanimotoCombo>
0.406 

> <ROCS_ShapeTanimoto>
0.361 

> <ROCS_ColorTanimoto>
0.045 

> <ROCS_RefTversky>
0.336 

> <ROCS_RefColorTversky>
0.049 

> <ROCS_RefTverskyCombo>
0.385 

> <ROCS_FitTversky>
1.269 

> <ROCS_FitColorTversky>
0.314 

> <ROCS_FitTverskyCombo>
1.583 

> <ROCS_ColorScore>
-3.572

> <ROCS_Overlap>
2248.937

> <ROCS_Rank>
86                  

$$$$
untitled-dbase-34134_136
  -OEChem-08212314543D

 46 48  0     1  0  0  0  0  0999 V2000
   -8.6776    5.9197  -14.6143 C   0  0  0  0  0  0  0  0  0  0  0  0
   -9.6729    5.8766  -10.9787 C   0  0  0  0  0  0  0  0  0  0  0  0
   -7.6676    4.3535  -11.4116 C   0  0  0  0  0  0  0  0  0  0  0  0
   -9.1459    6.5712  -12.2308 C   0  0  0  0  0  0  0  0  0  0  0  0
   -8.3114    4.2828  -12.7914 C   0  0  0  0  0  0  0  0  0  0  0  0
   -7.8558    5.6237   -9.2142 C   0  0  0  0  0  0  0  0  0  0  0  0
   -8.5454    2.6614   -8.9982 C   0  0  0  0  0  0  0  0  0  0  0  0
   -9.8130    3.4516   -7.2081 C   0  0  0  0  0  0  0  0  0  0  0  0
   -9.3691    3.8348   -9.5223 C   0  0  1  0  0  0  0  0  0  0  0  0
   -9.7545    4.5548   -8.2466 C   0  0  2  0  0  0  0  0  0  0  0  0
   -8.6297    4.9093  -10.3395 C   0  0  0  0  0  0  0  0  0  0  0  0
   -7.5136    5.5913  -17.2069 C   0  0  0  0  0  0  0  0  0  0  0  0
   -9.1696    3.7274  -17.5115 C   0  0  0  0  0  0  0  0  0  0  0  0
   -9.9825    6.0780  -17.1622 C   0  0  0  0  0  0  0  0  0  0  0  0
   -8.8939    5.0614  -16.8212 C   0  0  0  0  0  0  0  0  0  0  0  0
   -8.7080    5.5626   -8.0153 N   0  0  0  0  0  0  0  0  0  0  0  0
   -8.7230    5.6083  -13.2520 N   0  0  0  0  0  0  0  0  0  0  0  0
   -8.4581    7.0441  -15.0610 O   0  0  0  0  0  0  0  0  0  0  0  0
   -9.0387    2.3483   -7.6910 O   0  0  0  0  0  0  0  0  0  0  0  0
   -8.9141    4.8284  -15.4083 O   0  0  0  0  0  0  0  0  0  0  0  0
  -10.0009    6.6360  -10.2627 H   0  0  0  0  0  0  0  0  0  0  0  0
  -10.5660    5.3037  -11.2546 H   0  0  0  0  0  0  0  0  0  0  0  0
   -7.3398    3.3484  -11.1182 H   0  0  0  0  0  0  0  0  0  0  0  0
   -6.7647    4.9684  -11.4850 H   0  0  0  0  0  0  0  0  0  0  0  0
   -9.9172    7.2463  -12.6199 H   0  0  0  0  0  0  0  0  0  0  0  0
   -8.2738    7.1963  -11.9978 H   0  0  0  0  0  0  0  0  0  0  0  0
   -7.6068    3.8864  -13.5309 H   0  0  0  0  0  0  0  0  0  0  0  0
   -9.1682    3.6027  -12.7642 H   0  0  0  0  0  0  0  0  0  0  0  0
   -6.9007    5.1150   -9.0035 H   0  0  0  0  0  0  0  0  0  0  0  0
   -7.6107    6.6693   -9.4489 H   0  0  0  0  0  0  0  0  0  0  0  0
   -8.6350    1.7734   -9.6437 H   0  0  0  0  0  0  0  0  0  0  0  0
   -7.4715    2.8891   -8.8996 H   0  0  0  0  0  0  0  0  0  0  0  0
   -9.4000    3.7541   -6.2334 H   0  0  0  0  0  0  0  0  0  0  0  0
  -10.8424    3.1087   -7.0295 H   0  0  0  0  0  0  0  0  0  0  0  0
  -10.2543    3.4578  -10.0335 H   0  0  0  0  0  0  0  0  0  0  0  0
  -10.7092    5.0576   -8.3372 H   0  0  0  0  0  0  0  0  0  0  0  0
   -7.3119    6.5487  -16.7134 H   0  0  0  0  0  0  0  0  0  0  0  0
   -6.7208    4.8865  -16.9357 H   0  0  0  0  0  0  0  0  0  0  0  0
   -7.4546    5.7806  -18.2848 H   0  0  0  0  0  0  0  0  0  0  0  0
  -10.1590    3.3435  -17.2376 H   0  0  0  0  0  0  0  0  0  0  0  0
   -8.4455    2.9676  -17.1958 H   0  0  0  0  0  0  0  0  0  0  0  0
   -9.1229    3.8192  -18.6014 H   0  0  0  0  0  0  0  0  0  0  0  0
  -10.9727    5.6982  -16.8856 H   0  0  0  0  0  0  0  0  0  0  0  0
   -9.8211    7.0301  -16.6463 H   0  0  0  0  0  0  0  0  0  0  0  0
  -10.0144    6.2676  -18.2412 H   0  0  0  0  0  0  0  0  0  0  0  0
   -8.1524    5.3566   -7.1869 H   0  0  0  0  0  0  0  0  0  0  0  0
  1 17  1  0  0  0  0
  1 18  2  0  0  0  0
  1 20  1  0  0  0  0
  2  4  1  0  0  0  0
  2 11  1  0  0  0  0
  3  5  1  0  0  0  0
  3 11  1  0  0  0  0
  4 17  1  0  0  0  0
  5 17  1  0  0  0  0
  6 11  1  0  0  0  0
  6 16  1  0  0  0  0
  7  9  1  6  0  0  0
  7 19  1  0  0  0  0
  8 10  1  6  0  0  0
  8 19  1  0  0  0  0
  9 10  1  0  0  0  0
  9 11  1  0  0  0  0
 10 16  1  0  0  0  0
 12 15  1  0  0  0  0
 13 15  1  0  0  0  0
 14 15  1  0  0  0  0
 15 20  1  0  0  0  0
  2 21  1  0  0  0  0
  2 22  1  0  0  0  0
  3 23  1  0  0  0  0
  3 24  1  0  0  0  0
  4 25  1  0  0  0  0
  4 26  1  0  0  0  0
  5 27  1  0  0  0  0
  5 28  1  0  0  0  0
  6 29  1  0  0  0  0
  6 30  1  0  0  0  0
  7 31  1  0  0  0  0
  7 32  1  0  0  0  0
  8 33  1  0  0  0  0
  8 34  1  0  0  0  0
  9 35  1  0  0  0  0
 10 36  1  0  0  0  0
 12 37  1  0  0  0  0
 12 38  1  0  0  0  0
 12 39  1  0  0  0  0
 13 40  1  0  0  0  0
 13 41  1  0  0  0  0
 13 42  1  0  0  0  0
 14 43  1  0  0  0  0
 14 44  1  0  0  0  0
 14 45  1  0  0  0  0
 16 46  1  0  0  0  0
M  END
> <id>
EN300-254413

> <smiles>
CC(C)(C)OC(=O)N1CCC2(CN[C@@H]3COC[C@@H]32)CC1 |&1:13,17,r|

> <MDLNUMBER>
MFCD29764286

> <IUPAC Name>
rac-tert-butyl (3aR,6aS)-hexahydrospiro[furo[3,4-b]pyrrole-3,4'-piperidine]-1'-carboxylate

> <CAS>
2307770-06-3

> <Purity>
95

> <URL>
https://www.enaminestore.com/catalog/EN300-254413

> <ROCS_ShapeQuery>
_x0404_0B

> <ROCS_TanimotoCombo>
0.406 

> <ROCS_ShapeTanimoto>
0.329 

> <ROCS_ColorTanimoto>
0.077 

> <ROCS_RefTversky>
0.292 

> <ROCS_RefColorTversky>
0.083 

> <ROCS_RefTverskyCombo>
0.375 

> <ROCS_FitTversky>
1.627 

> <ROCS_FitColorTversky>
0.521 

> <ROCS_FitTverskyCombo>
2.149 

> <ROCS_ColorScore>
-5.971

> <ROCS_Overlap>
1947.350

> <ROCS_Rank>
87                  

$$$$
untitled-dbase-49813_28
  -OEChem-08212314543D

 57 60  0     1  0  0  0  0  0999 V2000
   -7.8309    4.9907  -18.6216 C   0  0  0  0  0  0  0  0  0  0  0  0
   -8.6502    3.8886  -18.8558 C   0  0  0  0  0  0  0  0  0  0  0  0
   -7.8669    5.6364  -17.3870 C   0  0  0  0  0  0  0  0  0  0  0  0
   -9.5069    3.4238  -17.8559 C   0  0  0  0  0  0  0  0  0  0  0  0
   -8.7131    5.1656  -16.3755 C   0  0  0  0  0  0  0  0  0  0  0  0
   -9.5354    4.0499  -16.6049 C   0  0  0  0  0  0  0  0  0  0  0  0
   -8.9352    1.2289  -13.6655 C   0  0  0  0  0  0  0  0  0  0  0  0
   -9.1856    1.6809  -14.9025 C   0  0  0  0  0  0  0  0  0  0  0  0
   -8.7306    5.9178  -15.0992 C   0  0  0  0  0  0  0  0  0  0  0  0
   -7.0541    2.9314  -12.0135 C   0  0  0  0  0  0  0  0  0  0  0  0
   -7.5810    0.7188  -13.2747 C   0  0  0  0  0  0  0  0  0  0  0  0
  -10.4952    2.2510  -15.3602 C   0  0  0  0  0  0  0  0  0  0  0  0
   -8.4299    4.6533   -8.2830 C   0  0  0  0  0  0  0  0  0  0  0  0
   -7.5046    5.6216   -9.0126 C   0  0  0  0  0  0  0  0  0  0  0  0
   -8.5243    3.2865   -8.9459 C   0  0  0  0  0  0  0  0  0  0  0  0
   -8.1249    6.1247  -10.3086 C   0  0  0  0  0  0  0  0  0  0  0  0
   -9.0038    3.2930  -10.4003 C   0  0  0  0  0  0  0  0  0  0  0  0
   -8.9032    5.7061  -12.6322 C   0  0  0  0  0  0  0  0  0  0  0  0
   -5.6940    0.7499  -11.5643 C   0  0  0  0  0  0  0  0  0  0  0  0
   -7.5506    0.5169  -10.6899 C   0  0  0  0  0  0  0  0  0  0  0  0
   -7.9021    5.2383  -11.5541 C   0  0  2  0  0  0  0  0  0  0  0  0
   -7.1059    1.3461  -11.9326 C   0  0  0  0  0  0  0  0  0  0  0  0
   -8.6796    5.1453  -13.9489 N   0  0  0  0  0  0  0  0  0  0  0  0
   -6.3585   -0.3419  -10.8340 N   0  0  0  0  0  0  0  0  0  0  0  0
   -7.9692    3.7708  -11.3194 N   0  0  0  0  0  0  0  0  0  0  0  0
   -8.7885    7.1435  -15.1402 O   0  0  0  0  0  0  0  0  0  0  0  0
   -6.1850    3.4405  -12.7514 O   0  0  0  0  0  0  0  0  0  0  0  0
  -10.3922    3.6619  -15.6060 O   0  0  0  0  0  0  0  0  0  0  0  0
   -7.1619    5.3443  -19.4003 H   0  0  0  0  0  0  0  0  0  0  0  0
   -8.6153    3.3817  -19.8165 H   0  0  0  0  0  0  0  0  0  0  0  0
   -7.2396    6.5095  -17.2350 H   0  0  0  0  0  0  0  0  0  0  0  0
  -10.1306    2.5594  -18.0663 H   0  0  0  0  0  0  0  0  0  0  0  0
   -9.7170    1.2004  -12.9309 H   0  0  0  0  0  0  0  0  0  0  0  0
   -8.3816    1.6593  -15.6463 H   0  0  0  0  0  0  0  0  0  0  0  0
   -7.6460   -0.3719  -13.2039 H   0  0  0  0  0  0  0  0  0  0  0  0
   -6.8437    0.9381  -14.0554 H   0  0  0  0  0  0  0  0  0  0  0  0
  -10.7982    1.7495  -16.3052 H   0  0  0  0  0  0  0  0  0  0  0  0
  -11.2909    2.0347  -14.6089 H   0  0  0  0  0  0  0  0  0  0  0  0
   -8.0570    4.5171   -7.2622 H   0  0  0  0  0  0  0  0  0  0  0  0
   -9.4300    5.0904   -8.1936 H   0  0  0  0  0  0  0  0  0  0  0  0
   -7.3429    6.4801   -8.3547 H   0  0  0  0  0  0  0  0  0  0  0  0
   -6.5287    5.1661   -9.1926 H   0  0  0  0  0  0  0  0  0  0  0  0
   -7.5487    2.7868   -8.8659 H   0  0  0  0  0  0  0  0  0  0  0  0
   -9.2242    2.6734   -8.3576 H   0  0  0  0  0  0  0  0  0  0  0  0
   -9.1978    6.3352  -10.1584 H   0  0  0  0  0  0  0  0  0  0  0  0
   -7.6755    7.1095  -10.5284 H   0  0  0  0  0  0  0  0  0  0  0  0
   -9.2931    2.2818  -10.6714 H   0  0  0  0  0  0  0  0  0  0  0  0
   -9.9062    3.8998  -10.5177 H   0  0  0  0  0  0  0  0  0  0  0  0
   -9.9382    5.4879  -12.3092 H   0  0  0  0  0  0  0  0  0  0  0  0
   -8.8571    6.8029  -12.7536 H   0  0  0  0  0  0  0  0  0  0  0  0
   -5.0617    0.4215  -12.4007 H   0  0  0  0  0  0  0  0  0  0  0  0
   -5.0752    1.3873  -10.9136 H   0  0  0  0  0  0  0  0  0  0  0  0
   -7.5470    1.0508   -9.7327 H   0  0  0  0  0  0  0  0  0  0  0  0
   -8.4997   -0.0277  -10.7719 H   0  0  0  0  0  0  0  0  0  0  0  0
   -6.9087    5.4629  -11.9196 H   0  0  0  0  0  0  0  0  0  0  0  0
   -8.4819    4.1695  -14.0332 H   0  0  0  0  0  0  0  0  0  0  0  0
   -6.5236   -1.1711  -11.4029 H   0  0  0  0  0  0  0  0  0  0  0  0
  1  2  2  0  0  0  0
  1  3  1  0  0  0  0
  2  4  1  0  0  0  0
  3  5  2  0  0  0  0
  4  6  2  0  0  0  0
  5  6  1  0  0  0  0
  5  9  1  0  0  0  0
  6 28  1  0  0  0  0
  7  8  2  0  0  0  0
  7 11  1  0  0  0  0
  8 12  1  0  0  0  0
  9 23  1  0  0  0  0
  9 26  2  0  0  0  0
 10 22  1  0  0  0  0
 10 25  1  0  0  0  0
 10 27  2  0  0  0  0
 11 22  1  0  0  0  0
 12 28  1  0  0  0  0
 13 14  1  0  0  0  0
 13 15  1  0  0  0  0
 14 16  1  0  0  0  0
 15 17  1  0  0  0  0
 16 21  1  0  0  0  0
 17 25  1  0  0  0  0
 18 21  1  0  0  0  0
 18 23  1  0  0  0  0
 19 22  1  0  0  0  0
 19 24  1  0  0  0  0
 20 22  1  0  0  0  0
 20 24  1  0  0  0  0
 21 25  1  0  0  0  0
  1 29  1  0  0  0  0
  2 30  1  0  0  0  0
  3 31  1  0  0  0  0
  4 32  1  0  0  0  0
  7 33  1  0  0  0  0
  8 34  1  0  0  0  0
 11 35  1  0  0  0  0
 11 36  1  0  0  0  0
 12 37  1  0  0  0  0
 12 38  1  0  0  0  0
 13 39  1  0  0  0  0
 13 40  1  0  0  0  0
 14 41  1  0  0  0  0
 14 42  1  0  0  0  0
 15 43  1  0  0  0  0
 15 44  1  0  0  0  0
 16 45  1  0  0  0  0
 16 46  1  0  0  0  0
 17 47  1  0  0  0  0
 17 48  1  0  0  0  0
 18 49  1  0  0  0  0
 18 50  1  0  0  0  0
 19 51  1  0  0  0  0
 19 52  1  0  0  0  0
 20 53  1  0  0  0  0
 20 54  1  0  0  0  0
 21 55  1  0  0  0  0
 23 56  1  0  0  0  0
 24 57  1  0  0  0  0
M  END
> <id>
EN300-6477916

> <smiles>
OC(=O)C(F)(F)F.O=C1NCC2CCCCCN2C(=O)C3(CNC3)C/C=C/COC=4C=CC=CC14

> <MDLNUMBER>
MFCD31667276

> <IUPAC Name>
(13'E)-11'-oxa-3',18'-diazaspiro[azetidine-3,16'-tricyclo[16.5.0.0,5,10]tricosane]-5'(10'),6',8',13'-tetraene-4',17'-dione; trifluoroacetic acid

> <CAS>
2648972-75-0

> <URL>
https://www.enaminestore.com/catalog/EN300-6477916

> <Saltdate>
OC(=O)C(F)(F)F

> <ROCS_ShapeQuery>
_x0404_0B

> <ROCS_TanimotoCombo>
0.406 

> <ROCS_ShapeTanimoto>
0.317 

> <ROCS_ColorTanimoto>
0.089 

> <ROCS_RefTversky>
0.296 

> <ROCS_RefColorTversky>
0.095 

> <ROCS_RefTverskyCombo>
0.391 

> <ROCS_FitTversky>
1.293 

> <ROCS_FitColorTversky>
0.559 

> <ROCS_FitTverskyCombo>
1.852 

> <ROCS_ColorScore>
-6.889

> <ROCS_Overlap>
1977.595

> <ROCS_Rank>
88                  

$$$$
untitled-dbase-24095_0
  -OEChem-08212314543D

 35 39  0     0  0  0  0  0  0999 V2000
   -9.3702    2.5575   -8.7872 C   0  0  0  0  0  0  0  0  0  0  0  0
   -9.1530    3.6315   -7.9265 C   0  0  0  0  0  0  0  0  0  0  0  0
   -9.3189    2.7480  -10.1681 C   0  0  0  0  0  0  0  0  0  0  0  0
   -8.8840    4.8995   -8.4429 C   0  0  0  0  0  0  0  0  0  0  0  0
   -9.0491    4.0198  -10.6877 C   0  0  0  0  0  0  0  0  0  0  0  0
   -8.8327    5.0891   -9.8271 C   0  0  0  0  0  0  0  0  0  0  0  0
   -8.8422    4.8035  -14.8316 C   0  0  0  0  0  0  0  0  0  0  0  0
   -8.8290    4.7701  -16.2626 C   0  0  0  0  0  0  0  0  0  0  0  0
   -9.1139    3.5002  -16.7305 C   0  0  0  0  0  0  0  0  0  0  0  0
   -9.1123    3.5647  -14.2806 C   0  0  0  0  0  0  0  0  0  0  0  0
   -8.9883    4.2489  -12.1440 C   0  0  0  0  0  0  0  0  0  0  0  0
   -8.5544    6.3966  -10.4329 C   0  0  0  0  0  0  0  0  0  0  0  0
   -8.6210    5.9264  -13.9315 C   0  0  0  0  0  0  0  0  0  0  0  0
   -8.5854    5.9174  -17.1987 C   0  0  0  0  0  0  0  0  0  0  0  0
   -9.1754    3.1044  -18.1729 C   0  0  0  0  0  0  0  0  0  0  0  0
   -8.3127    5.4454  -18.6354 C   0  0  0  0  0  0  0  0  0  0  0  0
   -9.2918    4.3465  -19.0679 C   0  0  0  0  0  0  0  0  0  0  0  0
   -9.1909    3.2532  -12.9608 N   0  0  0  0  0  0  0  0  0  0  0  0
   -8.5009    6.5968  -11.7099 N   0  0  0  0  0  0  0  0  0  0  0  0
   -8.7091    5.5594  -12.5748 N   0  0  0  0  0  0  0  0  0  0  0  0
   -8.3887    7.0610  -14.3391 O   0  0  0  0  0  0  0  0  0  0  0  0
   -9.3606    2.3745  -15.4803 S   0  0  0  0  0  0  0  0  0  0  0  0
   -8.2660    7.8222   -9.4908 Cl  0  0  0  0  0  0  0  0  0  0  0  0
   -9.5789    1.5714   -8.3826 H   0  0  0  0  0  0  0  0  0  0  0  0
   -9.1932    3.4812   -6.8515 H   0  0  0  0  0  0  0  0  0  0  0  0
   -9.4922    1.8934  -10.8162 H   0  0  0  0  0  0  0  0  0  0  0  0
   -8.7201    5.7150   -7.7455 H   0  0  0  0  0  0  0  0  0  0  0  0
   -9.4707    6.5649  -17.1919 H   0  0  0  0  0  0  0  0  0  0  0  0
   -7.7353    6.5174  -16.8562 H   0  0  0  0  0  0  0  0  0  0  0  0
   -8.2601    2.5567  -18.4300 H   0  0  0  0  0  0  0  0  0  0  0  0
  -10.0245    2.4386  -18.3639 H   0  0  0  0  0  0  0  0  0  0  0  0
   -8.3803    6.2986  -19.3196 H   0  0  0  0  0  0  0  0  0  0  0  0
   -7.2875    5.0590  -18.7059 H   0  0  0  0  0  0  0  0  0  0  0  0
   -9.1035    4.0651  -20.1102 H   0  0  0  0  0  0  0  0  0  0  0  0
  -10.3158    4.7394  -19.0221 H   0  0  0  0  0  0  0  0  0  0  0  0
  1  2  2  0  0  0  0
  1  3  1  0  0  0  0
  2  4  1  0  0  0  0
  3  5  2  0  0  0  0
  4  6  2  0  0  0  0
  5  6  1  0  0  0  0
  5 11  1  0  0  0  0
  6 12  1  0  0  0  0
  7  8  1  0  0  0  0
  7 10  2  0  0  0  0
  7 13  1  0  0  0  0
  8  9  2  0  0  0  0
  8 14  1  0  0  0  0
  9 15  1  0  0  0  0
  9 22  1  0  0  0  0
 10 18  1  0  0  0  0
 10 22  1  0  0  0  0
 11 18  2  0  0  0  0
 11 20  1  0  0  0  0
 12 19  2  0  0  0  0
 12 23  1  0  0  0  0
 13 20  1  0  0  0  0
 13 21  2  0  0  0  0
 14 16  1  0  0  0  0
 15 17  1  0  0  0  0
 16 17  1  0  0  0  0
 19 20  1  0  0  0  0
  1 24  1  0  0  0  0
  2 25  1  0  0  0  0
  3 26  1  0  0  0  0
  4 27  1  0  0  0  0
 14 28  1  0  0  0  0
 14 29  1  0  0  0  0
 15 30  1  0  0  0  0
 15 31  1  0  0  0  0
 16 32  1  0  0  0  0
 16 33  1  0  0  0  0
 17 34  1  0  0  0  0
 17 35  1  0  0  0  0
M  END
> <id>
EN300-16863

> <smiles>
ClC1=NN2C(=O)C=3C=4CCCCC4SC3N=C2C=5C=CC=CC15

> <MDLNUMBER>
MFCD02329458

> <IUPAC Name>
20-chloro-10-thia-1,12,21-triazapentacyclo[11.8.0.0^{3,11}.0^{4,9}.0^{14,19}]henicosa-3(11),4(9),12,14(19),15,17,20-heptaen-2-one

> <CAS>
134878-71-0

> <URL>
https://www.enaminestore.com/catalog/EN300-16863

> <ROCS_ShapeQuery>
_x0404_0B

> <ROCS_TanimotoCombo>
0.405 

> <ROCS_ShapeTanimoto>
0.342 

> <ROCS_ColorTanimoto>
0.064 

> <ROCS_RefTversky>
0.307 

> <ROCS_RefColorTversky>
0.070 

> <ROCS_RefTverskyCombo>
0.376 

> <ROCS_FitTversky>
1.496 

> <ROCS_FitColorTversky>
0.440 

> <ROCS_FitTverskyCombo>
1.935 

> <ROCS_ColorScore>
-5.020

> <ROCS_Overlap>
2049.503

> <ROCS_Rank>
89                  

$$$$
untitled-dbase-44923_94
  -OEChem-08212314543D

 43 45  0     0  0  0  0  0  0999 V2000
   -8.8901    3.7156   -6.8353 C   0  0  0  0  0  0  0  0  0  0  0  0
   -9.0857    2.3697   -7.1353 C   0  0  0  0  0  0  0  0  0  0  0  0
   -8.8666    4.6130   -7.8819 C   0  0  0  0  0  0  0  0  0  0  0  0
   -9.0268    4.1515   -9.1716 C   0  0  0  0  0  0  0  0  0  0  0  0
   -9.2396    2.0003   -8.4710 C   0  0  0  0  0  0  0  0  0  0  0  0
   -8.7484    5.7253  -14.4698 C   0  0  0  0  0  0  0  0  0  0  0  0
   -8.6597    6.0746   -7.8899 C   0  0  0  0  0  0  0  0  0  0  0  0
   -7.6023    5.2797  -10.8971 C   0  0  0  0  0  0  0  0  0  0  0  0
  -10.1603    5.4118  -11.0562 C   0  0  0  0  0  0  0  0  0  0  0  0
   -7.6866    6.0488  -12.2131 C   0  0  0  0  0  0  0  0  0  0  0  0
   -9.8776    4.8516  -12.4451 C   0  0  0  0  0  0  0  0  0  0  0  0
   -8.9372    5.3044  -10.1315 C   0  0  0  0  0  0  0  0  0  0  0  0
   -7.9715    4.8403  -17.0769 C   0  0  0  0  0  0  0  0  0  0  0  0
  -10.1440    3.5797  -17.0950 C   0  0  0  0  0  0  0  0  0  0  0  0
  -10.1540    6.0867  -16.9422 C   0  0  0  0  0  0  0  0  0  0  0  0
   -9.4096    4.8078  -16.5614 C   0  0  0  0  0  0  0  0  0  0  0  0
   -9.2124    2.8648   -9.5130 N   0  0  0  0  0  0  0  0  0  0  0  0
   -8.7569    5.5455  -13.0827 N   0  0  0  0  0  0  0  0  0  0  0  0
   -8.2302    6.6828  -15.0411 O   0  0  0  0  0  0  0  0  0  0  0  0
   -8.9542    6.4680   -9.2519 O   0  0  0  0  0  0  0  0  0  0  0  0
   -9.3795    4.7058  -15.1332 O   0  0  0  0  0  0  0  0  0  0  0  0
   -9.4890    0.3593   -8.9085 Cl  0  0  0  0  0  0  0  0  0  0  0  0
   -8.7628    4.0418   -5.8092 H   0  0  0  0  0  0  0  0  0  0  0  0
   -9.1187    1.6340   -6.3376 H   0  0  0  0  0  0  0  0  0  0  0  0
   -9.3546    6.5888   -7.2187 H   0  0  0  0  0  0  0  0  0  0  0  0
   -7.6276    6.3565   -7.6640 H   0  0  0  0  0  0  0  0  0  0  0  0
   -7.2863    4.2529  -11.0847 H   0  0  0  0  0  0  0  0  0  0  0  0
   -6.8263    5.7307  -10.2742 H   0  0  0  0  0  0  0  0  0  0  0  0
  -10.4483    6.4651  -11.1489 H   0  0  0  0  0  0  0  0  0  0  0  0
  -11.0257    4.9033  -10.6199 H   0  0  0  0  0  0  0  0  0  0  0  0
   -7.8202    7.1167  -11.9974 H   0  0  0  0  0  0  0  0  0  0  0  0
   -6.7484    5.9649  -12.7793 H   0  0  0  0  0  0  0  0  0  0  0  0
   -9.6156    3.7881  -12.3956 H   0  0  0  0  0  0  0  0  0  0  0  0
  -10.7788    4.9291  -13.0631 H   0  0  0  0  0  0  0  0  0  0  0  0
   -7.4409    5.7204  -16.6962 H   0  0  0  0  0  0  0  0  0  0  0  0
   -7.4164    3.9444  -16.7806 H   0  0  0  0  0  0  0  0  0  0  0  0
   -7.9496    4.9153  -18.1702 H   0  0  0  0  0  0  0  0  0  0  0  0
  -11.1763    3.5523  -16.7276 H   0  0  0  0  0  0  0  0  0  0  0  0
   -9.6672    2.6571  -16.7449 H   0  0  0  0  0  0  0  0  0  0  0  0
  -10.1651    3.5654  -18.1895 H   0  0  0  0  0  0  0  0  0  0  0  0
  -11.1855    6.0635  -16.5726 H   0  0  0  0  0  0  0  0  0  0  0  0
   -9.6613    6.9762  -16.5364 H   0  0  0  0  0  0  0  0  0  0  0  0
  -10.2181    6.1906  -18.0314 H   0  0  0  0  0  0  0  0  0  0  0  0
  1  2  1  0  0  0  0
  1  3  2  0  0  0  0
  2  5  2  0  0  0  0
  3  4  1  0  0  0  0
  3  7  1  0  0  0  0
  4 12  1  0  0  0  0
  4 17  2  0  0  0  0
  5 17  1  0  0  0  0
  5 22  1  0  0  0  0
  6 18  1  0  0  0  0
  6 19  2  0  0  0  0
  6 21  1  0  0  0  0
  7 20  1  0  0  0  0
  8 10  1  0  0  0  0
  8 12  1  0  0  0  0
  9 11  1  0  0  0  0
  9 12  1  0  0  0  0
 10 18  1  0  0  0  0
 11 18  1  0  0  0  0
 12 20  1  0  0  0  0
 13 16  1  0  0  0  0
 14 16  1  0  0  0  0
 15 16  1  0  0  0  0
 16 21  1  0  0  0  0
  1 23  1  0  0  0  0
  2 24  1  0  0  0  0
  7 25  1  0  0  0  0
  7 26  1  0  0  0  0
  8 27  1  0  0  0  0
  8 28  1  0  0  0  0
  9 29  1  0  0  0  0
  9 30  1  0  0  0  0
 10 31  1  0  0  0  0
 10 32  1  0  0  0  0
 11 33  1  0  0  0  0
 11 34  1  0  0  0  0
 13 35  1  0  0  0  0
 13 36  1  0  0  0  0
 13 37  1  0  0  0  0
 14 38  1  0  0  0  0
 14 39  1  0  0  0  0
 14 40  1  0  0  0  0
 15 41  1  0  0  0  0
 15 42  1  0  0  0  0
 15 43  1  0  0  0  0
M  END
> <id>
EN300-7470653

> <smiles>
CC(C)(C)OC(=O)N1CCC2(CC1)OCC=3C=CC(Cl)=NC32

> <MDLNUMBER>
MFCD18791791

> <IUPAC Name>
tert-butyl 2-chloro-5H-spiro[furo[3,4-b]pyridine-7,4'-piperidine]-1'-carboxylate

> <CAS>
1251012-22-2

> <URL>
https://www.enaminestore.com/catalog/EN300-7470653

> <ROCS_ShapeQuery>
_x0404_0B

> <ROCS_TanimotoCombo>
0.405 

> <ROCS_ShapeTanimoto>
0.321 

> <ROCS_ColorTanimoto>
0.084 

> <ROCS_RefTversky>
0.290 

> <ROCS_RefColorTversky>
0.089 

> <ROCS_RefTverskyCombo>
0.379 

> <ROCS_FitTversky>
1.498 

> <ROCS_FitColorTversky>
0.616 

> <ROCS_FitTverskyCombo>
2.113 

> <ROCS_ColorScore>
-6.435

> <ROCS_Overlap>
1934.497

> <ROCS_Rank>
90                  

$$$$
untitled-dbase-27228_3
  -OEChem-08212314543D

 52 56  0     0  0  0  0  0  0999 V2000
   -5.8727    2.7811  -17.6463 C   0  0  0  0  0  0  0  0  0  0  0  0
   -5.4655    1.6504  -16.9453 C   0  0  0  0  0  0  0  0  0  0  0  0
   -6.7684    3.6816  -17.0653 C   0  0  0  0  0  0  0  0  0  0  0  0
   -5.9464    1.4230  -15.6582 C   0  0  0  0  0  0  0  0  0  0  0  0
   -7.2678    3.4635  -15.7710 C   0  0  0  0  0  0  0  0  0  0  0  0
   -6.8262    2.3362  -15.0610 C   0  0  0  0  0  0  0  0  0  0  0  0
   -6.9219    1.1049  -10.5352 C   0  0  0  0  0  0  0  0  0  0  0  0
   -6.5721    1.0315  -11.8273 C   0  0  0  0  0  0  0  0  0  0  0  0
   -8.2124    4.4848  -15.2284 C   0  0  0  0  0  0  0  0  0  0  0  0
   -9.1460    3.3668  -10.9112 C   0  0  0  0  0  0  0  0  0  0  0  0
   -7.1019    2.3301   -9.6859 C   0  0  0  0  0  0  0  0  0  0  0  0
   -6.3220    2.1570  -12.7804 C   0  0  0  0  0  0  0  0  0  0  0  0
   -9.7301    6.9087  -11.6833 C   0  0  0  0  0  0  0  0  0  0  0  0
   -7.8838    6.4390  -12.5503 C   0  0  0  0  0  0  0  0  0  0  0  0
   -8.1766    5.6503  -10.2261 C   0  0  0  0  0  0  0  0  0  0  0  0
   -9.5325    1.5951   -8.9757 C   0  0  0  0  0  0  0  0  0  0  0  0
   -8.9562    3.4314   -8.2216 C   0  0  0  0  0  0  0  0  0  0  0  0
   -9.9372    4.9809  -13.4934 C   0  0  0  0  0  0  0  0  0  0  0  0
   -8.2710    6.8990  -11.1090 C   0  0  0  0  0  0  0  0  0  0  0  0
   -8.5964    2.7193   -9.5723 C   0  0  0  0  0  0  0  0  0  0  0  0
   -9.1907    5.5691  -12.3282 C   0  0  0  0  0  0  0  0  0  0  0  0
   -9.0339    4.0813  -14.1881 N   0  0  0  0  0  0  0  0  0  0  0  0
   -9.2375    2.1120   -7.6294 N   0  0  0  0  0  0  0  0  0  0  0  0
   -8.8636    4.7144  -11.1331 N   0  0  0  0  0  0  0  0  0  0  0  0
   -8.2203    5.6125  -15.7173 O   0  0  0  0  0  0  0  0  0  0  0  0
   -9.7827    2.6826  -11.7252 O   0  0  0  0  0  0  0  0  0  0  0  0
   -7.3134    2.0618  -13.8120 O   0  0  0  0  0  0  0  0  0  0  0  0
   -5.4999    2.9626  -18.6515 H   0  0  0  0  0  0  0  0  0  0  0  0
   -4.7706    0.9531  -17.3979 H   0  0  0  0  0  0  0  0  0  0  0  0
   -7.0891    4.5509  -17.6441 H   0  0  0  0  0  0  0  0  0  0  0  0
   -5.6083    0.5306  -15.1437 H   0  0  0  0  0  0  0  0  0  0  0  0
   -7.0990    0.1560  -10.0227 H   0  0  0  0  0  0  0  0  0  0  0  0
   -6.4732    0.0337  -12.2545 H   0  0  0  0  0  0  0  0  0  0  0  0
   -6.6883    2.1896   -8.6793 H   0  0  0  0  0  0  0  0  0  0  0  0
   -6.5131    3.1386  -10.1427 H   0  0  0  0  0  0  0  0  0  0  0  0
   -6.4402    3.0858  -12.2183 H   0  0  0  0  0  0  0  0  0  0  0  0
   -5.3250    2.1196  -13.2173 H   0  0  0  0  0  0  0  0  0  0  0  0
  -10.5403    6.8083  -10.9550 H   0  0  0  0  0  0  0  0  0  0  0  0
   -9.9728    7.7232  -12.3751 H   0  0  0  0  0  0  0  0  0  0  0  0
   -7.9327    7.2026  -13.3357 H   0  0  0  0  0  0  0  0  0  0  0  0
   -6.9425    5.8892  -12.6485 H   0  0  0  0  0  0  0  0  0  0  0  0
   -7.1496    5.3413  -10.0374 H   0  0  0  0  0  0  0  0  0  0  0  0
   -8.7377    5.7714   -9.2986 H   0  0  0  0  0  0  0  0  0  0  0  0
  -10.5898    1.6867   -9.2566 H   0  0  0  0  0  0  0  0  0  0  0  0
   -9.2222    0.5595   -9.1453 H   0  0  0  0  0  0  0  0  0  0  0  0
   -8.1500    3.9832   -7.7319 H   0  0  0  0  0  0  0  0  0  0  0  0
   -9.8487    4.0658   -8.2562 H   0  0  0  0  0  0  0  0  0  0  0  0
  -10.8220    4.4199  -13.1828 H   0  0  0  0  0  0  0  0  0  0  0  0
  -10.2608    5.7627  -14.1871 H   0  0  0  0  0  0  0  0  0  0  0  0
   -7.8573    7.8350  -10.7353 H   0  0  0  0  0  0  0  0  0  0  0  0
   -9.0167    3.1162  -13.8876 H   0  0  0  0  0  0  0  0  0  0  0  0
  -10.0213    2.0901   -6.9782 H   0  0  0  0  0  0  0  0  0  0  0  0
  1  2  2  0  0  0  0
  1  3  1  0  0  0  0
  2  4  1  0  0  0  0
  3  5  2  0  0  0  0
  4  6  2  0  0  0  0
  5  6  1  0  0  0  0
  5  9  1  0  0  0  0
  6 27  1  0  0  0  0
  7  8  2  0  0  0  0
  7 11  1  0  0  0  0
  8 12  1  0  0  0  0
  9 22  1  0  0  0  0
  9 25  2  0  0  0  0
 10 20  1  0  0  0  0
 10 24  1  0  0  0  0
 10 26  2  0  0  0  0
 11 20  1  0  0  0  0
 12 27  1  0  0  0  0
 13 19  1  0  0  0  0
 13 21  1  0  0  0  0
 14 19  1  0  0  0  0
 14 21  1  0  0  0  0
 15 19  1  0  0  0  0
 15 24  1  0  0  0  0
 16 20  1  0  0  0  0
 16 23  1  0  0  0  0
 17 20  1  0  0  0  0
 17 23  1  0  0  0  0
 18 21  1  0  0  0  0
 18 22  1  0  0  0  0
 21 24  1  0  0  0  0
  1 28  1  0  0  0  0
  2 29  1  0  0  0  0
  3 30  1  0  0  0  0
  4 31  1  0  0  0  0
  7 32  1  0  0  0  0
  8 33  1  0  0  0  0
 11 34  1  0  0  0  0
 11 35  1  0  0  0  0
 12 36  1  0  0  0  0
 12 37  1  0  0  0  0
 13 38  1  0  0  0  0
 13 39  1  0  0  0  0
 14 40  1  0  0  0  0
 14 41  1  0  0  0  0
 15 42  1  0  0  0  0
 15 43  1  0  0  0  0
 16 44  1  0  0  0  0
 16 45  1  0  0  0  0
 17 46  1  0  0  0  0
 17 47  1  0  0  0  0
 18 48  1  0  0  0  0
 18 49  1  0  0  0  0
 19 50  1  0  0  0  0
 22 51  1  0  0  0  0
 23 52  1  0  0  0  0
M  END
> <id>
EN300-6490459

> <smiles>
OC(=O)C(F)(F)F.O=C1NCC2(CC3C2)N(C3)C(=O)C4(CNC4)C/C=C\COC=5C=CC=CC15

> <MDLNUMBER>
MFCD31719996

> <IUPAC Name>
(13'Z)-11'-oxa-3',18'-diazaspiro[azetidine-3,16'-tetracyclo[18.1.1.0^{1,18}.0^{5,10}]docosane]-5'(10'),6',8',13'-tetraene-4',17'-dione; trifluoroacetic acid

> <URL>
https://www.enaminestore.com/catalog/EN300-6490459

> <Saltdate>
OC(=O)C(F)(F)F

> <ROCS_ShapeQuery>
_x0404_0B

> <ROCS_TanimotoCombo>
0.405 

> <ROCS_ShapeTanimoto>
0.268 

> <ROCS_ColorTanimoto>
0.137 

> <ROCS_RefTversky>
0.260 

> <ROCS_RefColorTversky>
0.150 

> <ROCS_RefTverskyCombo>
0.410 

> <ROCS_FitTversky>
1.140 

> <ROCS_FitColorTversky>
0.610 

> <ROCS_FitTverskyCombo>
1.750 

> <ROCS_ColorScore>
-10.862

> <ROCS_Overlap>
1737.319

> <ROCS_Rank>
91                  

$$$$
untitled-dbase-27229_3
  -OEChem-08212314543D

 52 56  0     0  0  0  0  0  0999 V2000
   -5.8727    2.7811  -17.6463 C   0  0  0  0  0  0  0  0  0  0  0  0
   -5.4655    1.6504  -16.9453 C   0  0  0  0  0  0  0  0  0  0  0  0
   -6.7684    3.6816  -17.0653 C   0  0  0  0  0  0  0  0  0  0  0  0
   -5.9464    1.4230  -15.6582 C   0  0  0  0  0  0  0  0  0  0  0  0
   -7.2678    3.4635  -15.7710 C   0  0  0  0  0  0  0  0  0  0  0  0
   -6.8262    2.3362  -15.0610 C   0  0  0  0  0  0  0  0  0  0  0  0
   -6.9219    1.1049  -10.5352 C   0  0  0  0  0  0  0  0  0  0  0  0
   -6.5721    1.0315  -11.8273 C   0  0  0  0  0  0  0  0  0  0  0  0
   -8.2124    4.4848  -15.2284 C   0  0  0  0  0  0  0  0  0  0  0  0
   -9.1460    3.3668  -10.9112 C   0  0  0  0  0  0  0  0  0  0  0  0
   -7.1019    2.3301   -9.6859 C   0  0  0  0  0  0  0  0  0  0  0  0
   -6.3220    2.1570  -12.7804 C   0  0  0  0  0  0  0  0  0  0  0  0
   -9.7301    6.9087  -11.6833 C   0  0  0  0  0  0  0  0  0  0  0  0
   -7.8838    6.4390  -12.5503 C   0  0  0  0  0  0  0  0  0  0  0  0
   -8.1766    5.6503  -10.2261 C   0  0  0  0  0  0  0  0  0  0  0  0
   -9.5325    1.5951   -8.9757 C   0  0  0  0  0  0  0  0  0  0  0  0
   -8.9562    3.4314   -8.2216 C   0  0  0  0  0  0  0  0  0  0  0  0
   -9.9372    4.9809  -13.4934 C   0  0  0  0  0  0  0  0  0  0  0  0
   -8.2710    6.8990  -11.1090 C   0  0  0  0  0  0  0  0  0  0  0  0
   -8.5964    2.7193   -9.5723 C   0  0  0  0  0  0  0  0  0  0  0  0
   -9.1907    5.5691  -12.3282 C   0  0  0  0  0  0  0  0  0  0  0  0
   -9.0339    4.0813  -14.1881 N   0  0  0  0  0  0  0  0  0  0  0  0
   -9.2375    2.1120   -7.6294 N   0  0  0  0  0  0  0  0  0  0  0  0
   -8.8636    4.7144  -11.1331 N   0  0  0  0  0  0  0  0  0  0  0  0
   -8.2203    5.6125  -15.7173 O   0  0  0  0  0  0  0  0  0  0  0  0
   -9.7827    2.6826  -11.7252 O   0  0  0  0  0  0  0  0  0  0  0  0
   -7.3134    2.0618  -13.8120 O   0  0  0  0  0  0  0  0  0  0  0  0
   -5.4999    2.9626  -18.6515 H   0  0  0  0  0  0  0  0  0  0  0  0
   -4.7706    0.9531  -17.3979 H   0  0  0  0  0  0  0  0  0  0  0  0
   -7.0891    4.5509  -17.6441 H   0  0  0  0  0  0  0  0  0  0  0  0
   -5.6083    0.5306  -15.1437 H   0  0  0  0  0  0  0  0  0  0  0  0
   -7.0990    0.1560  -10.0227 H   0  0  0  0  0  0  0  0  0  0  0  0
   -6.4732    0.0337  -12.2545 H   0  0  0  0  0  0  0  0  0  0  0  0
   -6.6883    2.1896   -8.6793 H   0  0  0  0  0  0  0  0  0  0  0  0
   -6.5131    3.1386  -10.1427 H   0  0  0  0  0  0  0  0  0  0  0  0
   -6.4402    3.0858  -12.2183 H   0  0  0  0  0  0  0  0  0  0  0  0
   -5.3250    2.1196  -13.2173 H   0  0  0  0  0  0  0  0  0  0  0  0
  -10.5403    6.8083  -10.9550 H   0  0  0  0  0  0  0  0  0  0  0  0
   -9.9728    7.7232  -12.3751 H   0  0  0  0  0  0  0  0  0  0  0  0
   -7.9327    7.2026  -13.3357 H   0  0  0  0  0  0  0  0  0  0  0  0
   -6.9425    5.8892  -12.6485 H   0  0  0  0  0  0  0  0  0  0  0  0
   -7.1496    5.3413  -10.0374 H   0  0  0  0  0  0  0  0  0  0  0  0
   -8.7377    5.7714   -9.2986 H   0  0  0  0  0  0  0  0  0  0  0  0
  -10.5898    1.6867   -9.2566 H   0  0  0  0  0  0  0  0  0  0  0  0
   -9.2222    0.5595   -9.1453 H   0  0  0  0  0  0  0  0  0  0  0  0
   -8.1500    3.9832   -7.7319 H   0  0  0  0  0  0  0  0  0  0  0  0
   -9.8487    4.0658   -8.2562 H   0  0  0  0  0  0  0  0  0  0  0  0
  -10.8220    4.4199  -13.1828 H   0  0  0  0  0  0  0  0  0  0  0  0
  -10.2608    5.7627  -14.1871 H   0  0  0  0  0  0  0  0  0  0  0  0
   -7.8573    7.8350  -10.7353 H   0  0  0  0  0  0  0  0  0  0  0  0
   -9.0167    3.1162  -13.8876 H   0  0  0  0  0  0  0  0  0  0  0  0
  -10.0213    2.0901   -6.9782 H   0  0  0  0  0  0  0  0  0  0  0  0
  1  2  2  0  0  0  0
  1  3  1  0  0  0  0
  2  4  1  0  0  0  0
  3  5  2  0  0  0  0
  4  6  2  0  0  0  0
  5  6  1  0  0  0  0
  5  9  1  0  0  0  0
  6 27  1  0  0  0  0
  7  8  2  0  0  0  0
  7 11  1  0  0  0  0
  8 12  1  0  0  0  0
  9 22  1  0  0  0  0
  9 25  2  0  0  0  0
 10 20  1  0  0  0  0
 10 24  1  0  0  0  0
 10 26  2  0  0  0  0
 11 20  1  0  0  0  0
 12 27  1  0  0  0  0
 13 19  1  0  0  0  0
 13 21  1  0  0  0  0
 14 19  1  0  0  0  0
 14 21  1  0  0  0  0
 15 19  1  0  0  0  0
 15 24  1  0  0  0  0
 16 20  1  0  0  0  0
 16 23  1  0  0  0  0
 17 20  1  0  0  0  0
 17 23  1  0  0  0  0
 18 21  1  0  0  0  0
 18 22  1  0  0  0  0
 21 24  1  0  0  0  0
  1 28  1  0  0  0  0
  2 29  1  0  0  0  0
  3 30  1  0  0  0  0
  4 31  1  0  0  0  0
  7 32  1  0  0  0  0
  8 33  1  0  0  0  0
 11 34  1  0  0  0  0
 11 35  1  0  0  0  0
 12 36  1  0  0  0  0
 12 37  1  0  0  0  0
 13 38  1  0  0  0  0
 13 39  1  0  0  0  0
 14 40  1  0  0  0  0
 14 41  1  0  0  0  0
 15 42  1  0  0  0  0
 15 43  1  0  0  0  0
 16 44  1  0  0  0  0
 16 45  1  0  0  0  0
 17 46  1  0  0  0  0
 17 47  1  0  0  0  0
 18 48  1  0  0  0  0
 18 49  1  0  0  0  0
 19 50  1  0  0  0  0
 22 51  1  0  0  0  0
 23 52  1  0  0  0  0
M  END
> <id>
EN300-6490460

> <smiles>
O=C1NCC2(CC3C2)N(C3)C(=O)C4(CNC4)C/C=C\COC=5C=CC=CC15

> <MDLNUMBER>
MFCD31719997

> <IUPAC Name>
(13'Z)-11'-oxa-3',18'-diazaspiro[azetidine-3,16'-tetracyclo[18.1.1.0^{1,18}.0^{5,10}]docosane]-5'(10'),6',8',13'-tetraene-4',17'-dione

> <URL>
https://www.enaminestore.com/catalog/EN300-6490460

> <ROCS_ShapeQuery>
_x0404_0B

> <ROCS_TanimotoCombo>
0.405 

> <ROCS_ShapeTanimoto>
0.268 

> <ROCS_ColorTanimoto>
0.137 

> <ROCS_RefTversky>
0.260 

> <ROCS_RefColorTversky>
0.150 

> <ROCS_RefTverskyCombo>
0.410 

> <ROCS_FitTversky>
1.140 

> <ROCS_FitColorTversky>
0.610 

> <ROCS_FitTverskyCombo>
1.750 

> <ROCS_ColorScore>
-10.862

> <ROCS_Overlap>
1737.319

> <ROCS_Rank>
92                  

$$$$
untitled-dbase-36046_0
  -OEChem-08212314543D

 31 34  0     0  0  0  0  0  0999 V2000
   -8.2572    5.3003  -17.3244 C   0  0  0  0  0  0  0  0  0  0  0  0
   -8.4119    4.1246  -16.6007 C   0  0  0  0  0  0  0  0  0  0  0  0
   -8.2230    6.5252  -16.6603 C   0  0  0  0  0  0  0  0  0  0  0  0
   -8.5329    4.1718  -15.2110 C   0  0  0  0  0  0  0  0  0  0  0  0
   -8.3077    7.8283  -14.6013 C   0  0  0  0  0  0  0  0  0  0  0  0
   -8.4256    7.9038  -13.2148 C   0  0  0  0  0  0  0  0  0  0  0  0
   -9.0456    3.1235  -10.3946 C   0  0  0  0  0  0  0  0  0  0  0  0
   -9.1469    4.2605   -8.2637 C   0  0  0  0  0  0  0  0  0  0  0  0
   -8.3432    6.5910  -15.2623 C   0  0  0  0  0  0  0  0  0  0  0  0
   -8.5016    5.3986  -14.5124 C   0  0  0  0  0  0  0  0  0  0  0  0
   -8.5814    6.7349  -12.4719 C   0  0  0  0  0  0  0  0  0  0  0  0
   -8.8680    5.5258  -10.2986 C   0  0  0  0  0  0  0  0  0  0  0  0
   -8.8927    4.3501  -11.0442 C   0  0  0  0  0  0  0  0  0  0  0  0
   -8.6207    5.4894  -13.1042 C   0  0  0  0  0  0  0  0  0  0  0  0
   -9.1726    3.0797   -9.0058 C   0  0  0  0  0  0  0  0  0  0  0  0
   -8.9944    5.4885   -8.9075 C   0  0  0  0  0  0  0  0  0  0  0  0
   -8.7063    6.8020  -11.0070 C   0  0  0  0  0  0  0  0  0  0  0  0
   -8.6720    7.8776  -10.4273 O   0  0  0  0  0  0  0  0  0  0  0  0
   -8.7738    4.3082  -12.4098 O   0  0  0  0  0  0  0  0  0  0  0  0
   -9.3217    1.8830   -8.3744 O   0  0  0  0  0  0  0  0  0  0  0  0
   -8.9765    6.6120   -8.1377 O   0  0  0  0  0  0  0  0  0  0  0  0
   -8.1636    5.2656  -18.4058 H   0  0  0  0  0  0  0  0  0  0  0  0
   -8.4403    3.1687  -17.1156 H   0  0  0  0  0  0  0  0  0  0  0  0
   -8.0998    7.4329  -17.2479 H   0  0  0  0  0  0  0  0  0  0  0  0
   -8.6519    3.2309  -14.6775 H   0  0  0  0  0  0  0  0  0  0  0  0
   -8.1871    8.7519  -15.1647 H   0  0  0  0  0  0  0  0  0  0  0  0
   -8.3923    8.8792  -12.7377 H   0  0  0  0  0  0  0  0  0  0  0  0
   -9.0675    2.2007  -10.9696 H   0  0  0  0  0  0  0  0  0  0  0  0
   -9.2459    4.2220   -7.1815 H   0  0  0  0  0  0  0  0  0  0  0  0
   -9.3967    2.0156   -7.4160 H   0  0  0  0  0  0  0  0  0  0  0  0
   -8.8659    7.3985   -8.6948 H   0  0  0  0  0  0  0  0  0  0  0  0
  1  2  1  0  0  0  0
  1  3  2  0  0  0  0
  2  4  2  0  0  0  0
  3  9  1  0  0  0  0
  4 10  1  0  0  0  0
  5  6  1  0  0  0  0
  5  9  2  0  0  0  0
  6 11  2  0  0  0  0
  7 13  2  0  0  0  0
  7 15  1  0  0  0  0
  8 15  2  0  0  0  0
  8 16  1  0  0  0  0
  9 10  1  0  0  0  0
 10 14  2  0  0  0  0
 11 14  1  0  0  0  0
 11 17  1  0  0  0  0
 12 13  1  0  0  0  0
 12 16  2  0  0  0  0
 12 17  1  0  0  0  0
 13 19  1  0  0  0  0
 14 19  1  0  0  0  0
 15 20  1  0  0  0  0
 16 21  1  0  0  0  0
 17 18  2  0  0  0  0
  1 22  1  0  0  0  0
  2 23  1  0  0  0  0
  3 24  1  0  0  0  0
  4 25  1  0  0  0  0
  5 26  1  0  0  0  0
  6 27  1  0  0  0  0
  7 28  1  0  0  0  0
  8 29  1  0  0  0  0
 20 30  1  0  0  0  0
 21 31  1  0  0  0  0
M  END
> <id>
EN300-303194

> <smiles>
OC=1C=C(O)C=2C(=O)C=3C=CC=4C=CC=CC4C3OC2C1

> <MDLNUMBER>
MFCD13969027

> <IUPAC Name>
1,3-dihydroxy-12H-5-oxatetraphen-12-one

> <CAS>
53865-02-4

> <URL>
https://www.enaminestore.com/catalog/EN300-303194

> <ROCS_ShapeQuery>
_x0404_0B

> <ROCS_TanimotoCombo>
0.404 

> <ROCS_ShapeTanimoto>
0.329 

> <ROCS_ColorTanimoto>
0.075 

> <ROCS_RefTversky>
0.296 

> <ROCS_RefColorTversky>
0.083 

> <ROCS_RefTverskyCombo>
0.379 

> <ROCS_FitTversky>
1.516 

> <ROCS_FitColorTversky>
0.449 

> <ROCS_FitTverskyCombo>
1.966 

> <ROCS_ColorScore>
-5.976

> <ROCS_Overlap>
1976.832

> <ROCS_Rank>
93                  

$$$$
untitled-dbase-30893_32
  -OEChem-08212314543D

 48 50  0     1  0  0  0  0  0999 V2000
   -7.8790    5.0515  -17.7372 C   0  0  0  0  0  0  0  0  0  0  0  0
   -9.2310    4.6946  -17.6143 C   0  0  0  0  0  0  0  0  0  0  0  0
   -7.2081    5.6743  -16.6828 C   0  0  0  0  0  0  0  0  0  0  0  0
   -9.9326    4.9587  -16.4362 C   0  0  0  0  0  0  0  0  0  0  0  0
   -7.9079    5.9207  -15.5139 C   0  0  0  0  0  0  0  0  0  0  0  0
   -9.2584    5.5724  -15.3919 C   0  0  0  0  0  0  0  0  0  0  0  0
   -8.8870    5.0905   -9.0669 C   0  0  0  0  0  0  0  0  0  0  0  0
   -7.4114    6.5812  -14.2651 C   0  0  0  0  0  0  0  0  0  0  0  0
   -8.5325    7.1256  -12.0452 C   0  0  0  0  0  0  0  0  0  0  0  0
   -8.0568    4.7380  -12.6304 C   0  0  0  0  0  0  0  0  0  0  0  0
   -9.4375    6.6524  -10.9112 C   0  0  0  0  0  0  0  0  0  0  0  0
   -8.9333    4.2875  -11.4606 C   0  0  0  0  0  0  0  0  0  0  0  0
   -9.8095    5.9901  -14.0503 C   0  0  1  0  0  0  0  0  0  0  0  0
   -8.4746    6.1229  -13.2186 C   0  0  0  0  0  0  0  0  0  0  0  0
  -10.8332    3.5536   -8.2080 C   0  0  0  0  0  0  0  0  0  0  0  0
   -9.2888    1.5801   -8.3801 C   0  0  0  0  0  0  0  0  0  0  0  0
   -9.0045    3.2313   -6.5090 C   0  0  0  0  0  0  0  0  0  0  0  0
   -9.4118    3.0461   -7.9700 C   0  0  0  0  0  0  0  0  0  0  0  0
   -9.0411    5.3289  -10.4369 N   0  0  0  0  0  0  0  0  0  0  0  0
  -10.5496    7.2420  -14.2060 N   0  0  0  0  0  0  0  0  0  0  0  0
   -9.0646    5.9364   -8.1920 O   0  0  0  0  0  0  0  0  0  0  0  0
   -8.5146    3.8009   -8.7927 O   0  0  0  0  0  0  0  0  0  0  0  0
   -7.3512    4.8431  -18.6641 H   0  0  0  0  0  0  0  0  0  0  0  0
   -9.7369    4.2136  -18.4471 H   0  0  0  0  0  0  0  0  0  0  0  0
   -6.1646    5.9530  -16.7819 H   0  0  0  0  0  0  0  0  0  0  0  0
  -10.9801    4.6913  -16.3479 H   0  0  0  0  0  0  0  0  0  0  0  0
   -6.3967    6.2590  -14.0192 H   0  0  0  0  0  0  0  0  0  0  0  0
   -7.4214    7.6683  -14.4045 H   0  0  0  0  0  0  0  0  0  0  0  0
   -8.8996    8.0936  -12.4082 H   0  0  0  0  0  0  0  0  0  0  0  0
   -7.5317    7.3000  -11.6350 H   0  0  0  0  0  0  0  0  0  0  0  0
   -7.0123    4.7458  -12.3031 H   0  0  0  0  0  0  0  0  0  0  0  0
   -8.1293    3.9795  -13.4192 H   0  0  0  0  0  0  0  0  0  0  0  0
   -9.3791    7.3363  -10.0557 H   0  0  0  0  0  0  0  0  0  0  0  0
  -10.4768    6.6585  -11.2536 H   0  0  0  0  0  0  0  0  0  0  0  0
   -9.9253    4.0135  -11.8326 H   0  0  0  0  0  0  0  0  0  0  0  0
   -8.5192    3.3985  -10.9749 H   0  0  0  0  0  0  0  0  0  0  0  0
  -10.4619    5.2221  -13.6422 H   0  0  0  0  0  0  0  0  0  0  0  0
  -10.9256    4.6055   -7.9149 H   0  0  0  0  0  0  0  0  0  0  0  0
  -11.1248    3.4586   -9.2590 H   0  0  0  0  0  0  0  0  0  0  0  0
  -11.5541    2.9981   -7.5972 H   0  0  0  0  0  0  0  0  0  0  0  0
   -8.2705    1.2118   -8.2110 H   0  0  0  0  0  0  0  0  0  0  0  0
   -9.4881    1.4563   -9.4507 H   0  0  0  0  0  0  0  0  0  0  0  0
   -9.9844    0.9449   -7.8222 H   0  0  0  0  0  0  0  0  0  0  0  0
   -7.9849    2.8673   -6.3380 H   0  0  0  0  0  0  0  0  0  0  0  0
   -9.0512    4.2827   -6.2075 H   0  0  0  0  0  0  0  0  0  0  0  0
   -9.6556    2.6497   -5.8463 H   0  0  0  0  0  0  0  0  0  0  0  0
  -11.3072    7.0778  -14.8249 H   0  0  0  0  0  0  0  0  0  0  0  0
  -10.8787    7.5187  -13.3121 H   0  0  0  0  0  0  0  0  0  0  0  0
  1  2  2  0  0  0  0
  1  3  1  0  0  0  0
  2  4  1  0  0  0  0
  3  5  2  0  0  0  0
  4  6  2  0  0  0  0
  5  6  1  0  0  0  0
  5  8  1  0  0  0  0
  6 13  1  0  0  0  0
  7 19  1  0  0  0  0
  7 21  2  0  0  0  0
  7 22  1  0  0  0  0
  8 14  1  0  0  0  0
  9 11  1  0  0  0  0
  9 14  1  0  0  0  0
 10 12  1  0  0  0  0
 10 14  1  0  0  0  0
 11 19  1  0  0  0  0
 12 19  1  0  0  0  0
 13 14  1  0  0  0  0
 13 20  1  0  0  0  0
 15 18  1  0  0  0  0
 16 18  1  0  0  0  0
 17 18  1  0  0  0  0
 18 22  1  0  0  0  0
  1 23  1  0  0  0  0
  2 24  1  0  0  0  0
  3 25  1  0  0  0  0
  4 26  1  0  0  0  0
  8 27  1  0  0  0  0
  8 28  1  0  0  0  0
  9 29  1  0  0  0  0
  9 30  1  0  0  0  0
 10 31  1  0  0  0  0
 10 32  1  0  0  0  0
 11 33  1  0  0  0  0
 11 34  1  0  0  0  0
 12 35  1  0  0  0  0
 12 36  1  0  0  0  0
 13 37  1  0  0  0  0
 15 38  1  0  0  0  0
 15 39  1  0  0  0  0
 15 40  1  0  0  0  0
 16 41  1  0  0  0  0
 16 42  1  0  0  0  0
 16 43  1  0  0  0  0
 17 44  1  0  0  0  0
 17 45  1  0  0  0  0
 17 46  1  0  0  0  0
 20 47  1  0  0  0  0
 20 48  1  0  0  0  0
M  END
> <id>
EN300-26862532

> <smiles>
CC(C)(C)OC(=O)N1CCC2(CC=3C=CC=CC3C2N)CC1

> <MDLNUMBER>
MFCD32679174

> <IUPAC Name>
tert-butyl 1-amino-1,3-dihydrospiro[indene-2,4'-piperidine]-1'-carboxylate

> <CAS>
2377354-79-3

> <Purity>
95

> <URL>
https://www.enaminestore.com/catalog/EN300-26862532

> <ROCS_ShapeQuery>
_x0404_0B

> <ROCS_TanimotoCombo>
0.404 

> <ROCS_ShapeTanimoto>
0.354 

> <ROCS_ColorTanimoto>
0.050 

> <ROCS_RefTversky>
0.312 

> <ROCS_RefColorTversky>
0.054 

> <ROCS_RefTverskyCombo>
0.366 

> <ROCS_FitTversky>
1.621 

> <ROCS_FitColorTversky>
0.373 

> <ROCS_FitTverskyCombo>
1.995 

> <ROCS_ColorScore>
-3.901

> <ROCS_Overlap>
2081.919

> <ROCS_Rank>
94                  

$$$$
untitled-dbase-14985_90
  -OEChem-08212314543D

 43 45  0     1  0  0  0  0  0999 V2000
   -9.0956    2.7954   -7.5467 C   0  0  0  0  0  0  0  0  0  0  0  0
   -8.7014    4.7661   -8.1467 C   0  0  0  0  0  0  0  0  0  0  0  0
   -8.5190    5.6530  -14.4151 C   0  0  0  0  0  0  0  0  0  0  0  0
  -10.2907    4.3080  -11.3253 C   0  0  0  0  0  0  0  0  0  0  0  0
  -10.1122    4.5356  -12.8270 C   0  0  0  0  0  0  0  0  0  0  0  0
   -8.6473    6.7207   -9.5902 C   0  0  0  0  0  0  0  0  0  0  0  0
   -8.7495    6.4874  -12.0900 C   0  0  0  0  0  0  0  0  0  0  0  0
   -8.3128    5.8006  -10.7815 C   0  0  2  0  0  0  0  0  0  0  0  0
   -8.9327    4.3867  -10.6215 C   0  0  1  0  0  0  0  0  0  0  0  0
   -6.5006    4.9692  -16.3239 C   0  0  0  0  0  0  0  0  0  0  0  0
   -8.0253    3.0865  -16.9870 C   0  0  0  0  0  0  0  0  0  0  0  0
   -8.7820    5.4653  -17.2640 C   0  0  0  0  0  0  0  0  0  0  0  0
   -7.9522    4.5014  -16.4171 C   0  0  0  0  0  0  0  0  0  0  0  0
   -8.7581    4.0268   -7.0594 N   0  0  0  0  0  0  0  0  0  0  0  0
   -9.2416    2.7143   -8.8709 N   0  0  0  0  0  0  0  0  0  0  0  0
   -8.9936    3.9846   -9.2296 N   0  0  0  0  0  0  0  0  0  0  0  0
   -8.3946    6.0671   -8.3193 N   0  0  0  0  0  0  0  0  0  0  0  0
   -9.0779    5.5279  -13.1395 N   0  0  0  0  0  0  0  0  0  0  0  0
   -9.2505    1.7714   -6.6683 N   0  0  0  0  0  0  0  0  0  0  0  0
   -8.0898    6.7041  -14.8868 O   0  0  0  0  0  0  0  0  0  0  0  0
   -8.5045    4.4636  -15.0962 O   0  0  0  0  0  0  0  0  0  0  0  0
  -10.9775    5.0552  -10.9282 H   0  0  0  0  0  0  0  0  0  0  0  0
  -10.7451    3.3323  -11.1597 H   0  0  0  0  0  0  0  0  0  0  0  0
   -9.8190    3.5936  -13.3245 H   0  0  0  0  0  0  0  0  0  0  0  0
  -11.0771    4.8319  -13.2733 H   0  0  0  0  0  0  0  0  0  0  0  0
   -8.0409    7.6361   -9.6468 H   0  0  0  0  0  0  0  0  0  0  0  0
   -9.6991    7.0404   -9.6210 H   0  0  0  0  0  0  0  0  0  0  0  0
   -9.5824    7.1741  -11.8914 H   0  0  0  0  0  0  0  0  0  0  0  0
   -7.9231    7.1047  -12.4722 H   0  0  0  0  0  0  0  0  0  0  0  0
   -7.2189    5.7080  -10.8198 H   0  0  0  0  0  0  0  0  0  0  0  0
   -8.2431    3.6665  -11.1280 H   0  0  0  0  0  0  0  0  0  0  0  0
   -6.4439    5.9845  -15.9153 H   0  0  0  0  0  0  0  0  0  0  0  0
   -5.9028    4.3056  -15.6907 H   0  0  0  0  0  0  0  0  0  0  0  0
   -6.0382    5.0094  -17.3168 H   0  0  0  0  0  0  0  0  0  0  0  0
   -9.0651    2.7467  -17.0556 H   0  0  0  0  0  0  0  0  0  0  0  0
   -7.5106    2.3746  -16.3315 H   0  0  0  0  0  0  0  0  0  0  0  0
   -7.5751    3.0284  -17.9832 H   0  0  0  0  0  0  0  0  0  0  0  0
   -9.8233    5.1299  -17.3309 H   0  0  0  0  0  0  0  0  0  0  0  0
   -8.7713    6.4784  -16.8491 H   0  0  0  0  0  0  0  0  0  0  0  0
   -8.4035    5.5058  -18.2918 H   0  0  0  0  0  0  0  0  0  0  0  0
   -8.0748    6.6402   -7.5503 H   0  0  0  0  0  0  0  0  0  0  0  0
   -9.5493    0.8381   -6.9740 H   0  0  0  0  0  0  0  0  0  0  0  0
   -9.1674    1.9119   -5.6548 H   0  0  0  0  0  0  0  0  0  0  0  0
  1 14  1  0  0  0  0
  1 15  2  0  0  0  0
  1 19  1  0  0  0  0
  2 14  2  0  0  0  0
  2 16  1  0  0  0  0
  2 17  1  0  0  0  0
  3 18  1  0  0  0  0
  3 20  2  0  0  0  0
  3 21  1  0  0  0  0
  4  5  1  0  0  0  0
  4  9  1  0  0  0  0
  5 18  1  0  0  0  0
  6  8  1  0  0  0  0
  6 17  1  0  0  0  0
  7  8  1  0  0  0  0
  7 18  1  0  0  0  0
  8  9  1  0  0  0  0
  9 16  1  0  0  0  0
 10 13  1  0  0  0  0
 11 13  1  0  0  0  0
 12 13  1  0  0  0  0
 13 21  1  0  0  0  0
 15 16  1  0  0  0  0
  4 22  1  0  0  0  0
  4 23  1  0  0  0  0
  5 24  1  0  0  0  0
  5 25  1  0  0  0  0
  6 26  1  0  0  0  0
  6 27  1  0  0  0  0
  7 28  1  0  0  0  0
  7 29  1  0  0  0  0
  8 30  1  0  0  0  0
  9 31  1  0  0  0  0
 10 32  1  0  0  0  0
 10 33  1  0  0  0  0
 10 34  1  0  0  0  0
 11 35  1  0  0  0  0
 11 36  1  0  0  0  0
 11 37  1  0  0  0  0
 12 38  1  0  0  0  0
 12 39  1  0  0  0  0
 12 40  1  0  0  0  0
 17 41  1  0  0  0  0
 19 42  1  0  0  0  0
 19 43  1  0  0  0  0
M  END
> <id>
EN300-1118523

> <smiles>
CC(C)(C)OC(=O)N1CCC2C(CNC3=NC(N)=NN23)C1

> <IUPAC Name>
tert-butyl 4-amino-2,3,5,7,11-pentaazatricyclo[7.4.0.0,2,6]trideca-3,5-diene-11-carboxylate

> <CAS>
1691108-25-4

> <URL>
https://www.enaminestore.com/catalog/EN300-1118523

> <ROCS_ShapeQuery>
_x0404_0B

> <ROCS_TanimotoCombo>
0.404 

> <ROCS_ShapeTanimoto>
0.324 

> <ROCS_ColorTanimoto>
0.079 

> <ROCS_RefTversky>
0.291 

> <ROCS_RefColorTversky>
0.087 

> <ROCS_RefTverskyCombo>
0.378 

> <ROCS_FitTversky>
1.535 

> <ROCS_FitColorTversky>
0.472 

> <ROCS_FitTverskyCombo>
2.007 

> <ROCS_ColorScore>
-6.290

> <ROCS_Overlap>
1944.354

> <ROCS_Rank>
95                  

$$$$
untitled-dbase-49614_50
  -OEChem-08212314543D

 54 56  0     1  0  0  0  0  0999 V2000
   -9.3150    2.0669   -8.1400 C   0  0  0  0  0  0  0  0  0  0  0  0
   -9.6296    3.4035   -8.4011 C   0  0  0  0  0  0  0  0  0  0  0  0
   -8.3371    1.4068   -8.8891 C   0  0  0  0  0  0  0  0  0  0  0  0
   -7.9713    3.4340  -10.1714 C   0  0  0  0  0  0  0  0  0  0  0  0
   -8.9671    4.0759   -9.4290 C   0  0  0  0  0  0  0  0  0  0  0  0
   -7.6717    2.1002   -9.8974 C   0  0  0  0  0  0  0  0  0  0  0  0
   -6.4258    3.3356  -15.2929 C   0  0  0  0  0  0  0  0  0  0  0  0
   -5.8835    2.9944  -14.1142 C   0  0  0  0  0  0  0  0  0  0  0  0
   -9.2781    5.4928   -9.7058 C   0  0  0  0  0  0  0  0  0  0  0  0
   -8.2027    5.5885  -14.1665 C   0  0  0  0  0  0  0  0  0  0  0  0
   -6.4334    4.7328  -15.8482 C   0  0  0  0  0  0  0  0  0  0  0  0
   -5.9314    1.6057  -13.5516 C   0  0  0  0  0  0  0  0  0  0  0  0
   -8.1290    7.3544  -12.3481 C   0  0  0  0  0  0  0  0  0  0  0  0
   -8.0636    6.5670  -16.6722 C   0  0  0  0  0  0  0  0  0  0  0  0
   -8.9707    4.7049  -16.5461 C   0  0  0  0  0  0  0  0  0  0  0  0
   -9.4597    7.1147  -11.6114 C   0  0  1  0  0  0  0  0  0  0  0  0
   -7.8378    5.3682  -15.6933 C   0  0  0  0  0  0  0  0  0  0  0  0
  -10.6935    7.3644  -12.4707 C   0  0  0  0  0  0  0  0  0  0  0  0
   -8.2225    0.9294  -12.8803 C   0  0  0  0  0  0  0  0  0  0  0  0
   -9.4787    5.7697  -11.0468 N   0  0  0  0  0  0  0  0  0  0  0  0
   -8.0337    6.8963  -13.7291 N   0  0  0  0  0  0  0  0  0  0  0  0
   -8.6670    5.6381  -17.6475 N   0  0  0  0  0  0  0  0  0  0  0  0
   -6.9565    1.5912  -12.4655 N   0  0  1  0  0  0  0  0  0  0  0  0
   -9.3123    6.2941   -8.7793 O   0  0  0  0  0  0  0  0  0  0  0  0
   -8.5826    4.6673  -13.4369 O   0  0  0  0  0  0  0  0  0  0  0  0
   -5.1992    2.0795  -10.6052 O   0  0  0  0  0  0  0  0  0  0  0  0
   -6.4520   -0.1086  -10.5829 O   0  0  0  0  0  0  0  0  0  0  0  0
   -6.4075    1.3157  -10.8531 S   0  0  0  0  0  0  0  0  0  0  0  0
   -9.8382    1.5348   -7.3498 H   0  0  0  0  0  0  0  0  0  0  0  0
  -10.3949    3.8957   -7.8090 H   0  0  0  0  0  0  0  0  0  0  0  0
   -8.1187    0.3663   -8.6734 H   0  0  0  0  0  0  0  0  0  0  0  0
   -7.4413    3.9623  -10.9534 H   0  0  0  0  0  0  0  0  0  0  0  0
   -6.8495    2.5537  -15.9220 H   0  0  0  0  0  0  0  0  0  0  0  0
   -5.3450    3.7446  -13.5361 H   0  0  0  0  0  0  0  0  0  0  0  0
   -5.6794    5.3448  -15.3445 H   0  0  0  0  0  0  0  0  0  0  0  0
   -6.1600    4.6964  -16.9062 H   0  0  0  0  0  0  0  0  0  0  0  0
   -6.1483    0.8555  -14.2910 H   0  0  0  0  0  0  0  0  0  0  0  0
   -4.9600    1.4068  -13.1192 H   0  0  0  0  0  0  0  0  0  0  0  0
   -7.8552    8.4353  -12.3064 H   0  0  0  0  0  0  0  0  0  0  0  0
   -7.3102    6.8304  -11.8036 H   0  0  0  0  0  0  0  0  0  0  0  0
   -8.7308    7.3769  -16.3536 H   0  0  0  0  0  0  0  0  0  0  0  0
   -7.1419    7.0408  -17.0457 H   0  0  0  0  0  0  0  0  0  0  0  0
   -8.8118    3.6489  -16.8186 H   0  0  0  0  0  0  0  0  0  0  0  0
   -9.9941    4.7897  -16.1522 H   0  0  0  0  0  0  0  0  0  0  0  0
   -9.4910    7.8242  -10.7540 H   0  0  0  0  0  0  0  0  0  0  0  0
  -10.6954    6.6850  -13.3220 H   0  0  0  0  0  0  0  0  0  0  0  0
  -10.6895    8.3908  -12.8348 H   0  0  0  0  0  0  0  0  0  0  0  0
  -11.5946    7.1991  -11.8816 H   0  0  0  0  0  0  0  0  0  0  0  0
   -8.9375    0.9480  -12.0446 H   0  0  0  0  0  0  0  0  0  0  0  0
   -8.6507    1.4642  -13.7410 H   0  0  0  0  0  0  0  0  0  0  0  0
   -8.0156   -0.1134  -13.1626 H   0  0  0  0  0  0  0  0  0  0  0  0
   -9.6495    4.9891  -11.6764 H   0  0  0  0  0  0  0  0  0  0  0  0
   -7.7991    7.6160  -14.4209 H   0  0  0  0  0  0  0  0  0  0  0  0
   -9.5043    6.0162  -18.0925 H   0  0  0  0  0  0  0  0  0  0  0  0
  1  2  1  0  0  0  0
  1  3  2  0  0  0  0
  2  5  2  0  0  0  0
  3  6  1  0  0  0  0
  4  5  1  0  0  0  0
  4  6  2  0  0  0  0
  5  9  1  0  0  0  0
  6 28  1  0  0  0  0
  7  8  2  0  0  0  0
  7 11  1  0  0  0  0
  8 12  1  0  0  0  0
  9 20  1  0  0  0  0
  9 24  2  0  0  0  0
 10 17  1  0  0  0  0
 10 21  1  0  0  0  0
 10 25  2  0  0  0  0
 11 17  1  0  0  0  0
 12 23  1  0  0  0  0
 13 16  1  0  0  0  0
 13 21  1  0  0  0  0
 14 17  1  0  0  0  0
 14 22  1  0  0  0  0
 15 17  1  0  0  0  0
 15 22  1  0  0  0  0
 16 18  1  6  0  0  0
 16 20  1  0  0  0  0
 19 23  1  0  0  0  0
 23 28  1  0  0  0  0
 26 28  2  0  0  0  0
 27 28  2  0  0  0  0
  1 29  1  0  0  0  0
  2 30  1  0  0  0  0
  3 31  1  0  0  0  0
  4 32  1  0  0  0  0
  7 33  1  0  0  0  0
  8 34  1  0  0  0  0
 11 35  1  0  0  0  0
 11 36  1  0  0  0  0
 12 37  1  0  0  0  0
 12 38  1  0  0  0  0
 13 39  1  0  0  0  0
 13 40  1  0  0  0  0
 14 41  1  0  0  0  0
 14 42  1  0  0  0  0
 15 43  1  0  0  0  0
 15 44  1  0  0  0  0
 16 45  1  0  0  0  0
 18 46  1  0  0  0  0
 18 47  1  0  0  0  0
 18 48  1  0  0  0  0
 19 49  1  0  0  0  0
 19 50  1  0  0  0  0
 19 51  1  0  0  0  0
 20 52  1  0  0  0  0
 21 53  1  0  0  0  0
 22 54  1  0  0  0  0
M  END
> <id>
EN300-6733235

> <smiles>
C[C@@H]1CNC(=O)C2(CNC2)C/C=C/CN(C)S(=O)(=O)C=3C=CC=C(C3)C(=O)N1.OC(=O)C(F)(F)F

> <MDLNUMBER>
MFCD31746228

> <IUPAC Name>
(5'E,12'R)-3',12'-dimethyl-2'lambda6-thia-3',10',13'-triazaspiro[azetidine-3,8'-bicyclo[13.3.1]nonadecane]-1'(19'),5',15',17'-tetraene-2',2',9',14'-tetrone; trifluoroacetic acid

> <CAS>
2648862-39-7

> <URL>
https://www.enaminestore.com/catalog/EN300-6733235

> <Saltdate>
OC(=O)C(F)(F)F

> <ROCS_ShapeQuery>
_x0404_0B

> <ROCS_TanimotoCombo>
0.403 

> <ROCS_ShapeTanimoto>
0.322 

> <ROCS_ColorTanimoto>
0.082 

> <ROCS_RefTversky>
0.298 

> <ROCS_RefColorTversky>
0.089 

> <ROCS_RefTverskyCombo>
0.387 

> <ROCS_FitTversky>
1.330 

> <ROCS_FitColorTversky>
0.487 

> <ROCS_FitTverskyCombo>
1.817 

> <ROCS_ColorScore>
-6.468

> <ROCS_Overlap>
1991.397

> <ROCS_Rank>
96                  

$$$$
untitled-dbase-14195_77
  -OEChem-08212314543D

 39 40  0     0  0  0  0  0  0999 V2000
   -8.8549    3.0589  -10.1722 C   0  0  0  0  0  0  0  0  0  0  0  0
   -9.2319    4.3112   -8.1377 C   0  0  0  0  0  0  0  0  0  0  0  0
   -8.6618    4.2464  -10.8928 C   0  0  0  0  0  0  0  0  0  0  0  0
   -9.1464    3.0916   -8.8064 C   0  0  0  0  0  0  0  0  0  0  0  0
   -8.7595    5.4643  -10.2025 C   0  0  0  0  0  0  0  0  0  0  0  0
   -9.0288    5.5007   -8.8327 C   0  0  0  0  0  0  0  0  0  0  0  0
   -8.2295    5.5530  -14.4556 C   0  0  0  0  0  0  0  0  0  0  0  0
   -8.2907    4.1695  -12.3553 C   0  0  0  0  0  0  0  0  0  0  0  0
   -9.9728    5.9963  -12.7563 C   0  0  0  0  0  0  0  0  0  0  0  0
   -9.5926    7.0387  -11.7054 C   0  0  0  0  0  0  0  0  0  0  0  0
   -5.9476    5.6873  -16.1764 C   0  0  0  0  0  0  0  0  0  0  0  0
   -6.5274    3.3307  -16.8240 C   0  0  0  0  0  0  0  0  0  0  0  0
   -8.1452    5.1923  -17.2989 C   0  0  0  0  0  0  0  0  0  0  0  0
   -7.0766    4.6707  -16.3392 C   0  0  0  0  0  0  0  0  0  0  0  0
   -8.8022    5.2514  -13.2139 N   0  0  0  0  0  0  0  0  0  0  0  0
   -9.3451    1.8862   -8.1006 N   0  0  0  0  0  0  0  0  0  0  0  0
   -8.2175    6.6740  -14.9606 O   0  0  0  0  0  0  0  0  0  0  0  0
   -8.5189    6.6537  -10.8361 O   0  0  0  0  0  0  0  0  0  0  0  0
   -7.6809    4.4518  -15.0594 O   0  0  0  0  0  0  0  0  0  0  0  0
   -9.1040    6.6711   -8.1858 F   0  0  0  0  0  0  0  0  0  0  0  0
   -8.7698    2.0989  -10.6789 H   0  0  0  0  0  0  0  0  0  0  0  0
   -9.4539    4.3453   -7.0744 H   0  0  0  0  0  0  0  0  0  0  0  0
   -7.1801    4.1464  -12.4523 H   0  0  0  0  0  0  0  0  0  0  0  0
   -8.6124    3.1904  -12.7783 H   0  0  0  0  0  0  0  0  0  0  0  0
  -10.7080    5.3050  -12.3288 H   0  0  0  0  0  0  0  0  0  0  0  0
  -10.4289    6.4740  -13.6322 H   0  0  0  0  0  0  0  0  0  0  0  0
   -9.2430    7.9487  -12.2327 H   0  0  0  0  0  0  0  0  0  0  0  0
  -10.4811    7.3770  -11.1242 H   0  0  0  0  0  0  0  0  0  0  0  0
   -6.3377    6.6505  -15.8285 H   0  0  0  0  0  0  0  0  0  0  0  0
   -5.1921    5.3404  -15.4639 H   0  0  0  0  0  0  0  0  0  0  0  0
   -5.4549    5.8817  -17.1359 H   0  0  0  0  0  0  0  0  0  0  0  0
   -7.3341    2.5983  -16.9422 H   0  0  0  0  0  0  0  0  0  0  0  0
   -5.8304    2.9068  -16.0920 H   0  0  0  0  0  0  0  0  0  0  0  0
   -6.0064    3.4303  -17.7817 H   0  0  0  0  0  0  0  0  0  0  0  0
   -8.9552    4.4633  -17.4159 H   0  0  0  0  0  0  0  0  0  0  0  0
   -8.5769    6.1352  -16.9478 H   0  0  0  0  0  0  0  0  0  0  0  0
   -7.7262    5.3521  -18.2990 H   0  0  0  0  0  0  0  0  0  0  0  0
   -9.3211    1.0200   -8.5991 H   0  0  0  0  0  0  0  0  0  0  0  0
   -9.5995    1.9236   -7.1345 H   0  0  0  0  0  0  0  0  0  0  0  0
  1  3  2  0  0  0  0
  1  4  1  0  0  0  0
  2  4  2  0  0  0  0
  2  6  1  0  0  0  0
  3  5  1  0  0  0  0
  3  8  1  0  0  0  0
  4 16  1  0  0  0  0
  5  6  2  0  0  0  0
  5 18  1  0  0  0  0
  6 20  1  0  0  0  0
  7 15  1  0  0  0  0
  7 17  2  0  0  0  0
  7 19  1  0  0  0  0
  8 15  1  0  0  0  0
  9 10  1  0  0  0  0
  9 15  1  0  0  0  0
 10 18  1  0  0  0  0
 11 14  1  0  0  0  0
 12 14  1  0  0  0  0
 13 14  1  0  0  0  0
 14 19  1  0  0  0  0
  1 21  1  0  0  0  0
  2 22  1  0  0  0  0
  8 23  1  0  0  0  0
  8 24  1  0  0  0  0
  9 25  1  0  0  0  0
  9 26  1  0  0  0  0
 10 27  1  0  0  0  0
 10 28  1  0  0  0  0
 11 29  1  0  0  0  0
 11 30  1  0  0  0  0
 11 31  1  0  0  0  0
 12 32  1  0  0  0  0
 12 33  1  0  0  0  0
 12 34  1  0  0  0  0
 13 35  1  0  0  0  0
 13 36  1  0  0  0  0
 13 37  1  0  0  0  0
 16 38  1  0  0  0  0
 16 39  1  0  0  0  0
M  END
> <id>
EN300-1129039

> <smiles>
CC(C)(C)OC(=O)N1CCOC=2C(F)=CC(N)=CC2C1

> <IUPAC Name>
tert-butyl 7-amino-9-fluoro-2,3,4,5-tetrahydro-1,4-benzoxazepine-4-carboxylate

> <CAS>
2137588-11-3

> <URL>
https://www.enaminestore.com/catalog/EN300-1129039

> <ROCS_ShapeQuery>
_x0404_0B

> <ROCS_TanimotoCombo>
0.403 

> <ROCS_ShapeTanimoto>
0.310 

> <ROCS_ColorTanimoto>
0.093 

> <ROCS_RefTversky>
0.279 

> <ROCS_RefColorTversky>
0.098 

> <ROCS_RefTverskyCombo>
0.377 

> <ROCS_FitTversky>
1.549 

> <ROCS_FitColorTversky>
0.675 

> <ROCS_FitTverskyCombo>
2.224 

> <ROCS_ColorScore>
-7.043

> <ROCS_Overlap>
1861.531

> <ROCS_Rank>
97                  

$$$$
untitled-dbase-43727_1686
  -OEChem-08212314543D

 45 46  0     1  0  0  0  0  0999 V2000
   -8.5625    5.6734  -14.2776 C   0  0  0  0  0  0  0  0  0  0  0  0
   -8.2872    4.0341  -10.8971 C   0  0  0  0  0  0  0  0  0  0  0  0
   -9.9275    5.9799  -10.8479 C   0  0  0  0  0  0  0  0  0  0  0  0
  -10.4147    3.9879   -9.4032 C   0  0  0  0  0  0  0  0  0  0  0  0
   -8.6620    4.0306  -12.3753 C   0  0  0  0  0  0  0  0  0  0  0  0
   -9.0293    6.4698  -11.9786 C   0  0  0  0  0  0  0  0  0  0  0  0
   -8.0217    4.6452   -7.9562 C   0  0  0  0  0  0  0  0  0  0  0  0
   -9.9967    3.1264   -8.2096 C   0  0  2  0  0  0  0  0  0  0  0  0
   -9.1638    3.9518   -7.2327 C   0  0  1  0  0  0  0  0  0  0  0  0
   -9.2726    4.8440  -10.0173 C   0  0  0  0  0  0  0  0  0  0  0  0
   -7.3625    5.0951  -16.8093 C   0  0  0  0  0  0  0  0  0  0  0  0
   -9.3416    3.5979  -17.1978 C   0  0  0  0  0  0  0  0  0  0  0  0
   -9.6830    6.0667  -16.8870 C   0  0  0  0  0  0  0  0  0  0  0  0
   -8.8382    4.8559  -16.4933 C   0  0  0  0  0  0  0  0  0  0  0  0
   -8.7354    5.3897  -12.9198 N   0  0  0  0  0  0  0  0  0  0  0  0
   -8.1005    6.7270  -14.7117 O   0  0  0  0  0  0  0  0  0  0  0  0
   -8.5300    5.5043   -8.9725 O   0  0  0  0  0  0  0  0  0  0  0  0
   -9.2578    1.9992   -8.6698 O   0  0  0  0  0  0  0  0  0  0  0  0
   -8.6418    3.1318   -6.1973 O   0  0  0  0  0  0  0  0  0  0  0  0
   -8.9738    4.6443  -15.0834 O   0  0  0  0  0  0  0  0  0  0  0  0
   -8.2330    2.9945  -10.5367 H   0  0  0  0  0  0  0  0  0  0  0  0
   -7.2743    4.4556  -10.8030 H   0  0  0  0  0  0  0  0  0  0  0  0
  -10.1796    6.8390  -10.2163 H   0  0  0  0  0  0  0  0  0  0  0  0
  -10.8754    5.6210  -11.2735 H   0  0  0  0  0  0  0  0  0  0  0  0
  -10.8298    3.3175  -10.1833 H   0  0  0  0  0  0  0  0  0  0  0  0
  -11.2722    4.6300   -9.1183 H   0  0  0  0  0  0  0  0  0  0  0  0
   -7.9130    3.4886  -12.9669 H   0  0  0  0  0  0  0  0  0  0  0  0
   -9.6165    3.5102  -12.5145 H   0  0  0  0  0  0  0  0  0  0  0  0
   -9.5067    7.3165  -12.4802 H   0  0  0  0  0  0  0  0  0  0  0  0
   -8.0699    6.8268  -11.5857 H   0  0  0  0  0  0  0  0  0  0  0  0
   -7.3934    5.2098   -7.2682 H   0  0  0  0  0  0  0  0  0  0  0  0
   -7.3936    3.9068   -8.4566 H   0  0  0  0  0  0  0  0  0  0  0  0
  -10.8911    2.7457   -7.7031 H   0  0  0  0  0  0  0  0  0  0  0  0
   -9.8106    4.7089   -6.7370 H   0  0  0  0  0  0  0  0  0  0  0  0
   -6.9974    5.9972  -16.3055 H   0  0  0  0  0  0  0  0  0  0  0  0
   -6.7413    4.2484  -16.4998 H   0  0  0  0  0  0  0  0  0  0  0  0
   -7.2141    5.2591  -17.8828 H   0  0  0  0  0  0  0  0  0  0  0  0
  -10.4000    3.4224  -16.9739 H   0  0  0  0  0  0  0  0  0  0  0  0
   -8.8008    2.7114  -16.8473 H   0  0  0  0  0  0  0  0  0  0  0  0
   -9.2241    3.6688  -18.2840 H   0  0  0  0  0  0  0  0  0  0  0  0
  -10.7415    5.8954  -16.6604 H   0  0  0  0  0  0  0  0  0  0  0  0
   -9.3595    6.9718  -16.3628 H   0  0  0  0  0  0  0  0  0  0  0  0
   -9.6234    6.2492  -17.9661 H   0  0  0  0  0  0  0  0  0  0  0  0
   -9.0155    1.4852   -7.8832 H   0  0  0  0  0  0  0  0  0  0  0  0
   -8.1596    3.7218   -5.5991 H   0  0  0  0  0  0  0  0  0  0  0  0
  1 15  1  0  0  0  0
  1 16  2  0  0  0  0
  1 20  1  0  0  0  0
  2  5  1  0  0  0  0
  2 10  1  0  0  0  0
  3  6  1  0  0  0  0
  3 10  1  0  0  0  0
  4  8  1  0  0  0  0
  4 10  1  0  0  0  0
  5 15  1  0  0  0  0
  6 15  1  0  0  0  0
  7  9  1  0  0  0  0
  7 17  1  0  0  0  0
  8  9  1  0  0  0  0
  8 18  1  1  0  0  0
  9 19  1  1  0  0  0
 10 17  1  0  0  0  0
 11 14  1  0  0  0  0
 12 14  1  0  0  0  0
 13 14  1  0  0  0  0
 14 20  1  0  0  0  0
  2 21  1  0  0  0  0
  2 22  1  0  0  0  0
  3 23  1  0  0  0  0
  3 24  1  0  0  0  0
  4 25  1  0  0  0  0
  4 26  1  0  0  0  0
  5 27  1  0  0  0  0
  5 28  1  0  0  0  0
  6 29  1  0  0  0  0
  6 30  1  0  0  0  0
  7 31  1  0  0  0  0
  7 32  1  0  0  0  0
  8 33  1  0  0  0  0
  9 34  1  0  0  0  0
 11 35  1  0  0  0  0
 11 36  1  0  0  0  0
 11 37  1  0  0  0  0
 12 38  1  0  0  0  0
 12 39  1  0  0  0  0
 12 40  1  0  0  0  0
 13 41  1  0  0  0  0
 13 42  1  0  0  0  0
 13 43  1  0  0  0  0
 18 44  1  0  0  0  0
 19 45  1  0  0  0  0
M  END
> <id>
EN300-28229079

> <smiles>
CC(C)(C)OC(=O)N1CCC2(CC1)C[C@@H](O)[C@@H](O)CO2 |&1:14,16,r|

> <IUPAC Name>
rac-tert-butyl (3R,4S)-3,4-dihydroxy-1-oxa-9-azaspiro[5.5]undecane-9-carboxylate

> <CAS>
2639390-03-5

> <URL>
https://www.enaminestore.com/catalog/EN300-28229079

> <ROCS_ShapeQuery>
_x0404_0B

> <ROCS_TanimotoCombo>
0.403 

> <ROCS_ShapeTanimoto>
0.310 

> <ROCS_ColorTanimoto>
0.092 

> <ROCS_RefTversky>
0.279 

> <ROCS_RefColorTversky>
0.099 

> <ROCS_RefTverskyCombo>
0.378 

> <ROCS_FitTversky>
1.574 

> <ROCS_FitColorTversky>
0.580 

> <ROCS_FitTverskyCombo>
2.154 

> <ROCS_ColorScore>
-7.153

> <ROCS_Overlap>
1859.982

> <ROCS_Rank>
98                  

$$$$
untitled-dbase-14594_83
  -OEChem-08212314543D

 51 53  0     1  0  0  0  0  0999 V2000
   -9.3384    3.1155   -7.2616 C   0  0  0  0  0  0  0  0  0  0  0  0
   -9.1783    2.2648   -8.3359 C   0  0  0  0  0  0  0  0  0  0  0  0
   -9.1847    4.4199   -7.7770 C   0  0  0  0  0  0  0  0  0  0  0  0
   -8.9372    4.2712   -9.1225 C   0  0  0  0  0  0  0  0  0  0  0  0
   -8.1728    5.6624  -14.4712 C   0  0  0  0  0  0  0  0  0  0  0  0
   -9.2309    5.7627   -7.1524 C   0  0  0  0  0  0  0  0  0  0  0  0
   -7.4366    5.0732  -10.9566 C   0  0  0  0  0  0  0  0  0  0  0  0
   -9.9555    5.4422  -11.0723 C   0  0  0  0  0  0  0  0  0  0  0  0
   -9.4008    6.8430   -8.2440 C   0  0  0  0  0  0  0  0  0  0  0  0
   -7.7479    4.4482  -12.3131 C   0  0  0  0  0  0  0  0  0  0  0  0
   -8.7192    5.3585  -10.1363 C   0  0  1  0  0  0  0  0  0  0  0  0
   -9.6981    6.0528  -12.4833 C   0  0  0  0  0  0  0  0  0  0  0  0
   -9.4484    7.5686  -12.3644 C   0  0  0  0  0  0  0  0  0  0  0  0
  -10.9909    5.8224  -13.2993 C   0  0  0  0  0  0  0  0  0  0  0  0
   -7.2079    5.7614  -17.1672 C   0  0  0  0  0  0  0  0  0  0  0  0
   -6.9692    3.2681  -16.9774 C   0  0  0  0  0  0  0  0  0  0  0  0
   -9.2384    4.3260  -16.7784 C   0  0  0  0  0  0  0  0  0  0  0  0
   -7.7451    4.4948  -16.5024 C   0  0  0  0  0  0  0  0  0  0  0  0
   -8.5001    6.6430   -9.4009 N   0  0  0  0  0  0  0  0  0  0  0  0
   -8.5313    5.3822  -13.1390 N   0  0  0  0  0  0  0  0  0  0  0  0
   -8.3855    6.7270  -15.0473 O   0  0  0  0  0  0  0  0  0  0  0  0
   -8.9342    2.9633   -9.4805 O   0  0  0  0  0  0  0  0  0  0  0  0
   -7.5525    4.6059  -15.0873 O   0  0  0  0  0  0  0  0  0  0  0  0
   -9.5419    2.8235   -6.2415 H   0  0  0  0  0  0  0  0  0  0  0  0
   -9.2073    1.1905   -8.4458 H   0  0  0  0  0  0  0  0  0  0  0  0
  -10.0551    5.8290   -6.4342 H   0  0  0  0  0  0  0  0  0  0  0  0
   -8.2955    5.9350   -6.6065 H   0  0  0  0  0  0  0  0  0  0  0  0
   -6.7763    4.3966  -10.4036 H   0  0  0  0  0  0  0  0  0  0  0  0
   -6.8701    5.9979  -11.1069 H   0  0  0  0  0  0  0  0  0  0  0  0
  -10.3269    4.4194  -11.2024 H   0  0  0  0  0  0  0  0  0  0  0  0
  -10.7662    5.9807  -10.5765 H   0  0  0  0  0  0  0  0  0  0  0  0
  -10.4429    6.8781   -8.5844 H   0  0  0  0  0  0  0  0  0  0  0  0
   -9.1873    7.8224   -7.8002 H   0  0  0  0  0  0  0  0  0  0  0  0
   -6.8474    4.2167  -12.8542 H   0  0  0  0  0  0  0  0  0  0  0  0
   -8.2991    3.5415  -12.1411 H   0  0  0  0  0  0  0  0  0  0  0  0
   -9.2714    7.9771  -13.3526 H   0  0  0  0  0  0  0  0  0  0  0  0
   -8.5815    7.7366  -11.7359 H   0  0  0  0  0  0  0  0  0  0  0  0
  -10.3200    8.0376  -11.9228 H   0  0  0  0  0  0  0  0  0  0  0  0
  -10.8461    6.2348  -14.2853 H   0  0  0  0  0  0  0  0  0  0  0  0
  -11.8028    6.3209  -12.7938 H   0  0  0  0  0  0  0  0  0  0  0  0
  -11.1711    4.7603  -13.3538 H   0  0  0  0  0  0  0  0  0  0  0  0
   -7.7622    6.6441  -16.8289 H   0  0  0  0  0  0  0  0  0  0  0  0
   -6.1458    5.9126  -16.9481 H   0  0  0  0  0  0  0  0  0  0  0  0
   -7.3337    5.7156  -18.2550 H   0  0  0  0  0  0  0  0  0  0  0  0
   -7.3513    2.3570  -16.5030 H   0  0  0  0  0  0  0  0  0  0  0  0
   -5.9123    3.3422  -16.6970 H   0  0  0  0  0  0  0  0  0  0  0  0
   -7.0321    3.1459  -18.0635 H   0  0  0  0  0  0  0  0  0  0  0  0
   -9.6240    3.4176  -16.3017 H   0  0  0  0  0  0  0  0  0  0  0  0
   -9.8156    5.1807  -16.4109 H   0  0  0  0  0  0  0  0  0  0  0  0
   -9.4261    4.2151  -17.8525 H   0  0  0  0  0  0  0  0  0  0  0  0
   -8.5451    7.4408  -10.0236 H   0  0  0  0  0  0  0  0  0  0  0  0
  1  2  2  0  0  0  0
  1  3  1  0  0  0  0
  2 22  1  0  0  0  0
  3  4  2  0  0  0  0
  3  6  1  0  0  0  0
  4 11  1  0  0  0  0
  4 22  1  0  0  0  0
  5 20  1  0  0  0  0
  5 21  2  0  0  0  0
  5 23  1  0  0  0  0
  6  9  1  0  0  0  0
  7 10  1  0  0  0  0
  7 11  1  0  0  0  0
  8 11  1  0  0  0  0
  8 12  1  0  0  0  0
  9 19  1  0  0  0  0
 10 20  1  0  0  0  0
 11 19  1  0  0  0  0
 12 13  1  0  0  0  0
 12 14  1  0  0  0  0
 12 20  1  0  0  0  0
 15 18  1  0  0  0  0
 16 18  1  0  0  0  0
 17 18  1  0  0  0  0
 18 23  1  0  0  0  0
  1 24  1  0  0  0  0
  2 25  1  0  0  0  0
  6 26  1  0  0  0  0
  6 27  1  0  0  0  0
  7 28  1  0  0  0  0
  7 29  1  0  0  0  0
  8 30  1  0  0  0  0
  8 31  1  0  0  0  0
  9 32  1  0  0  0  0
  9 33  1  0  0  0  0
 10 34  1  0  0  0  0
 10 35  1  0  0  0  0
 13 36  1  0  0  0  0
 13 37  1  0  0  0  0
 13 38  1  0  0  0  0
 14 39  1  0  0  0  0
 14 40  1  0  0  0  0
 14 41  1  0  0  0  0
 15 42  1  0  0  0  0
 15 43  1  0  0  0  0
 15 44  1  0  0  0  0
 16 45  1  0  0  0  0
 16 46  1  0  0  0  0
 16 47  1  0  0  0  0
 17 48  1  0  0  0  0
 17 49  1  0  0  0  0
 17 50  1  0  0  0  0
 19 51  1  0  0  0  0
M  END
> <id>
EN300-1076763

> <smiles>
CC(C)(C)OC(=O)N1CCC2(CC1(C)C)NCCC=3C=COC32

> <IUPAC Name>
tert-butyl 2',2'-dimethyl-5,6-dihydro-4H-spiro[furo[2,3-c]pyridine-7,4'-piperidine]-1'-carboxylate

> <CAS>
2137450-61-2

> <URL>
https://www.enaminestore.com/catalog/EN300-1076763

> <ROCS_ShapeQuery>
_x0404_0B

> <ROCS_TanimotoCombo>
0.403 

> <ROCS_ShapeTanimoto>
0.330 

> <ROCS_ColorTanimoto>
0.073 

> <ROCS_RefTversky>
0.297 

> <ROCS_RefColorTversky>
0.080 

> <ROCS_RefTverskyCombo>
0.377 

> <ROCS_FitTversky>
1.490 

> <ROCS_FitColorTversky>
0.467 

> <ROCS_FitTverskyCombo>
1.957 

> <ROCS_ColorScore>
-5.765

> <ROCS_Overlap>
1985.442

> <ROCS_Rank>
99                  

$$$$
untitled-dbase-9948_10
  -OEChem-08212314543D

 40 42  0     0  0  0  0  0  0999 V2000
   -9.4309    4.4512  -16.9635 C   0  0  0  0  0  0  0  0  0  0  0  0
   -8.2982    4.5031  -17.7776 C   0  0  0  0  0  0  0  0  0  0  0  0
   -7.1766    5.8973  -16.1512 C   0  0  0  0  0  0  0  0  0  0  0  0
   -9.4323    5.1226  -15.7385 C   0  0  0  0  0  0  0  0  0  0  0  0
   -8.3014    5.8340  -15.3296 C   0  0  0  0  0  0  0  0  0  0  0  0
   -7.1753    5.2271  -17.3742 C   0  0  0  0  0  0  0  0  0  0  0  0
  -10.6378    5.1157  -14.8824 C   0  0  0  0  0  0  0  0  0  0  0  0
   -8.6119    5.1338   -9.8035 C   0  0  0  0  0  0  0  0  0  0  0  0
  -10.5461    5.8905  -13.5923 C   0  0  0  0  0  0  0  0  0  0  0  0
   -8.5721    4.7430  -12.3518 C   0  0  0  0  0  0  0  0  0  0  0  0
   -8.9895    6.7625  -11.7452 C   0  0  0  0  0  0  0  0  0  0  0  0
   -9.1074    6.0009  -13.0881 C   0  0  0  0  0  0  0  0  0  0  0  0
  -10.3177    3.2718   -8.4712 C   0  0  0  0  0  0  0  0  0  0  0  0
   -8.3502    1.7113   -8.5276 C   0  0  0  0  0  0  0  0  0  0  0  0
   -8.1923    3.8779   -7.2670 C   0  0  0  0  0  0  0  0  0  0  0  0
   -8.7930    3.1721   -8.4819 C   0  0  0  0  0  0  0  0  0  0  0  0
   -8.7187    5.4867  -11.1201 N   0  0  0  0  0  0  0  0  0  0  0  0
  -11.6669    4.5520  -15.2364 O   0  0  0  0  0  0  0  0  0  0  0  0
   -8.7717    5.9098   -8.8655 O   0  0  0  0  0  0  0  0  0  0  0  0
   -8.2470    6.5124  -14.1367 O   0  0  0  0  0  0  0  0  0  0  0  0
   -8.3030    3.8086   -9.6673 O   0  0  0  0  0  0  0  0  0  0  0  0
   -6.0941    5.2785  -18.1635 F   0  0  0  0  0  0  0  0  0  0  0  0
  -10.2980    3.8916  -17.3027 H   0  0  0  0  0  0  0  0  0  0  0  0
   -8.2928    3.9836  -18.7316 H   0  0  0  0  0  0  0  0  0  0  0  0
   -6.2982    6.4582  -15.8444 H   0  0  0  0  0  0  0  0  0  0  0  0
  -10.9642    6.8872  -13.7772 H   0  0  0  0  0  0  0  0  0  0  0  0
  -11.1782    5.3916  -12.8481 H   0  0  0  0  0  0  0  0  0  0  0  0
   -9.2012    3.8503  -12.4051 H   0  0  0  0  0  0  0  0  0  0  0  0
   -7.5315    4.4790  -12.5622 H   0  0  0  0  0  0  0  0  0  0  0  0
   -8.1470    7.4565  -11.6696 H   0  0  0  0  0  0  0  0  0  0  0  0
   -9.9010    7.2438  -11.3805 H   0  0  0  0  0  0  0  0  0  0  0  0
  -10.6395    4.3189   -8.4385 H   0  0  0  0  0  0  0  0  0  0  0  0
  -10.7589    2.7999   -9.3552 H   0  0  0  0  0  0  0  0  0  0  0  0
  -10.7346    2.7922   -7.5783 H   0  0  0  0  0  0  0  0  0  0  0  0
   -7.2569    1.6350   -8.5354 H   0  0  0  0  0  0  0  0  0  0  0  0
   -8.7000    1.2260   -9.4459 H   0  0  0  0  0  0  0  0  0  0  0  0
   -8.7310    1.1467   -7.6704 H   0  0  0  0  0  0  0  0  0  0  0  0
   -7.0986    3.8065   -7.2745 H   0  0  0  0  0  0  0  0  0  0  0  0
   -8.4693    4.9367   -7.2379 H   0  0  0  0  0  0  0  0  0  0  0  0
   -8.5267    3.4047   -6.3367 H   0  0  0  0  0  0  0  0  0  0  0  0
  1  2  1  0  0  0  0
  1  4  2  0  0  0  0
  2  6  2  0  0  0  0
  3  5  2  0  0  0  0
  3  6  1  0  0  0  0
  4  5  1  0  0  0  0
  4  7  1  0  0  0  0
  5 20  1  0  0  0  0
  6 22  1  0  0  0  0
  7  9  1  0  0  0  0
  7 18  2  0  0  0  0
  8 17  1  0  0  0  0
  8 19  2  0  0  0  0
  8 21  1  0  0  0  0
  9 12  1  0  0  0  0
 10 12  1  0  0  0  0
 10 17  1  0  0  0  0
 11 12  1  0  0  0  0
 11 17  1  0  0  0  0
 12 20  1  0  0  0  0
 13 16  1  0  0  0  0
 14 16  1  0  0  0  0
 15 16  1  0  0  0  0
 16 21  1  0  0  0  0
  1 23  1  0  0  0  0
  2 24  1  0  0  0  0
  3 25  1  0  0  0  0
  9 26  1  0  0  0  0
  9 27  1  0  0  0  0
 10 28  1  0  0  0  0
 10 29  1  0  0  0  0
 11 30  1  0  0  0  0
 11 31  1  0  0  0  0
 13 32  1  0  0  0  0
 13 33  1  0  0  0  0
 13 34  1  0  0  0  0
 14 35  1  0  0  0  0
 14 36  1  0  0  0  0
 14 37  1  0  0  0  0
 15 38  1  0  0  0  0
 15 39  1  0  0  0  0
 15 40  1  0  0  0  0
M  END
> <id>
EN300-338213

> <smiles>
CC(C)(C)OC(=O)N1CC2(C1)CC(=O)C=3C=CC(F)=CC3O2

> <MDLNUMBER>
MFCD30499682

> <IUPAC Name>
tert-butyl 7'-fluoro-4'-oxo-3',4'-dihydrospiro[azetidine-3,2'-[1]benzopyran]-1-carboxylate

> <CAS>
2059941-78-3

> <URL>
https://www.enaminestore.com/catalog/EN300-338213

> <ROCS_ShapeQuery>
_x0404_0B

> <ROCS_TanimotoCombo>
0.402 

> <ROCS_ShapeTanimoto>
0.354 

> <ROCS_ColorTanimoto>
0.049 

> <ROCS_RefTversky>
0.312 

> <ROCS_RefColorTversky>
0.053 

> <ROCS_RefTverskyCombo>
0.366 

> <ROCS_FitTversky>
1.597 

> <ROCS_FitColorTversky>
0.368 

> <ROCS_FitTverskyCombo>
1.965 

> <ROCS_ColorScore>
-3.839

> <ROCS_Overlap>
2085.525

> <ROCS_Rank>
100                 

$$$$
untitled-dbase-1492_343
  -OEChem-08212314543D

 43 44  0     0  0  0  0  0  0999 V2000
   -8.5027    5.6783  -14.3719 C   0  0  0  0  0  0  0  0  0  0  0  0
   -9.0715    3.5325  -11.3305 C   0  0  0  0  0  0  0  0  0  0  0  0
   -8.6255    5.9798  -10.6852 C   0  0  0  0  0  0  0  0  0  0  0  0
  -10.0287    4.4449   -9.1151 C   0  0  0  0  0  0  0  0  0  0  0  0
   -7.9029    4.1113   -9.0737 C   0  0  0  0  0  0  0  0  0  0  0  0
   -8.2710    3.9464  -12.5595 C   0  0  0  0  0  0  0  0  0  0  0  0
   -9.2362    6.2016  -12.0623 C   0  0  0  0  0  0  0  0  0  0  0  0
   -8.9003    4.5518  -10.1881 C   0  0  0  0  0  0  0  0  0  0  0  0
   -9.0947    3.5605   -8.2503 C   0  0  0  0  0  0  0  0  0  0  0  0
   -7.0259    5.5917  -16.8207 C   0  0  0  0  0  0  0  0  0  0  0  0
   -8.5046    3.6546  -17.4292 C   0  0  0  0  0  0  0  0  0  0  0  0
   -9.5108    5.9235  -17.0447 C   0  0  0  0  0  0  0  0  0  0  0  0
   -9.0565    3.9298   -6.7745 C   0  0  0  0  0  0  0  0  0  0  0  0
   -8.4024    4.9549  -16.6348 C   0  0  0  0  0  0  0  0  0  0  0  0
   -8.6689    5.2743  -13.0439 N   0  0  0  0  0  0  0  0  0  0  0  0
   -8.3100    6.8408  -14.7233 O   0  0  0  0  0  0  0  0  0  0  0  0
   -9.3081    2.1368   -8.3742 O   0  0  0  0  0  0  0  0  0  0  0  0
   -8.5706    4.6290  -15.2504 O   0  0  0  0  0  0  0  0  0  0  0  0
  -10.2829    3.8236   -6.2365 F   0  0  0  0  0  0  0  0  0  0  0  0
   -8.2232    3.1107   -6.1116 F   0  0  0  0  0  0  0  0  0  0  0  0
   -8.6282    5.1942   -6.6226 F   0  0  0  0  0  0  0  0  0  0  0  0
  -10.1292    3.4224  -11.6062 H   0  0  0  0  0  0  0  0  0  0  0  0
   -8.7344    2.5410  -10.9932 H   0  0  0  0  0  0  0  0  0  0  0  0
   -7.5402    6.1554  -10.7314 H   0  0  0  0  0  0  0  0  0  0  0  0
   -9.0299    6.7219   -9.9816 H   0  0  0  0  0  0  0  0  0  0  0  0
  -10.3031    5.3987   -8.6495 H   0  0  0  0  0  0  0  0  0  0  0  0
  -10.9510    3.9569   -9.4446 H   0  0  0  0  0  0  0  0  0  0  0  0
   -7.1614    3.3655   -9.3762 H   0  0  0  0  0  0  0  0  0  0  0  0
   -7.3682    4.9371   -8.5905 H   0  0  0  0  0  0  0  0  0  0  0  0
   -7.2001    3.9110  -12.3278 H   0  0  0  0  0  0  0  0  0  0  0  0
   -8.4408    3.2455  -13.3886 H   0  0  0  0  0  0  0  0  0  0  0  0
  -10.3180    6.0224  -12.0419 H   0  0  0  0  0  0  0  0  0  0  0  0
   -9.0818    7.2389  -12.3764 H   0  0  0  0  0  0  0  0  0  0  0  0
   -6.9486    6.5253  -16.2520 H   0  0  0  0  0  0  0  0  0  0  0  0
   -6.2238    4.9202  -16.4975 H   0  0  0  0  0  0  0  0  0  0  0  0
   -6.8553    5.8545  -17.8710 H   0  0  0  0  0  0  0  0  0  0  0  0
   -9.4906    3.1942  -17.2988 H   0  0  0  0  0  0  0  0  0  0  0  0
   -7.7720    2.9212  -17.0734 H   0  0  0  0  0  0  0  0  0  0  0  0
   -8.3381    3.8203  -18.4985 H   0  0  0  0  0  0  0  0  0  0  0  0
  -10.4982    5.4669  -16.9115 H   0  0  0  0  0  0  0  0  0  0  0  0
   -9.4756    6.8478  -16.4590 H   0  0  0  0  0  0  0  0  0  0  0  0
   -9.4300    6.1811  -18.1070 H   0  0  0  0  0  0  0  0  0  0  0  0
   -8.6625    1.7283   -7.7856 H   0  0  0  0  0  0  0  0  0  0  0  0
  1 15  1  0  0  0  0
  1 16  2  0  0  0  0
  1 18  1  0  0  0  0
  2  6  1  0  0  0  0
  2  8  1  0  0  0  0
  3  7  1  0  0  0  0
  3  8  1  0  0  0  0
  4  8  1  0  0  0  0
  4  9  1  0  0  0  0
  5  8  1  0  0  0  0
  5  9  1  0  0  0  0
  6 15  1  0  0  0  0
  7 15  1  0  0  0  0
  9 13  1  0  0  0  0
  9 17  1  0  0  0  0
 10 14  1  0  0  0  0
 11 14  1  0  0  0  0
 12 14  1  0  0  0  0
 13 19  1  0  0  0  0
 13 20  1  0  0  0  0
 13 21  1  0  0  0  0
 14 18  1  0  0  0  0
  2 22  1  0  0  0  0
  2 23  1  0  0  0  0
  3 24  1  0  0  0  0
  3 25  1  0  0  0  0
  4 26  1  0  0  0  0
  4 27  1  0  0  0  0
  5 28  1  0  0  0  0
  5 29  1  0  0  0  0
  6 30  1  0  0  0  0
  6 31  1  0  0  0  0
  7 32  1  0  0  0  0
  7 33  1  0  0  0  0
 10 34  1  0  0  0  0
 10 35  1  0  0  0  0
 10 36  1  0  0  0  0
 11 37  1  0  0  0  0
 11 38  1  0  0  0  0
 11 39  1  0  0  0  0
 12 40  1  0  0  0  0
 12 41  1  0  0  0  0
 12 42  1  0  0  0  0
 17 43  1  0  0  0  0
M  END
> <id>
EN300-89641

> <smiles>
CC(C)(C)OC(=O)N1CCC2(CC(O)(C2)C(F)(F)F)CC1

> <MDLNUMBER>
MFCD16990788

> <IUPAC Name>
tert-butyl 2-hydroxy-2-(trifluoromethyl)-7-azaspiro[3.5]nonane-7-carboxylate

> <CAS>
1251924-76-1

> <URL>
https://www.enaminestore.com/catalog/EN300-89641

> <ROCS_ShapeQuery>
_x0404_0B

> <ROCS_TanimotoCombo>
0.402 

> <ROCS_ShapeTanimoto>
0.321 

> <ROCS_ColorTanimoto>
0.081 

> <ROCS_RefTversky>
0.288 

> <ROCS_RefColorTversky>
0.085 

> <ROCS_RefTverskyCombo>
0.373 

> <ROCS_FitTversky>
1.556 

> <ROCS_FitColorTversky>
0.646 

> <ROCS_FitTverskyCombo>
2.202 

> <ROCS_ColorScore>
-6.128

> <ROCS_Overlap>
1922.506

> <ROCS_Rank>
101                 

$$$$
untitled-dbase-30622_1
  -OEChem-08212314543D

 37 38  0     0  0  0  0  0  0999 V2000
   -9.3088    3.1856  -10.2019 C   0  0  0  0  0  0  0  0  0  0  0  0
   -8.3129    5.4122   -8.8528 C   0  0  0  0  0  0  0  0  0  0  0  0
   -9.0369    4.3607  -10.9177 C   0  0  0  0  0  0  0  0  0  0  0  0
   -8.5492    5.4876  -10.2322 C   0  0  0  0  0  0  0  0  0  0  0  0
   -9.0836    3.1250   -8.8268 C   0  0  0  0  0  0  0  0  0  0  0  0
   -8.5834    4.2365   -8.1534 C   0  0  0  0  0  0  0  0  0  0  0  0
   -8.5735    5.7246  -14.4170 C   0  0  0  0  0  0  0  0  0  0  0  0
   -8.2271    6.7541  -10.9810 C   0  0  0  0  0  0  0  0  0  0  0  0
   -9.2889    4.3887  -12.4053 C   0  0  0  0  0  0  0  0  0  0  0  0
   -9.0422    6.8623  -12.2638 C   0  0  0  0  0  0  0  0  0  0  0  0
   -6.9011    4.9888  -16.6195 C   0  0  0  0  0  0  0  0  0  0  0  0
   -8.4862    3.0672  -16.9421 C   0  0  0  0  0  0  0  0  0  0  0  0
   -9.3177    5.4261  -17.1704 C   0  0  0  0  0  0  0  0  0  0  0  0
   -8.3394    4.5036  -16.4447 C   0  0  0  0  0  0  0  0  0  0  0  0
   -8.9051    5.6456  -13.0601 N   0  0  0  0  0  0  0  0  0  0  0  0
   -8.2485    6.7608  -14.9936 O   0  0  0  0  0  0  0  0  0  0  0  0
   -9.3568    1.9800   -8.1441 O   0  0  0  0  0  0  0  0  0  0  0  0
   -8.6564    4.5110  -15.0480 O   0  0  0  0  0  0  0  0  0  0  0  0
   -8.3613    4.1834   -6.8330 F   0  0  0  0  0  0  0  0  0  0  0  0
   -9.7014    2.3137  -10.7204 H   0  0  0  0  0  0  0  0  0  0  0  0
   -7.9151    6.2696   -8.3159 H   0  0  0  0  0  0  0  0  0  0  0  0
   -8.4323    7.6120  -10.3293 H   0  0  0  0  0  0  0  0  0  0  0  0
   -7.1617    6.7758  -11.2386 H   0  0  0  0  0  0  0  0  0  0  0  0
   -8.7032    3.5958  -12.8858 H   0  0  0  0  0  0  0  0  0  0  0  0
  -10.3501    4.1932  -12.5926 H   0  0  0  0  0  0  0  0  0  0  0  0
  -10.0926    7.0556  -12.0233 H   0  0  0  0  0  0  0  0  0  0  0  0
   -8.6888    7.6959  -12.8836 H   0  0  0  0  0  0  0  0  0  0  0  0
   -6.7917    6.0195  -16.2636 H   0  0  0  0  0  0  0  0  0  0  0  0
   -6.1929    4.3559  -16.0749 H   0  0  0  0  0  0  0  0  0  0  0  0
   -6.6165    4.9954  -17.6779 H   0  0  0  0  0  0  0  0  0  0  0  0
   -9.5166    2.7149  -16.8186 H   0  0  0  0  0  0  0  0  0  0  0  0
   -7.8552    2.3861  -16.3597 H   0  0  0  0  0  0  0  0  0  0  0  0
   -8.2126    2.9754  -17.9982 H   0  0  0  0  0  0  0  0  0  0  0  0
  -10.3495    5.0782  -17.0452 H   0  0  0  0  0  0  0  0  0  0  0  0
   -9.2524    6.4544  -16.8004 H   0  0  0  0  0  0  0  0  0  0  0  0
   -9.1217    5.4309  -18.2488 H   0  0  0  0  0  0  0  0  0  0  0  0
   -9.1496    2.0920   -7.2025 H   0  0  0  0  0  0  0  0  0  0  0  0
  1  3  2  0  0  0  0
  1  5  1  0  0  0  0
  2  4  2  0  0  0  0
  2  6  1  0  0  0  0
  3  4  1  0  0  0  0
  3  9  1  0  0  0  0
  4  8  1  0  0  0  0
  5  6  2  0  0  0  0
  5 17  1  0  0  0  0
  6 19  1  0  0  0  0
  7 15  1  0  0  0  0
  7 16  2  0  0  0  0
  7 18  1  0  0  0  0
  8 10  1  0  0  0  0
  9 15  1  0  0  0  0
 10 15  1  0  0  0  0
 11 14  1  0  0  0  0
 12 14  1  0  0  0  0
 13 14  1  0  0  0  0
 14 18  1  0  0  0  0
  1 20  1  0  0  0  0
  2 21  1  0  0  0  0
  8 22  1  0  0  0  0
  8 23  1  0  0  0  0
  9 24  1  0  0  0  0
  9 25  1  0  0  0  0
 10 26  1  0  0  0  0
 10 27  1  0  0  0  0
 11 28  1  0  0  0  0
 11 29  1  0  0  0  0
 11 30  1  0  0  0  0
 12 31  1  0  0  0  0
 12 32  1  0  0  0  0
 12 33  1  0  0  0  0
 13 34  1  0  0  0  0
 13 35  1  0  0  0  0
 13 36  1  0  0  0  0
 17 37  1  0  0  0  0
M  END
> <id>
EN300-6482101

> <smiles>
CC(C)(C)OC(=O)N1CCC=2C=C(F)C(O)=CC2C1

> <IUPAC Name>
tert-butyl 6-fluoro-7-hydroxy-1,2,3,4-tetrahydroisoquinoline-2-carboxylate

> <CAS>
2378746-06-4

> <URL>
https://www.enaminestore.com/catalog/EN300-6482101

> <ROCS_ShapeQuery>
_x0404_0B

> <ROCS_TanimotoCombo>
0.402 

> <ROCS_ShapeTanimoto>
0.317 

> <ROCS_ColorTanimoto>
0.085 

> <ROCS_RefTversky>
0.282 

> <ROCS_RefColorTversky>
0.089 

> <ROCS_RefTverskyCombo>
0.371 

> <ROCS_FitTversky>
1.630 

> <ROCS_FitColorTversky>
0.673 

> <ROCS_FitTverskyCombo>
2.303 

> <ROCS_ColorScore>
-6.386

> <ROCS_Overlap>
1883.417

> <ROCS_Rank>
102                 

$$$$
untitled-dbase-50875_0
  -OEChem-08212314543D

 32 35  0     0  0  0  0  0  0999 V2000
   -8.0664    5.5317  -17.8407 C   0  0  0  0  0  0  0  0  0  0  0  0
   -8.3866    2.5174  -15.6425 C   0  0  0  0  0  0  0  0  0  0  0  0
   -8.2454    3.3282  -16.7831 C   0  0  0  0  0  0  0  0  0  0  0  0
   -8.4958    3.0832  -14.3703 C   0  0  0  0  0  0  0  0  0  0  0  0
   -9.1198    4.6330   -7.6601 C   0  0  0  0  0  0  0  0  0  0  0  0
   -9.2153    3.3388   -7.1475 C   0  0  0  0  0  0  0  0  0  0  0  0
   -8.2107    4.7215  -16.6736 C   0  0  0  0  0  0  0  0  0  0  0  0
   -8.4599    4.4610  -14.2772 C   0  0  0  0  0  0  0  0  0  0  0  0
   -8.9747    4.8273   -9.0366 C   0  0  0  0  0  0  0  0  0  0  0  0
   -8.3191    5.2817  -15.4115 C   0  0  0  0  0  0  0  0  0  0  0  0
   -8.9248    3.7168   -9.9062 C   0  0  0  0  0  0  0  0  0  0  0  0
   -9.1663    2.2386   -8.0039 C   0  0  0  0  0  0  0  0  0  0  0  0
   -9.0216    2.4249   -9.3793 C   0  0  0  0  0  0  0  0  0  0  0  0
   -8.8717    6.1758   -9.6129 C   0  0  0  0  0  0  0  0  0  0  0  0
   -8.7331    6.3315  -10.9399 C   0  0  0  0  0  0  0  0  0  0  0  0
   -8.4318    6.7294  -13.8059 C   0  0  0  0  0  0  0  0  0  0  0  0
   -8.5398    5.3967  -13.1715 C   0  0  0  0  0  0  0  0  0  0  0  0
   -8.6798    5.1894  -11.8516 C   0  0  0  0  0  0  0  0  0  0  0  0
   -7.9490    6.1901  -18.7892 N   0  0  0  0  0  0  0  0  0  0  0  0
   -8.3041    6.6670  -15.1024 N   0  0  0  0  0  0  0  0  0  0  0  0
   -8.7790    3.9286  -11.2893 N   0  0  0  0  0  0  0  0  0  0  0  0
   -9.2590    0.9994   -7.5042 F   0  0  0  0  0  0  0  0  0  0  0  0
   -8.9776    1.3578  -10.1894 F   0  0  0  0  0  0  0  0  0  0  0  0
   -8.4107    1.4365  -15.7544 H   0  0  0  0  0  0  0  0  0  0  0  0
   -8.1632    2.8485  -17.7565 H   0  0  0  0  0  0  0  0  0  0  0  0
   -8.6040    2.4537  -13.4943 H   0  0  0  0  0  0  0  0  0  0  0  0
   -9.1602    5.4785   -6.9780 H   0  0  0  0  0  0  0  0  0  0  0  0
   -9.3286    3.1872   -6.0779 H   0  0  0  0  0  0  0  0  0  0  0  0
   -8.9096    7.0337   -8.9510 H   0  0  0  0  0  0  0  0  0  0  0  0
   -8.6581    7.3331  -11.3535 H   0  0  0  0  0  0  0  0  0  0  0  0
   -8.4614    7.6486  -13.2047 H   0  0  0  0  0  0  0  0  0  0  0  0
   -8.7440    3.1241  -11.9030 H   0  0  0  0  0  0  0  0  0  0  0  0
  1  7  1  0  0  0  0
  1 19  3  0  0  0  0
  2  3  1  0  0  0  0
  2  4  2  0  0  0  0
  3  7  2  0  0  0  0
  4  8  1  0  0  0  0
  5  6  1  0  0  0  0
  5  9  2  0  0  0  0
  6 12  2  0  0  0  0
  7 10  1  0  0  0  0
  8 10  2  0  0  0  0
  8 17  1  0  0  0  0
  9 11  1  0  0  0  0
  9 14  1  0  0  0  0
 10 20  1  0  0  0  0
 11 13  2  0  0  0  0
 11 21  1  0  0  0  0
 12 13  1  0  0  0  0
 12 22  1  0  0  0  0
 13 23  1  0  0  0  0
 14 15  2  0  0  0  0
 15 18  1  0  0  0  0
 16 17  1  0  0  0  0
 16 20  2  0  0  0  0
 17 18  2  3  0  0  0
 18 21  1  0  0  0  0
  2 24  1  0  0  0  0
  3 25  1  0  0  0  0
  4 26  1  0  0  0  0
  5 27  1  0  0  0  0
  6 28  1  0  0  0  0
 14 29  1  0  0  0  0
 15 30  1  0  0  0  0
 16 31  1  0  0  0  0
 21 32  1  0  0  0  0
M  END
> <id>
EN300-223103

> <smiles>
FC=1C=CC=2C=CC(=C3C=NC=4C3=CC=CC4C#N)NC2C1F

> <IUPAC Name>
3-(7,8-difluoro-1,2-dihydroquinolin-2-ylidene)-3H-indole-7-carbonitrile

> <CAS>
2770589-25-6

> <URL>
https://www.enaminestore.com/catalog/EN300-223103

> <ROCS_ShapeQuery>
_x0404_0B

> <ROCS_TanimotoCombo>
0.402 

> <ROCS_ShapeTanimoto>
0.351 

> <ROCS_ColorTanimoto>
0.051 

> <ROCS_RefTversky>
0.313 

> <ROCS_RefColorTversky>
0.056 

> <ROCS_RefTverskyCombo>
0.369 

> <ROCS_FitTversky>
1.515 

> <ROCS_FitColorTversky>
0.386 

> <ROCS_FitTverskyCombo>
1.901 

> <ROCS_ColorScore>
-4.032

> <ROCS_Overlap>
2092.406

> <ROCS_Rank>
103                 

$$$$
untitled-dbase-14842_76
  -OEChem-08212314543D

 42 43  0     0  0  0  0  0  0999 V2000
   -8.8545    3.0587  -10.1702 C   0  0  0  0  0  0  0  0  0  0  0  0
   -9.2333    4.3117   -8.1364 C   0  0  0  0  0  0  0  0  0  0  0  0
   -8.6615    4.2460  -10.8912 C   0  0  0  0  0  0  0  0  0  0  0  0
   -9.0302    5.5010   -8.8319 C   0  0  0  0  0  0  0  0  0  0  0  0
   -9.1468    3.0918   -8.8046 C   0  0  0  0  0  0  0  0  0  0  0  0
   -8.7601    5.4641  -10.2014 C   0  0  0  0  0  0  0  0  0  0  0  0
   -8.2275    5.5513  -14.4543 C   0  0  0  0  0  0  0  0  0  0  0  0
   -8.2895    4.1687  -12.3534 C   0  0  0  0  0  0  0  0  0  0  0  0
   -9.9721    5.9946  -12.7562 C   0  0  0  0  0  0  0  0  0  0  0  0
   -9.5929    7.0376  -11.7054 C   0  0  0  0  0  0  0  0  0  0  0  0
   -9.1178    6.7969   -8.0958 C   0  0  0  0  0  0  0  0  0  0  0  0
   -5.9446    5.6858  -16.1737 C   0  0  0  0  0  0  0  0  0  0  0  0
   -6.5232    3.3287  -16.8207 C   0  0  0  0  0  0  0  0  0  0  0  0
   -8.1414    5.1895  -17.2973 C   0  0  0  0  0  0  0  0  0  0  0  0
   -7.0732    4.6687  -16.3368 C   0  0  0  0  0  0  0  0  0  0  0  0
   -8.8009    5.2500  -13.2128 N   0  0  0  0  0  0  0  0  0  0  0  0
   -9.3460    1.8864   -8.0989 N   0  0  0  0  0  0  0  0  0  0  0  0
   -8.2157    6.6722  -14.9597 O   0  0  0  0  0  0  0  0  0  0  0  0
   -8.5196    6.6534  -10.8354 O   0  0  0  0  0  0  0  0  0  0  0  0
   -7.6781    4.4501  -15.0572 O   0  0  0  0  0  0  0  0  0  0  0  0
   -8.7690    2.0986  -10.6768 H   0  0  0  0  0  0  0  0  0  0  0  0
   -9.4568    4.3353   -7.0723 H   0  0  0  0  0  0  0  0  0  0  0  0
   -7.1788    4.1455  -12.4501 H   0  0  0  0  0  0  0  0  0  0  0  0
   -8.6113    3.1894  -12.7763 H   0  0  0  0  0  0  0  0  0  0  0  0
  -10.7074    5.3034  -12.3290 H   0  0  0  0  0  0  0  0  0  0  0  0
  -10.4276    6.4716  -13.6327 H   0  0  0  0  0  0  0  0  0  0  0  0
   -9.2432    7.9480  -12.2322 H   0  0  0  0  0  0  0  0  0  0  0  0
  -10.4822    7.3757  -11.1253 H   0  0  0  0  0  0  0  0  0  0  0  0
   -8.1343    7.0764   -7.7007 H   0  0  0  0  0  0  0  0  0  0  0  0
   -9.4729    7.6016   -8.7512 H   0  0  0  0  0  0  0  0  0  0  0  0
   -9.8248    6.7306   -7.2596 H   0  0  0  0  0  0  0  0  0  0  0  0
   -6.3353    6.6490  -15.8265 H   0  0  0  0  0  0  0  0  0  0  0  0
   -5.1894    5.3395  -15.4606 H   0  0  0  0  0  0  0  0  0  0  0  0
   -5.4515    5.8800  -17.1331 H   0  0  0  0  0  0  0  0  0  0  0  0
   -7.3295    2.5959  -16.9391 H   0  0  0  0  0  0  0  0  0  0  0  0
   -5.8265    2.9054  -16.0882 H   0  0  0  0  0  0  0  0  0  0  0  0
   -6.0016    3.4281  -17.7781 H   0  0  0  0  0  0  0  0  0  0  0  0
   -8.9510    4.4601  -17.4145 H   0  0  0  0  0  0  0  0  0  0  0  0
   -8.5737    6.1323  -16.9470 H   0  0  0  0  0  0  0  0  0  0  0  0
   -7.7219    5.3491  -18.2972 H   0  0  0  0  0  0  0  0  0  0  0  0
   -9.3217    1.0202   -8.5974 H   0  0  0  0  0  0  0  0  0  0  0  0
   -9.6010    1.9239   -7.1330 H   0  0  0  0  0  0  0  0  0  0  0  0
  1  3  1  0  0  0  0
  1  5  2  0  0  0  0
  2  4  2  0  0  0  0
  2  5  1  0  0  0  0
  3  6  2  0  0  0  0
  3  8  1  0  0  0  0
  4  6  1  0  0  0  0
  4 11  1  0  0  0  0
  5 17  1  0  0  0  0
  6 19  1  0  0  0  0
  7 16  1  0  0  0  0
  7 18  2  0  0  0  0
  7 20  1  0  0  0  0
  8 16  1  0  0  0  0
  9 10  1  0  0  0  0
  9 16  1  0  0  0  0
 10 19  1  0  0  0  0
 12 15  1  0  0  0  0
 13 15  1  0  0  0  0
 14 15  1  0  0  0  0
 15 20  1  0  0  0  0
  1 21  1  0  0  0  0
  2 22  1  0  0  0  0
  8 23  1  0  0  0  0
  8 24  1  0  0  0  0
  9 25  1  0  0  0  0
  9 26  1  0  0  0  0
 10 27  1  0  0  0  0
 10 28  1  0  0  0  0
 11 29  1  0  0  0  0
 11 30  1  0  0  0  0
 11 31  1  0  0  0  0
 12 32  1  0  0  0  0
 12 33  1  0  0  0  0
 12 34  1  0  0  0  0
 13 35  1  0  0  0  0
 13 36  1  0  0  0  0
 13 37  1  0  0  0  0
 14 38  1  0  0  0  0
 14 39  1  0  0  0  0
 14 40  1  0  0  0  0
 17 41  1  0  0  0  0
 17 42  1  0  0  0  0
M  END
> <id>
EN300-1129040

> <smiles>
CC=1C=C(N)C=C2CN(CCOC12)C(=O)OC(C)(C)C

> <IUPAC Name>
tert-butyl 7-amino-9-methyl-2,3,4,5-tetrahydro-1,4-benzoxazepine-4-carboxylate

> <CAS>
2137999-85-8

> <URL>
https://www.enaminestore.com/catalog/EN300-1129040

> <ROCS_ShapeQuery>
_x0404_0B

> <ROCS_TanimotoCombo>
0.402 

> <ROCS_ShapeTanimoto>
0.309 

> <ROCS_ColorTanimoto>
0.093 

> <ROCS_RefTversky>
0.278 

> <ROCS_RefColorTversky>
0.098 

> <ROCS_RefTverskyCombo>
0.376 

> <ROCS_FitTversky>
1.550 

> <ROCS_FitColorTversky>
0.675 

> <ROCS_FitTverskyCombo>
2.226 

> <ROCS_ColorScore>
-7.043

> <ROCS_Overlap>
1855.369

> <ROCS_Rank>
104                 

$$$$
untitled-dbase-10092_10
  -OEChem-08212314543D

 43 45  0     0  0  0  0  0  0999 V2000
   -9.4287    4.4508  -16.9651 C   0  0  0  0  0  0  0  0  0  0  0  0
   -8.2958    4.5038  -17.7788 C   0  0  0  0  0  0  0  0  0  0  0  0
   -7.1761    5.8993  -16.1522 C   0  0  0  0  0  0  0  0  0  0  0  0
   -9.4312    5.1224  -15.7401 C   0  0  0  0  0  0  0  0  0  0  0  0
   -7.1737    5.2289  -17.3752 C   0  0  0  0  0  0  0  0  0  0  0  0
   -8.3011    5.8350  -15.3310 C   0  0  0  0  0  0  0  0  0  0  0  0
  -10.6370    5.1145  -14.8845 C   0  0  0  0  0  0  0  0  0  0  0  0
   -8.6128    5.1353   -9.8049 C   0  0  0  0  0  0  0  0  0  0  0  0
  -10.5465    5.8895  -13.5945 C   0  0  0  0  0  0  0  0  0  0  0  0
   -8.5718    4.7442  -12.3531 C   0  0  0  0  0  0  0  0  0  0  0  0
   -8.9914    6.7633  -11.7469 C   0  0  0  0  0  0  0  0  0  0  0  0
   -9.1081    6.0014  -13.0898 C   0  0  0  0  0  0  0  0  0  0  0  0
   -5.9700    5.2869  -18.2541 C   0  0  0  0  0  0  0  0  0  0  0  0
  -10.3173    3.2719   -8.4729 C   0  0  0  0  0  0  0  0  0  0  0  0
   -8.3482    1.7133   -8.5284 C   0  0  0  0  0  0  0  0  0  0  0  0
   -8.1929    3.8802   -7.2681 C   0  0  0  0  0  0  0  0  0  0  0  0
   -8.7924    3.1737   -8.4831 C   0  0  0  0  0  0  0  0  0  0  0  0
   -8.7196    5.4879  -11.1216 N   0  0  0  0  0  0  0  0  0  0  0  0
  -11.6654    4.5497  -15.2388 O   0  0  0  0  0  0  0  0  0  0  0  0
   -8.7738    5.9113   -8.8671 O   0  0  0  0  0  0  0  0  0  0  0  0
   -8.2478    6.5137  -14.1382 O   0  0  0  0  0  0  0  0  0  0  0  0
   -8.3027    3.8105   -9.6684 O   0  0  0  0  0  0  0  0  0  0  0  0
  -10.2950    3.8901  -17.3046 H   0  0  0  0  0  0  0  0  0  0  0  0
   -8.2991    3.9806  -18.7316 H   0  0  0  0  0  0  0  0  0  0  0  0
   -6.3023    6.4640  -15.8364 H   0  0  0  0  0  0  0  0  0  0  0  0
  -10.9654    6.8859  -13.7795 H   0  0  0  0  0  0  0  0  0  0  0  0
  -11.1784    5.3903  -12.8503 H   0  0  0  0  0  0  0  0  0  0  0  0
   -9.1999    3.8511  -12.4064 H   0  0  0  0  0  0  0  0  0  0  0  0
   -7.5308    4.4809  -12.5630 H   0  0  0  0  0  0  0  0  0  0  0  0
   -8.1496    7.4580  -11.6712 H   0  0  0  0  0  0  0  0  0  0  0  0
   -9.9036    7.2439  -11.3828 H   0  0  0  0  0  0  0  0  0  0  0  0
   -6.0384    6.1405  -18.9394 H   0  0  0  0  0  0  0  0  0  0  0  0
   -5.0502    5.3875  -17.6636 H   0  0  0  0  0  0  0  0  0  0  0  0
   -5.8669    4.3701  -18.8491 H   0  0  0  0  0  0  0  0  0  0  0  0
  -10.6401    4.3186   -8.4405 H   0  0  0  0  0  0  0  0  0  0  0  0
  -10.7578    2.7994   -9.3570 H   0  0  0  0  0  0  0  0  0  0  0  0
  -10.7341    2.7919   -7.5801 H   0  0  0  0  0  0  0  0  0  0  0  0
   -7.2548    1.6381   -8.5358 H   0  0  0  0  0  0  0  0  0  0  0  0
   -8.6972    1.2275   -9.4468 H   0  0  0  0  0  0  0  0  0  0  0  0
   -8.7288    1.1484   -7.6712 H   0  0  0  0  0  0  0  0  0  0  0  0
   -7.0992    3.8100   -7.2751 H   0  0  0  0  0  0  0  0  0  0  0  0
   -8.4710    4.9388   -7.2392 H   0  0  0  0  0  0  0  0  0  0  0  0
   -8.5272    3.4068   -6.3378 H   0  0  0  0  0  0  0  0  0  0  0  0
  1  2  1  0  0  0  0
  1  4  2  0  0  0  0
  2  5  2  0  0  0  0
  3  5  1  0  0  0  0
  3  6  2  0  0  0  0
  4  6  1  0  0  0  0
  4  7  1  0  0  0  0
  5 13  1  0  0  0  0
  6 21  1  0  0  0  0
  7  9  1  0  0  0  0
  7 19  2  0  0  0  0
  8 18  1  0  0  0  0
  8 20  2  0  0  0  0
  8 22  1  0  0  0  0
  9 12  1  0  0  0  0
 10 12  1  0  0  0  0
 10 18  1  0  0  0  0
 11 12  1  0  0  0  0
 11 18  1  0  0  0  0
 12 21  1  0  0  0  0
 14 17  1  0  0  0  0
 15 17  1  0  0  0  0
 16 17  1  0  0  0  0
 17 22  1  0  0  0  0
  1 23  1  0  0  0  0
  2 24  1  0  0  0  0
  3 25  1  0  0  0  0
  9 26  1  0  0  0  0
  9 27  1  0  0  0  0
 10 28  1  0  0  0  0
 10 29  1  0  0  0  0
 11 30  1  0  0  0  0
 11 31  1  0  0  0  0
 13 32  1  0  0  0  0
 13 33  1  0  0  0  0
 13 34  1  0  0  0  0
 14 35  1  0  0  0  0
 14 36  1  0  0  0  0
 14 37  1  0  0  0  0
 15 38  1  0  0  0  0
 15 39  1  0  0  0  0
 15 40  1  0  0  0  0
 16 41  1  0  0  0  0
 16 42  1  0  0  0  0
 16 43  1  0  0  0  0
M  END
> <id>
EN300-338204

> <smiles>
CC=1C=CC=2C(=O)CC3(CN(C3)C(=O)OC(C)(C)C)OC2C1

> <MDLNUMBER>
MFCD30499673

> <IUPAC Name>
tert-butyl 7'-methyl-4'-oxo-3',4'-dihydrospiro[azetidine-3,2'-[1]benzopyran]-1-carboxylate

> <CAS>
1456724-67-6

> <URL>
https://www.enaminestore.com/catalog/EN300-338204

> <ROCS_ShapeQuery>
_x0404_0B

> <ROCS_TanimotoCombo>
0.402 

> <ROCS_ShapeTanimoto>
0.353 

> <ROCS_ColorTanimoto>
0.049 

> <ROCS_RefTversky>
0.312 

> <ROCS_RefColorTversky>
0.053 

> <ROCS_RefTverskyCombo>
0.365 

> <ROCS_FitTversky>
1.599 

> <ROCS_FitColorTversky>
0.368 

> <ROCS_FitTverskyCombo>
1.967 

> <ROCS_ColorScore>
-3.839

> <ROCS_Overlap>
2080.906

> <ROCS_Rank>
105                 

$$$$
untitled-dbase-2725_0
  -OEChem-08212314543D

 53 57  0     1  0  0  0  0  0999 V2000
   -7.9476    6.2234  -10.3445 C   0  0  0  0  0  0  0  0  0  0  0  0
   -8.1094    4.6541   -8.5173 C   0  0  0  0  0  0  0  0  0  0  0  0
   -8.1997    6.6094  -11.6027 C   0  0  0  0  0  0  0  0  0  0  0  0
   -8.5463    5.0492   -9.7250 C   0  0  0  0  0  0  0  0  0  0  0  0
   -8.6685    3.4588   -7.8425 C   0  0  0  0  0  0  0  0  0  0  0  0
   -9.1381    4.8461  -18.5319 C   0  0  0  0  0  0  0  0  0  0  0  0
   -9.7358    2.6576   -8.5434 C   0  0  0  0  0  0  0  0  0  0  0  0
   -7.7119    4.5499  -18.1798 C   0  0  0  0  0  0  0  0  0  0  0  0
   -9.6653    2.8236  -10.0562 C   0  0  0  0  0  0  0  0  0  0  0  0
   -7.7920    4.3958  -16.6756 C   0  0  0  0  0  0  0  0  0  0  0  0
  -10.2374    3.5889  -12.9781 C   0  0  0  0  0  0  0  0  0  0  0  0
   -8.3480    7.1526  -14.6863 C   0  0  0  0  0  0  0  0  0  0  0  0
   -9.7962    3.6669  -14.4535 C   0  0  0  0  0  0  0  0  0  0  0  0
   -8.4119    6.8197  -16.1875 C   0  0  0  0  0  0  0  0  0  0  0  0
   -9.1161    5.8542  -12.5285 C   0  0  2  0  0  0  0  0  0  0  0  0
   -9.2886    4.3787  -12.0439 C   0  0  1  0  0  0  0  0  0  0  0  0
   -8.6245    5.8250  -13.9841 C   0  0  1  0  0  0  0  0  0  0  0  0
   -9.6367    4.3068  -10.5131 C   0  0  2  0  0  0  0  0  0  0  0  0
   -9.6245    5.1199  -14.9323 C   0  0  1  0  0  0  0  0  0  0  0  0
   -8.9192    5.3523  -16.2999 C   0  0  2  0  0  0  0  0  0  0  0  0
  -11.0059    4.9594  -10.2089 C   0  0  0  0  0  0  0  0  0  0  0  0
  -11.0317    5.7873  -14.9697 C   0  0  0  0  0  0  0  0  0  0  0  0
   -8.2854    3.1653   -6.7110 O   0  0  0  0  0  0  0  0  0  0  0  0
   -9.6225    4.7758  -19.6505 O   0  0  0  0  0  0  0  0  0  0  0  0
   -9.8208    5.2336  -17.4115 O   0  0  0  0  0  0  0  0  0  0  0  0
   -7.2623    6.8201   -9.7475 H   0  0  0  0  0  0  0  0  0  0  0  0
   -7.3322    5.1896   -7.9804 H   0  0  0  0  0  0  0  0  0  0  0  0
   -7.7390    7.5250  -11.9624 H   0  0  0  0  0  0  0  0  0  0  0  0
   -9.5901    1.5999   -8.2959 H   0  0  0  0  0  0  0  0  0  0  0  0
  -10.7112    2.9638   -8.1521 H   0  0  0  0  0  0  0  0  0  0  0  0
   -7.3729    3.6281  -18.6585 H   0  0  0  0  0  0  0  0  0  0  0  0
   -7.0821    5.3924  -18.4775 H   0  0  0  0  0  0  0  0  0  0  0  0
   -8.7620    2.3129  -10.4183 H   0  0  0  0  0  0  0  0  0  0  0  0
  -10.5202    2.2972  -10.4968 H   0  0  0  0  0  0  0  0  0  0  0  0
   -8.0638    3.3550  -16.4712 H   0  0  0  0  0  0  0  0  0  0  0  0
   -6.8404    4.6009  -16.1769 H   0  0  0  0  0  0  0  0  0  0  0  0
  -11.2664    3.9468  -12.8753 H   0  0  0  0  0  0  0  0  0  0  0  0
  -10.2493    2.5304  -12.6962 H   0  0  0  0  0  0  0  0  0  0  0  0
   -7.3683    7.5599  -14.4160 H   0  0  0  0  0  0  0  0  0  0  0  0
   -9.1002    7.9076  -14.4319 H   0  0  0  0  0  0  0  0  0  0  0  0
   -8.8494    3.1205  -14.5293 H   0  0  0  0  0  0  0  0  0  0  0  0
  -10.5172    3.1347  -15.0851 H   0  0  0  0  0  0  0  0  0  0  0  0
   -9.0833    7.5183  -16.7005 H   0  0  0  0  0  0  0  0  0  0  0  0
   -7.4226    6.9492  -16.6407 H   0  0  0  0  0  0  0  0  0  0  0  0
  -10.0772    6.3783  -12.4960 H   0  0  0  0  0  0  0  0  0  0  0  0
   -8.3040    3.8925  -12.1549 H   0  0  0  0  0  0  0  0  0  0  0  0
   -7.6748    5.2660  -13.9921 H   0  0  0  0  0  0  0  0  0  0  0  0
  -11.7735    4.4361  -10.7642 H   0  0  0  0  0  0  0  0  0  0  0  0
  -10.9723    5.9984  -10.5098 H   0  0  0  0  0  0  0  0  0  0  0  0
  -11.1997    4.8858   -9.1466 H   0  0  0  0  0  0  0  0  0  0  0  0
  -10.9144    6.8060  -15.3050 H   0  0  0  0  0  0  0  0  0  0  0  0
  -11.4457    5.7603  -13.9739 H   0  0  0  0  0  0  0  0  0  0  0  0
  -11.6521    5.2308  -15.6546 H   0  0  0  0  0  0  0  0  0  0  0  0
  1  3  2  0  0  0  0
  1  4  1  0  0  0  0
  2  4  2  0  0  0  0
  2  5  1  0  0  0  0
  3 15  1  6  0  0  0
  4 18  1  0  0  0  0
  5  7  1  0  0  0  0
  5 23  2  0  0  0  0
  6  8  1  0  0  0  0
  6 24  2  0  0  0  0
  6 25  1  0  0  0  0
  7  9  1  0  0  0  0
  8 10  1  0  0  0  0
  9 18  1  0  0  0  0
 10 20  1  0  0  0  0
 11 13  1  0  0  0  0
 11 16  1  1  0  0  0
 12 14  1  0  0  0  0
 12 17  1  1  0  0  0
 13 19  1  0  0  0  0
 14 20  1  6  0  0  0
 15 16  1  0  0  0  0
 15 17  1  0  0  0  0
 16 18  1  0  0  0  0
 17 19  1  0  0  0  0
 18 21  1  1  0  0  0
 19 20  1  0  0  0  0
 19 22  1  1  0  0  0
 20 25  1  0  0  0  0
  1 26  1  0  0  0  0
  2 27  1  0  0  0  0
  3 28  1  0  0  0  0
  7 29  1  0  0  0  0
  7 30  1  0  0  0  0
  8 31  1  0  0  0  0
  8 32  1  0  0  0  0
  9 33  1  0  0  0  0
  9 34  1  0  0  0  0
 10 35  1  0  0  0  0
 10 36  1  0  0  0  0
 11 37  1  0  0  0  0
 11 38  1  0  0  0  0
 12 39  1  0  0  0  0
 12 40  1  0  0  0  0
 13 41  1  0  0  0  0
 13 42  1  0  0  0  0
 14 43  1  0  0  0  0
 14 44  1  0  0  0  0
 15 45  1  0  0  0  0
 16 46  1  0  0  0  0
 17 47  1  0  0  0  0
 21 48  1  0  0  0  0
 21 49  1  0  0  0  0
 21 50  1  0  0  0  0
 22 51  1  0  0  0  0
 22 52  1  0  0  0  0
 22 53  1  0  0  0  0
M  END
> <id>
EN300-123063

> <smiles>
C[C@@]12CC[C@H]3[C@@H](C=CC4=CC(=O)CC[C@]34C)[C@@H]2CC[C@]51CCC(=O)O5

> <MDLNUMBER>
MFCD00071735

> <IUPAC Name>
(1R,3aS,3bR,9aR,9bS,11aS)-9a,11a-dimethyl-2,3,3a,3b,7,8,9,9a,9b,10,11,11a-dodecahydrospiro[cyclopenta[a]phenanthrene-1,2'-oxolane]-5',7-dione

> <CAS>
976-71-6

> <Purity>
95

> <URL>
https://www.enaminestore.com/catalog/EN300-123063

> <ROCS_ShapeQuery>
_x0404_0B

> <ROCS_TanimotoCombo>
0.402 

> <ROCS_ShapeTanimoto>
0.352 

> <ROCS_ColorTanimoto>
0.049 

> <ROCS_RefTversky>
0.316 

> <ROCS_RefColorTversky>
0.054 

> <ROCS_RefTverskyCombo>
0.370 

> <ROCS_FitTversky>
1.478 

> <ROCS_FitColorTversky>
0.371 

> <ROCS_FitTverskyCombo>
1.849 

> <ROCS_ColorScore>
-3.877

> <ROCS_Overlap>
2113.680

> <ROCS_Rank>
106                 

$$$$
untitled-dbase-10084_21
  -OEChem-08212314543D

 43 45  0     1  0  0  0  0  0999 V2000
   -8.6661    2.4848   -9.1969 C   0  0  0  0  0  0  0  0  0  0  0  0
   -8.9879    1.8712   -7.9860 C   0  0  0  0  0  0  0  0  0  0  0  0
   -9.3101    4.0391   -6.9650 C   0  0  0  0  0  0  0  0  0  0  0  0
   -8.9842    4.6503   -8.1787 C   0  0  0  0  0  0  0  0  0  0  0  0
   -8.6770    3.8770   -9.2994 C   0  0  0  0  0  0  0  0  0  0  0  0
   -9.3138    2.6470   -6.8736 C   0  0  0  0  0  0  0  0  0  0  0  0
   -8.9218    6.1197   -8.2823 C   0  0  0  0  0  0  0  0  0  0  0  0
   -8.7425    5.7261  -14.4397 C   0  0  0  0  0  0  0  0  0  0  0  0
   -8.4107    6.6657   -9.5883 C   0  0  0  0  0  0  0  0  0  0  0  0
  -10.3129    5.7812  -11.0895 C   0  0  0  0  0  0  0  0  0  0  0  0
  -10.3530    5.3149  -12.5396 C   0  0  0  0  0  0  0  0  0  0  0  0
   -8.1716    6.2173  -12.0596 C   0  0  0  0  0  0  0  0  0  0  0  0
   -8.8098    5.7510  -10.7418 C   0  0  1  0  0  0  0  0  0  0  0  0
   -7.5831    4.3781  -16.6773 C   0  0  0  0  0  0  0  0  0  0  0  0
   -9.8769    3.4285  -17.0593 C   0  0  0  0  0  0  0  0  0  0  0  0
   -9.5126    5.9100  -17.1922 C   0  0  0  0  0  0  0  0  0  0  0  0
   -9.0838    4.6120  -16.5094 C   0  0  0  0  0  0  0  0  0  0  0  0
   -9.0803    5.7477  -13.0972 N   0  0  0  0  0  0  0  0  0  0  0  0
   -9.2105    6.8407   -7.3348 O   0  0  0  0  0  0  0  0  0  0  0  0
   -7.9654    6.5175  -14.9689 O   0  0  0  0  0  0  0  0  0  0  0  0
   -8.3648    4.4007  -10.5250 O   0  0  0  0  0  0  0  0  0  0  0  0
   -9.3754    4.7144  -15.1112 O   0  0  0  0  0  0  0  0  0  0  0  0
   -9.6395    2.0536   -5.7175 F   0  0  0  0  0  0  0  0  0  0  0  0
   -8.3963    1.8715  -10.0527 H   0  0  0  0  0  0  0  0  0  0  0  0
   -8.9829    0.7879   -7.9087 H   0  0  0  0  0  0  0  0  0  0  0  0
   -9.5715    4.6254   -6.0887 H   0  0  0  0  0  0  0  0  0  0  0  0
   -8.8456    7.6652   -9.7118 H   0  0  0  0  0  0  0  0  0  0  0  0
   -7.3208    6.7648   -9.5288 H   0  0  0  0  0  0  0  0  0  0  0  0
  -10.7099    6.8007  -11.0222 H   0  0  0  0  0  0  0  0  0  0  0  0
  -10.9078    5.1238  -10.4485 H   0  0  0  0  0  0  0  0  0  0  0  0
  -10.3946    4.2230  -12.6131 H   0  0  0  0  0  0  0  0  0  0  0  0
  -11.1885    5.7377  -13.1045 H   0  0  0  0  0  0  0  0  0  0  0  0
   -8.1329    7.3103  -12.1386 H   0  0  0  0  0  0  0  0  0  0  0  0
   -7.1719    5.8103  -12.2433 H   0  0  0  0  0  0  0  0  0  0  0  0
   -7.0103    5.2255  -16.2838 H   0  0  0  0  0  0  0  0  0  0  0  0
   -7.2566    3.4686  -16.1626 H   0  0  0  0  0  0  0  0  0  0  0  0
   -7.3171    4.2906  -17.7369 H   0  0  0  0  0  0  0  0  0  0  0  0
  -10.9542    3.5920  -16.9410 H   0  0  0  0  0  0  0  0  0  0  0  0
   -9.6416    2.5110  -16.5079 H   0  0  0  0  0  0  0  0  0  0  0  0
   -9.6665    3.2590  -18.1203 H   0  0  0  0  0  0  0  0  0  0  0  0
  -10.5890    6.0779  -17.0719 H   0  0  0  0  0  0  0  0  0  0  0  0
   -8.9801    6.7753  -16.7843 H   0  0  0  0  0  0  0  0  0  0  0  0
   -9.3257    5.8629  -18.2711 H   0  0  0  0  0  0  0  0  0  0  0  0
  1  2  1  0  0  0  0
  1  5  2  0  0  0  0
  2  6  2  0  0  0  0
  3  4  2  0  0  0  0
  3  6  1  0  0  0  0
  4  5  1  0  0  0  0
  4  7  1  0  0  0  0
  5 21  1  0  0  0  0
  6 23  1  0  0  0  0
  7  9  1  0  0  0  0
  7 19  2  0  0  0  0
  8 18  1  0  0  0  0
  8 20  2  0  0  0  0
  8 22  1  0  0  0  0
  9 13  1  0  0  0  0
 10 11  1  0  0  0  0
 10 13  1  0  0  0  0
 11 18  1  0  0  0  0
 12 13  1  0  0  0  0
 12 18  1  0  0  0  0
 13 21  1  0  0  0  0
 14 17  1  0  0  0  0
 15 17  1  0  0  0  0
 16 17  1  0  0  0  0
 17 22  1  0  0  0  0
  1 24  1  0  0  0  0
  2 25  1  0  0  0  0
  3 26  1  0  0  0  0
  9 27  1  0  0  0  0
  9 28  1  0  0  0  0
 10 29  1  0  0  0  0
 10 30  1  0  0  0  0
 11 31  1  0  0  0  0
 11 32  1  0  0  0  0
 12 33  1  0  0  0  0
 12 34  1  0  0  0  0
 14 35  1  0  0  0  0
 14 36  1  0  0  0  0
 14 37  1  0  0  0  0
 15 38  1  0  0  0  0
 15 39  1  0  0  0  0
 15 40  1  0  0  0  0
 16 41  1  0  0  0  0
 16 42  1  0  0  0  0
 16 43  1  0  0  0  0
M  END
> <id>
EN300-338178

> <smiles>
CC(C)(C)OC(=O)N1CCC2(C1)CC(=O)C=3C=C(F)C=CC3O2

> <MDLNUMBER>
MFCD30499651

> <IUPAC Name>
tert-butyl 6-fluoro-4-oxo-3,4-dihydrospiro[1-benzopyran-2,3'-pyrrolidine]-1'-carboxylate

> <CAS>
2059966-28-6

> <URL>
https://www.enaminestore.com/catalog/EN300-338178

> <ROCS_ShapeQuery>
_x0404_0B

> <ROCS_TanimotoCombo>
0.401 

> <ROCS_ShapeTanimoto>
0.330 

> <ROCS_ColorTanimoto>
0.071 

> <ROCS_RefTversky>
0.298 

> <ROCS_RefColorTversky>
0.076 

> <ROCS_RefTverskyCombo>
0.375 

> <ROCS_FitTversky>
1.476 

> <ROCS_FitColorTversky>
0.527 

> <ROCS_FitTverskyCombo>
2.002 

> <ROCS_ColorScore>
-5.498

> <ROCS_Overlap>
1992.800

> <ROCS_Rank>
107                 

$$$$
untitled-dbase-34194_460
  -OEChem-08212314543D

 48 50  0     1  0  0  0  0  0999 V2000
   -9.2103    2.2323   -7.8535 C   0  0  0  0  0  0  0  0  0  0  0  0
   -9.1213    4.3325   -8.1021 C   0  0  0  0  0  0  0  0  0  0  0  0
   -8.8997    3.8086   -9.3555 C   0  0  0  0  0  0  0  0  0  0  0  0
   -8.4714    5.2479  -14.7728 C   0  0  0  0  0  0  0  0  0  0  0  0
   -9.1350    5.7875   -7.8425 C   0  0  0  0  0  0  0  0  0  0  0  0
  -10.1560    3.3621  -12.4116 C   0  0  0  0  0  0  0  0  0  0  0  0
   -9.9630    4.5780  -11.4937 C   0  0  0  0  0  0  0  0  0  0  0  0
   -7.4129    4.0655  -11.3492 C   0  0  0  0  0  0  0  0  0  0  0  0
   -9.2911    6.5487   -9.1769 C   0  0  0  0  0  0  0  0  0  0  0  0
   -9.0878    3.1669  -13.4936 C   0  0  0  0  0  0  0  0  0  0  0  0
   -7.1799    4.6195  -12.7592 C   0  0  0  0  0  0  0  0  0  0  0  0
   -8.6770    4.5950  -10.6203 C   0  0  2  0  0  0  0  0  0  0  0  0
   -7.1359    5.1625  -17.3018 C   0  0  0  0  0  0  0  0  0  0  0  0
   -9.3334    4.3727  -18.2272 C   0  0  0  0  0  0  0  0  0  0  0  0
   -9.1637    6.6481  -17.1774 C   0  0  0  0  0  0  0  0  0  0  0  0
   -8.6550    5.2077  -17.1434 C   0  0  0  0  0  0  0  0  0  0  0  0
   -9.3076    3.3534   -7.1684 N   0  0  0  0  0  0  0  0  0  0  0  0
   -8.9670    2.4555   -9.1851 N   0  0  0  0  0  0  0  0  0  0  0  0
   -8.4087    6.0262  -10.2436 N   0  0  0  0  0  0  0  0  0  0  0  0
   -8.2665    4.3613  -13.7077 N   0  0  0  0  0  0  0  0  0  0  0  0
   -8.2196    6.4508  -14.7287 O   0  0  0  0  0  0  0  0  0  0  0  0
   -8.9984    4.6326  -15.8776 O   0  0  0  0  0  0  0  0  0  0  0  0
   -9.3018    1.2333   -7.4516 H   0  0  0  0  0  0  0  0  0  0  0  0
   -9.9759    6.0251   -7.1796 H   0  0  0  0  0  0  0  0  0  0  0  0
   -8.2129    6.1004   -7.3407 H   0  0  0  0  0  0  0  0  0  0  0  0
  -10.1603    2.4624  -11.7749 H   0  0  0  0  0  0  0  0  0  0  0  0
  -11.1573    3.3916  -12.8710 H   0  0  0  0  0  0  0  0  0  0  0  0
   -9.9877    5.4712  -12.1272 H   0  0  0  0  0  0  0  0  0  0  0  0
  -10.8432    4.6473  -10.8467 H   0  0  0  0  0  0  0  0  0  0  0  0
   -7.4583    2.9769  -11.4026 H   0  0  0  0  0  0  0  0  0  0  0  0
   -6.5177    4.2966  -10.7688 H   0  0  0  0  0  0  0  0  0  0  0  0
  -10.3319    6.4733   -9.5132 H   0  0  0  0  0  0  0  0  0  0  0  0
   -9.0950    7.6179   -9.0280 H   0  0  0  0  0  0  0  0  0  0  0  0
   -8.4312    2.3115  -13.2625 H   0  0  0  0  0  0  0  0  0  0  0  0
   -9.5908    2.9071  -14.4390 H   0  0  0  0  0  0  0  0  0  0  0  0
   -7.0031    5.6927  -12.6977 H   0  0  0  0  0  0  0  0  0  0  0  0
   -6.2792    4.1721  -13.1807 H   0  0  0  0  0  0  0  0  0  0  0  0
   -6.6452    5.7607  -16.5257 H   0  0  0  0  0  0  0  0  0  0  0  0
   -6.7546    4.1378  -17.2442 H   0  0  0  0  0  0  0  0  0  0  0  0
   -6.8300    5.5921  -18.2627 H   0  0  0  0  0  0  0  0  0  0  0  0
  -10.4235    4.4023  -18.1174 H   0  0  0  0  0  0  0  0  0  0  0  0
   -9.0435    3.3188  -18.1467 H   0  0  0  0  0  0  0  0  0  0  0  0
   -9.0763    4.7273  -19.2306 H   0  0  0  0  0  0  0  0  0  0  0  0
  -10.2534    6.6807  -17.0638 H   0  0  0  0  0  0  0  0  0  0  0  0
   -8.7151    7.2532  -16.3829 H   0  0  0  0  0  0  0  0  0  0  0  0
   -8.9392    7.1179  -18.1419 H   0  0  0  0  0  0  0  0  0  0  0  0
   -8.8582    1.7484   -9.9011 H   0  0  0  0  0  0  0  0  0  0  0  0
   -8.5288    6.6103  -11.0720 H   0  0  0  0  0  0  0  0  0  0  0  0
  1 17  2  0  0  0  0
  1 18  1  0  0  0  0
  2  3  2  0  0  0  0
  2  5  1  0  0  0  0
  2 17  1  0  0  0  0
  3 12  1  0  0  0  0
  3 18  1  0  0  0  0
  4 20  1  0  0  0  0
  4 21  2  0  0  0  0
  4 22  1  0  0  0  0
  5  9  1  0  0  0  0
  6  7  1  0  0  0  0
  6 10  1  0  0  0  0
  7 12  1  0  0  0  0
  8 11  1  0  0  0  0
  8 12  1  0  0  0  0
  9 19  1  0  0  0  0
 10 20  1  0  0  0  0
 11 20  1  0  0  0  0
 12 19  1  0  0  0  0
 13 16  1  0  0  0  0
 14 16  1  0  0  0  0
 15 16  1  0  0  0  0
 16 22  1  0  0  0  0
  1 23  1  0  0  0  0
  5 24  1  0  0  0  0
  5 25  1  0  0  0  0
  6 26  1  0  0  0  0
  6 27  1  0  0  0  0
  7 28  1  0  0  0  0
  7 29  1  0  0  0  0
  8 30  1  0  0  0  0
  8 31  1  0  0  0  0
  9 32  1  0  0  0  0
  9 33  1  0  0  0  0
 10 34  1  0  0  0  0
 10 35  1  0  0  0  0
 11 36  1  0  0  0  0
 11 37  1  0  0  0  0
 13 38  1  0  0  0  0
 13 39  1  0  0  0  0
 13 40  1  0  0  0  0
 14 41  1  0  0  0  0
 14 42  1  0  0  0  0
 14 43  1  0  0  0  0
 15 44  1  0  0  0  0
 15 45  1  0  0  0  0
 15 46  1  0  0  0  0
 18 47  1  0  0  0  0
 19 48  1  0  0  0  0
M  END
> <id>
EN300-1076903

> <smiles>
CC(C)(C)OC(=O)N1CCCC2(CC1)NCCC=3N=CNC32

> <IUPAC Name>
tert-butyl 3',5',6',7'-tetrahydrospiro[azepane-4,4'-imidazo[4,5-c]pyridine]-1-carboxylate

> <CAS>
2137511-03-4

> <URL>
https://www.enaminestore.com/catalog/EN300-1076903

> <ROCS_ShapeQuery>
_x0404_0B

> <ROCS_TanimotoCombo>
0.401 

> <ROCS_ShapeTanimoto>
0.330 

> <ROCS_ColorTanimoto>
0.072 

> <ROCS_RefTversky>
0.296 

> <ROCS_RefColorTversky>
0.079 

> <ROCS_RefTverskyCombo>
0.375 

> <ROCS_FitTversky>
1.531 

> <ROCS_FitColorTversky>
0.430 

> <ROCS_FitTverskyCombo>
1.961 

> <ROCS_ColorScore>
-5.721

> <ROCS_Overlap>
1975.092

> <ROCS_Rank>
108                 

$$$$
untitled-dbase-52583_38
  -OEChem-08212314543D

 37 39  0     0  0  0  0  0  0999 V2000
   -9.5766    3.2752   -7.0300 C   0  0  0  0  0  0  0  0  0  0  0  0
   -8.9095    3.7087   -9.5808 C   0  0  0  0  0  0  0  0  0  0  0  0
   -8.6076    4.2434  -10.8760 C   0  0  0  0  0  0  0  0  0  0  0  0
   -8.7686    5.6158  -10.9198 C   0  0  0  0  0  0  0  0  0  0  0  0
   -9.2776    4.7212   -8.7025 C   0  0  0  0  0  0  0  0  0  0  0  0
   -8.9050    2.4115   -9.0550 C   0  0  0  0  0  0  0  0  0  0  0  0
   -8.6104    6.0424  -14.6023 C   0  0  0  0  0  0  0  0  0  0  0  0
   -8.1837    3.4820  -12.0939 C   0  0  0  0  0  0  0  0  0  0  0  0
   -8.5306    6.4825  -12.1155 C   0  0  0  0  0  0  0  0  0  0  0  0
   -7.4897    4.4119  -13.0959 C   0  0  0  0  0  0  0  0  0  0  0  0
   -7.1324    5.4286  -16.9747 C   0  0  0  0  0  0  0  0  0  0  0  0
   -9.0196    3.8645  -17.5237 C   0  0  0  0  0  0  0  0  0  0  0  0
   -9.4556    6.3302  -17.3276 C   0  0  0  0  0  0  0  0  0  0  0  0
   -8.6267    5.1558  -16.8093 C   0  0  0  0  0  0  0  0  0  0  0  0
   -9.6226    4.5641   -7.4096 N   0  0  0  0  0  0  0  0  0  0  0  0
   -9.2427    2.1974   -7.7655 N   0  0  0  0  0  0  0  0  0  0  0  0
   -8.2669    5.6450  -13.3048 N   0  0  0  0  0  0  0  0  0  0  0  0
   -8.6512    7.2109  -14.9826 O   0  0  0  0  0  0  0  0  0  0  0  0
   -8.9064    4.9803  -15.4157 O   0  0  0  0  0  0  0  0  0  0  0  0
   -9.2607    6.2642   -9.4258 S   0  0  0  0  0  0  0  0  0  0  0  0
   -8.5533    1.0410   -9.9862 Cl  0  0  0  0  0  0  0  0  0  0  0  0
   -9.8419    3.0769   -5.9974 H   0  0  0  0  0  0  0  0  0  0  0  0
   -7.4691    2.6950  -11.8383 H   0  0  0  0  0  0  0  0  0  0  0  0
   -9.0615    3.0169  -12.5575 H   0  0  0  0  0  0  0  0  0  0  0  0
   -9.3905    7.1347  -12.2957 H   0  0  0  0  0  0  0  0  0  0  0  0
   -7.6445    7.1092  -11.9636 H   0  0  0  0  0  0  0  0  0  0  0  0
   -6.5046    4.7183  -12.7220 H   0  0  0  0  0  0  0  0  0  0  0  0
   -7.3301    3.8857  -14.0423 H   0  0  0  0  0  0  0  0  0  0  0  0
   -6.8464    6.3547  -16.4634 H   0  0  0  0  0  0  0  0  0  0  0  0
   -6.5261    4.6092  -16.5750 H   0  0  0  0  0  0  0  0  0  0  0  0
   -6.8747    5.5665  -18.0310 H   0  0  0  0  0  0  0  0  0  0  0  0
  -10.0910    3.6649  -17.4076 H   0  0  0  0  0  0  0  0  0  0  0  0
   -8.4967    3.0042  -17.0905 H   0  0  0  0  0  0  0  0  0  0  0  0
   -8.7890    3.9081  -18.5930 H   0  0  0  0  0  0  0  0  0  0  0  0
  -10.5275    6.1348  -17.2091 H   0  0  0  0  0  0  0  0  0  0  0  0
   -9.2132    7.2587  -16.8005 H   0  0  0  0  0  0  0  0  0  0  0  0
   -9.2860    6.4838  -18.3995 H   0  0  0  0  0  0  0  0  0  0  0  0
  1 15  1  0  0  0  0
  1 16  2  0  0  0  0
  2  3  1  0  0  0  0
  2  5  1  0  0  0  0
  2  6  2  0  0  0  0
  3  4  2  0  0  0  0
  3  8  1  0  0  0  0
  4  9  1  0  0  0  0
  4 20  1  0  0  0  0
  5 15  2  0  0  0  0
  5 20  1  0  0  0  0
  6 16  1  0  0  0  0
  6 21  1  0  0  0  0
  7 17  1  0  0  0  0
  7 18  2  0  0  0  0
  7 19  1  0  0  0  0
  8 10  1  0  0  0  0
  9 17  1  0  0  0  0
 10 17  1  0  0  0  0
 11 14  1  0  0  0  0
 12 14  1  0  0  0  0
 13 14  1  0  0  0  0
 14 19  1  0  0  0  0
  1 22  1  0  0  0  0
  8 23  1  0  0  0  0
  8 24  1  0  0  0  0
  9 25  1  0  0  0  0
  9 26  1  0  0  0  0
 10 27  1  0  0  0  0
 10 28  1  0  0  0  0
 11 29  1  0  0  0  0
 11 30  1  0  0  0  0
 11 31  1  0  0  0  0
 12 32  1  0  0  0  0
 12 33  1  0  0  0  0
 12 34  1  0  0  0  0
 13 35  1  0  0  0  0
 13 36  1  0  0  0  0
 13 37  1  0  0  0  0
M  END
> <id>
EN300-643028

> <smiles>
CC(C)(C)OC(=O)N1CCC2=C(C1)SC=3N=CN=C(Cl)C23

> <MDLNUMBER>
MFCD09754437

> <IUPAC Name>
tert-butyl 3-chloro-8-thia-4,6,11-triazatricyclo[7.4.0.0,2,7]trideca-1(9),2,4,6-tetraene-11-carboxylate

> <URL>
https://www.enaminestore.com/catalog/EN300-643028

> <ROCS_ShapeQuery>
_x0404_0B

> <ROCS_TanimotoCombo>
0.401 

> <ROCS_ShapeTanimoto>
0.335 

> <ROCS_ColorTanimoto>
0.066 

> <ROCS_RefTversky>
0.298 

> <ROCS_RefColorTversky>
0.071 

> <ROCS_RefTverskyCombo>
0.369 

> <ROCS_FitTversky>
1.600 

> <ROCS_FitColorTversky>
0.490 

> <ROCS_FitTverskyCombo>
2.090 

> <ROCS_ColorScore>
-5.131

> <ROCS_Overlap>
1986.052

> <ROCS_Rank>
109                 

$$$$
untitled-dbase-43704_675
  -OEChem-08212314543D

 48 49  0     1  0  0  0  0  0999 V2000
   -8.5822    5.2648  -14.7546 C   0  0  0  0  0  0  0  0  0  0  0  0
   -7.3694    5.9462  -10.0355 C   0  0  0  0  0  0  0  0  0  0  0  0
   -9.7392    5.2209  -10.3364 C   0  0  0  0  0  0  0  0  0  0  0  0
   -7.8475    3.5158  -10.6393 C   0  0  0  0  0  0  0  0  0  0  0  0
   -9.1788    3.3422  -13.2497 C   0  0  0  0  0  0  0  0  0  0  0  0
   -8.1991    5.5096  -12.3460 C   0  0  0  0  0  0  0  0  0  0  0  0
   -7.5996    5.8581   -8.5285 C   0  0  0  0  0  0  0  0  0  0  0  0
   -9.8255    5.1275   -8.8158 C   0  0  0  0  0  0  0  0  0  0  0  0
   -7.1186    2.7941  -11.7780 C   0  0  1  0  0  0  0  0  0  0  0  0
   -8.0747    2.3505  -12.8919 C   0  0  2  0  0  0  0  0  0  0  0  0
   -8.2945    5.0021  -10.8730 C   0  0  0  0  0  0  0  0  0  0  0  0
   -7.4103    5.2761  -17.3659 C   0  0  0  0  0  0  0  0  0  0  0  0
   -9.3270    3.7948  -18.0301 C   0  0  0  0  0  0  0  0  0  0  0  0
   -9.7736    6.1287  -17.2167 C   0  0  0  0  0  0  0  0  0  0  0  0
   -8.8666    4.9057  -17.0888 C   0  0  0  0  0  0  0  0  0  0  0  0
   -8.6933    4.7041  -13.4669 N   0  0  0  0  0  0  0  0  0  0  0  0
   -8.1781    6.4062  -14.9737 O   0  0  0  0  0  0  0  0  0  0  0  0
   -8.9676    6.0883   -8.2077 O   0  0  0  0  0  0  0  0  0  0  0  0
   -6.0528    3.5977  -12.2683 O   0  0  0  0  0  0  0  0  0  0  0  0
   -7.3459    2.0038  -14.0660 O   0  0  0  0  0  0  0  0  0  0  0  0
   -8.9627    4.4047  -15.7506 O   0  0  0  0  0  0  0  0  0  0  0  0
   -7.5606    6.9869  -10.3416 H   0  0  0  0  0  0  0  0  0  0  0  0
   -6.3111    5.7444  -10.2532 H   0  0  0  0  0  0  0  0  0  0  0  0
  -10.4376    4.5137  -10.7887 H   0  0  0  0  0  0  0  0  0  0  0  0
  -10.0645    6.2268  -10.6235 H   0  0  0  0  0  0  0  0  0  0  0  0
   -8.7283    2.9136  -10.3541 H   0  0  0  0  0  0  0  0  0  0  0  0
   -7.2215    3.4718   -9.7285 H   0  0  0  0  0  0  0  0  0  0  0  0
   -9.7000    2.9911  -14.1477 H   0  0  0  0  0  0  0  0  0  0  0  0
   -9.9283    3.3753  -12.4490 H   0  0  0  0  0  0  0  0  0  0  0  0
   -8.7022    6.5142  -12.4306 H   0  0  0  0  0  0  0  0  0  0  0  0
   -7.1275    5.7730  -12.5734 H   0  0  0  0  0  0  0  0  0  0  0  0
   -7.2807    4.8913   -8.1197 H   0  0  0  0  0  0  0  0  0  0  0  0
   -7.0077    6.6301   -8.0230 H   0  0  0  0  0  0  0  0  0  0  0  0
  -10.8469    5.3484   -8.4951 H   0  0  0  0  0  0  0  0  0  0  0  0
   -9.5806    4.1289   -8.4459 H   0  0  0  0  0  0  0  0  0  0  0  0
   -6.6265    1.8657  -11.3456 H   0  0  0  0  0  0  0  0  0  0  0  0
   -8.5671    1.4077  -12.5707 H   0  0  0  0  0  0  0  0  0  0  0  0
   -7.0760    6.0732  -16.6923 H   0  0  0  0  0  0  0  0  0  0  0  0
   -6.7448    4.4154  -17.2433 H   0  0  0  0  0  0  0  0  0  0  0  0
   -7.2921    5.6626  -18.3847 H   0  0  0  0  0  0  0  0  0  0  0  0
  -10.3714    3.5259  -17.8348 H   0  0  0  0  0  0  0  0  0  0  0  0
   -8.7392    2.8829  -17.8746 H   0  0  0  0  0  0  0  0  0  0  0  0
   -9.2359    4.0913  -19.0800 H   0  0  0  0  0  0  0  0  0  0  0  0
  -10.8183    5.8633  -17.0180 H   0  0  0  0  0  0  0  0  0  0  0  0
   -9.4806    6.9226  -16.5221 H   0  0  0  0  0  0  0  0  0  0  0  0
   -9.7451    6.5301  -18.2362 H   0  0  0  0  0  0  0  0  0  0  0  0
   -5.6385    3.0880  -12.9784 H   0  0  0  0  0  0  0  0  0  0  0  0
   -6.9726    2.8294  -14.4089 H   0  0  0  0  0  0  0  0  0  0  0  0
  1 16  1  0  0  0  0
  1 17  2  0  0  0  0
  1 21  1  0  0  0  0
  2  7  1  0  0  0  0
  2 11  1  0  0  0  0
  3  8  1  0  0  0  0
  3 11  1  0  0  0  0
  4  9  1  0  0  0  0
  4 11  1  0  0  0  0
  5 10  1  0  0  0  0
  5 16  1  0  0  0  0
  6 11  1  0  0  0  0
  6 16  1  0  0  0  0
  7 18  1  0  0  0  0
  8 18  1  0  0  0  0
  9 10  1  0  0  0  0
  9 19  1  1  0  0  0
 10 20  1  1  0  0  0
 12 15  1  0  0  0  0
 13 15  1  0  0  0  0
 14 15  1  0  0  0  0
 15 21  1  0  0  0  0
  2 22  1  0  0  0  0
  2 23  1  0  0  0  0
  3 24  1  0  0  0  0
  3 25  1  0  0  0  0
  4 26  1  0  0  0  0
  4 27  1  0  0  0  0
  5 28  1  0  0  0  0
  5 29  1  0  0  0  0
  6 30  1  0  0  0  0
  6 31  1  0  0  0  0
  7 32  1  0  0  0  0
  7 33  1  0  0  0  0
  8 34  1  0  0  0  0
  8 35  1  0  0  0  0
  9 36  1  0  0  0  0
 10 37  1  0  0  0  0
 12 38  1  0  0  0  0
 12 39  1  0  0  0  0
 12 40  1  0  0  0  0
 13 41  1  0  0  0  0
 13 42  1  0  0  0  0
 13 43  1  0  0  0  0
 14 44  1  0  0  0  0
 14 45  1  0  0  0  0
 14 46  1  0  0  0  0
 19 47  1  0  0  0  0
 20 48  1  0  0  0  0
M  END
> <id>
EN300-28229262

> <smiles>
CC(C)(C)OC(=O)N1C[C@@H](O)[C@@H](O)CC2(CCOCC2)C1 |&1:9,11,r|

> <IUPAC Name>
rac-tert-butyl (10R,11S)-10,11-dihydroxy-3-oxa-8-azaspiro[5.6]dodecane-8-carboxylate

> <CAS>
2639374-58-4

> <URL>
https://www.enaminestore.com/catalog/EN300-28229262

> <ROCS_ShapeQuery>
_x0404_0B

> <ROCS_TanimotoCombo>
0.401 

> <ROCS_ShapeTanimoto>
0.270 

> <ROCS_ColorTanimoto>
0.131 

> <ROCS_RefTversky>
0.252 

> <ROCS_RefColorTversky>
0.135 

> <ROCS_RefTverskyCombo>
0.387 

> <ROCS_FitTversky>
1.382 

> <ROCS_FitColorTversky>
0.793 

> <ROCS_FitTverskyCombo>
2.175 

> <ROCS_ColorScore>
-9.781

> <ROCS_Overlap>
1678.229

> <ROCS_Rank>
110                 

$$$$
untitled-dbase-10096_22
  -OEChem-08212314543D

 43 45  0     1  0  0  0  0  0999 V2000
   -9.3085    4.0405   -6.9643 C   0  0  0  0  0  0  0  0  0  0  0  0
   -9.3149    2.6484   -6.8729 C   0  0  0  0  0  0  0  0  0  0  0  0
   -8.6696    2.4849   -9.1967 C   0  0  0  0  0  0  0  0  0  0  0  0
   -8.9825    4.6510   -8.1783 C   0  0  0  0  0  0  0  0  0  0  0  0
   -8.6778    3.8771   -9.2993 C   0  0  0  0  0  0  0  0  0  0  0  0
   -8.9916    1.8719   -7.9855 C   0  0  0  0  0  0  0  0  0  0  0  0
   -8.9172    6.1203   -8.2820 C   0  0  0  0  0  0  0  0  0  0  0  0
   -8.7440    5.7261  -14.4395 C   0  0  0  0  0  0  0  0  0  0  0  0
   -8.4061    6.6652   -9.5885 C   0  0  0  0  0  0  0  0  0  0  0  0
  -10.3114    5.7844  -11.0880 C   0  0  0  0  0  0  0  0  0  0  0  0
  -10.3537    5.3182  -12.5380 C   0  0  0  0  0  0  0  0  0  0  0  0
   -8.1701    6.2162  -12.0599 C   0  0  0  0  0  0  0  0  0  0  0  0
   -8.8080    5.7512  -10.7416 C   0  0  1  0  0  0  0  0  0  0  0  0
   -7.5892    4.3758  -16.6781 C   0  0  0  0  0  0  0  0  0  0  0  0
   -9.8852    3.4307  -17.0581 C   0  0  0  0  0  0  0  0  0  0  0  0
   -9.5161    5.9115  -17.1914 C   0  0  0  0  0  0  0  0  0  0  0  0
   -9.0892    4.6127  -16.5089 C   0  0  0  0  0  0  0  0  0  0  0  0
   -9.0806    5.7484  -13.0968 N   0  0  0  0  0  0  0  0  0  0  0  0
   -9.2036    6.8419   -7.3342 O   0  0  0  0  0  0  0  0  0  0  0  0
   -7.9658    6.5159  -14.9694 O   0  0  0  0  0  0  0  0  0  0  0  0
   -8.3656    4.4001  -10.5251 O   0  0  0  0  0  0  0  0  0  0  0  0
   -9.3794    4.7157  -15.1105 O   0  0  0  0  0  0  0  0  0  0  0  0
   -8.9879    0.5357   -7.8902 F   0  0  0  0  0  0  0  0  0  0  0  0
   -9.5680    4.6275   -6.0878 H   0  0  0  0  0  0  0  0  0  0  0  0
   -9.5792    2.1678   -5.9353 H   0  0  0  0  0  0  0  0  0  0  0  0
   -8.4017    1.8710  -10.0526 H   0  0  0  0  0  0  0  0  0  0  0  0
   -8.8391    7.6656   -9.7116 H   0  0  0  0  0  0  0  0  0  0  0  0
   -7.3160    6.7622   -9.5299 H   0  0  0  0  0  0  0  0  0  0  0  0
  -10.7062    6.8048  -11.0204 H   0  0  0  0  0  0  0  0  0  0  0  0
  -10.9070    5.1283  -10.4465 H   0  0  0  0  0  0  0  0  0  0  0  0
  -10.3975    4.2264  -12.6114 H   0  0  0  0  0  0  0  0  0  0  0  0
  -11.1887    5.7427  -13.1022 H   0  0  0  0  0  0  0  0  0  0  0  0
   -8.1292    7.3092  -12.1390 H   0  0  0  0  0  0  0  0  0  0  0  0
   -7.1713    5.8072  -12.2445 H   0  0  0  0  0  0  0  0  0  0  0  0
   -7.0143    5.2220  -16.2851 H   0  0  0  0  0  0  0  0  0  0  0  0
   -7.2640    3.4656  -16.1636 H   0  0  0  0  0  0  0  0  0  0  0  0
   -7.3243    4.2877  -17.7379 H   0  0  0  0  0  0  0  0  0  0  0  0
  -10.9620    3.5964  -16.9388 H   0  0  0  0  0  0  0  0  0  0  0  0
   -9.6513    2.5127  -16.5069 H   0  0  0  0  0  0  0  0  0  0  0  0
   -9.6760    3.2608  -18.1192 H   0  0  0  0  0  0  0  0  0  0  0  0
  -10.5920    6.0816  -17.0702 H   0  0  0  0  0  0  0  0  0  0  0  0
   -8.9815    6.7757  -16.7840 H   0  0  0  0  0  0  0  0  0  0  0  0
   -9.3301    5.8640  -18.2705 H   0  0  0  0  0  0  0  0  0  0  0  0
  1  2  1  0  0  0  0
  1  4  2  0  0  0  0
  2  6  2  0  0  0  0
  3  5  2  0  0  0  0
  3  6  1  0  0  0  0
  4  5  1  0  0  0  0
  4  7  1  0  0  0  0
  5 21  1  0  0  0  0
  6 23  1  0  0  0  0
  7  9  1  0  0  0  0
  7 19  2  0  0  0  0
  8 18  1  0  0  0  0
  8 20  2  0  0  0  0
  8 22  1  0  0  0  0
  9 13  1  0  0  0  0
 10 11  1  0  0  0  0
 10 13  1  0  0  0  0
 11 18  1  0  0  0  0
 12 13  1  0  0  0  0
 12 18  1  0  0  0  0
 13 21  1  0  0  0  0
 14 17  1  0  0  0  0
 15 17  1  0  0  0  0
 16 17  1  0  0  0  0
 17 22  1  0  0  0  0
  1 24  1  0  0  0  0
  2 25  1  0  0  0  0
  3 26  1  0  0  0  0
  9 27  1  0  0  0  0
  9 28  1  0  0  0  0
 10 29  1  0  0  0  0
 10 30  1  0  0  0  0
 11 31  1  0  0  0  0
 11 32  1  0  0  0  0
 12 33  1  0  0  0  0
 12 34  1  0  0  0  0
 14 35  1  0  0  0  0
 14 36  1  0  0  0  0
 14 37  1  0  0  0  0
 15 38  1  0  0  0  0
 15 39  1  0  0  0  0
 15 40  1  0  0  0  0
 16 41  1  0  0  0  0
 16 42  1  0  0  0  0
 16 43  1  0  0  0  0
M  END
> <id>
EN300-338214

> <smiles>
CC(C)(C)OC(=O)N1CCC2(C1)CC(=O)C=3C=CC(F)=CC3O2

> <MDLNUMBER>
MFCD30499683

> <IUPAC Name>
tert-butyl 7-fluoro-4-oxo-3,4-dihydrospiro[1-benzopyran-2,3'-pyrrolidine]-1'-carboxylate

> <CAS>
2060026-54-0

> <URL>
https://www.enaminestore.com/catalog/EN300-338214

> <ROCS_ShapeQuery>
_x0404_0B

> <ROCS_TanimotoCombo>
0.401 

> <ROCS_ShapeTanimoto>
0.330 

> <ROCS_ColorTanimoto>
0.071 

> <ROCS_RefTversky>
0.298 

> <ROCS_RefColorTversky>
0.076 

> <ROCS_RefTverskyCombo>
0.374 

> <ROCS_FitTversky>
1.474 

> <ROCS_FitColorTversky>
0.527 

> <ROCS_FitTverskyCombo>
2.001 

> <ROCS_ColorScore>
-5.498

> <ROCS_Overlap>
1991.127

> <ROCS_Rank>
111                 

$$$$
untitled-dbase-34195_539
  -OEChem-08212314543D

 48 50  0     1  0  0  0  0  0999 V2000
   -9.2259    3.4941   -7.2150 C   0  0  0  0  0  0  0  0  0  0  0  0
   -9.2146    2.3830   -8.0322 C   0  0  0  0  0  0  0  0  0  0  0  0
   -9.0536    4.6028   -8.0707 C   0  0  0  0  0  0  0  0  0  0  0  0
   -8.9410    4.0895   -9.3429 C   0  0  0  0  0  0  0  0  0  0  0  0
   -8.4530    5.3623  -14.7914 C   0  0  0  0  0  0  0  0  0  0  0  0
   -8.9780    6.0617   -7.8247 C   0  0  0  0  0  0  0  0  0  0  0  0
   -7.7357    3.0864  -12.2850 C   0  0  0  0  0  0  0  0  0  0  0  0
   -7.5266    4.3240  -11.3998 C   0  0  0  0  0  0  0  0  0  0  0  0
  -10.0857    4.7944  -11.4366 C   0  0  0  0  0  0  0  0  0  0  0  0
   -9.2225    6.8276   -9.1433 C   0  0  0  0  0  0  0  0  0  0  0  0
   -8.7297    3.2545  -13.4396 C   0  0  0  0  0  0  0  0  0  0  0  0
  -10.0073    5.3355  -12.8679 C   0  0  0  0  0  0  0  0  0  0  0  0
   -8.7670    4.8548  -10.6242 C   0  0  1  0  0  0  0  0  0  0  0  0
   -7.1580    6.3204  -17.1560 C   0  0  0  0  0  0  0  0  0  0  0  0
   -7.7524    4.0960  -18.1600 C   0  0  0  0  0  0  0  0  0  0  0  0
   -9.5724    5.6581  -17.4146 C   0  0  0  0  0  0  0  0  0  0  0  0
   -8.1534    5.1612  -17.1418 C   0  0  0  0  0  0  0  0  0  0  0  0
   -8.4487    6.2824  -10.2803 N   0  0  0  0  0  0  0  0  0  0  0  0
   -9.0360    4.6576  -13.7304 N   0  0  0  0  0  0  0  0  0  0  0  0
   -8.2439    6.5742  -14.7838 O   0  0  0  0  0  0  0  0  0  0  0  0
   -9.0459    2.7380   -9.3369 O   0  0  0  0  0  0  0  0  0  0  0  0
   -8.1249    4.5519  -15.8461 O   0  0  0  0  0  0  0  0  0  0  0  0
   -9.3467    3.4948   -6.1415 H   0  0  0  0  0  0  0  0  0  0  0  0
   -9.3118    1.3229   -7.8492 H   0  0  0  0  0  0  0  0  0  0  0  0
   -9.7166    6.3680   -7.0757 H   0  0  0  0  0  0  0  0  0  0  0  0
   -7.9826    6.3077   -7.4343 H   0  0  0  0  0  0  0  0  0  0  0  0
   -6.7671    2.7297  -12.6699 H   0  0  0  0  0  0  0  0  0  0  0  0
   -8.1033    2.2740  -11.6379 H   0  0  0  0  0  0  0  0  0  0  0  0
   -6.7250    4.0951  -10.6881 H   0  0  0  0  0  0  0  0  0  0  0  0
   -7.1327    5.1205  -12.0424 H   0  0  0  0  0  0  0  0  0  0  0  0
  -10.8690    5.3608  -10.9284 H   0  0  0  0  0  0  0  0  0  0  0  0
  -10.4415    3.7632  -11.4689 H   0  0  0  0  0  0  0  0  0  0  0  0
  -10.2928    6.8301   -9.3882 H   0  0  0  0  0  0  0  0  0  0  0  0
   -8.9357    7.8761   -8.9966 H   0  0  0  0  0  0  0  0  0  0  0  0
   -8.3008    2.7881  -14.3414 H   0  0  0  0  0  0  0  0  0  0  0  0
   -9.6695    2.7113  -13.2456 H   0  0  0  0  0  0  0  0  0  0  0  0
  -10.9816    5.2326  -13.3480 H   0  0  0  0  0  0  0  0  0  0  0  0
   -9.7805    6.4012  -12.8384 H   0  0  0  0  0  0  0  0  0  0  0  0
   -7.4424    7.0871  -16.4265 H   0  0  0  0  0  0  0  0  0  0  0  0
   -6.1420    5.9825  -16.9272 H   0  0  0  0  0  0  0  0  0  0  0  0
   -7.1465    6.8139  -18.1345 H   0  0  0  0  0  0  0  0  0  0  0  0
   -8.4639    3.2623  -18.1532 H   0  0  0  0  0  0  0  0  0  0  0  0
   -6.7738    3.6687  -17.9130 H   0  0  0  0  0  0  0  0  0  0  0  0
   -7.7063    4.5042  -19.1748 H   0  0  0  0  0  0  0  0  0  0  0  0
  -10.2866    4.8268  -17.4044 H   0  0  0  0  0  0  0  0  0  0  0  0
   -9.8909    6.3965  -16.6716 H   0  0  0  0  0  0  0  0  0  0  0  0
   -9.6415    6.1130  -18.4093 H   0  0  0  0  0  0  0  0  0  0  0  0
   -8.5768    6.8755  -11.0996 H   0  0  0  0  0  0  0  0  0  0  0  0
  1  2  2  0  0  0  0
  1  3  1  0  0  0  0
  2 21  1  0  0  0  0
  3  4  2  0  0  0  0
  3  6  1  0  0  0  0
  4 13  1  0  0  0  0
  4 21  1  0  0  0  0
  5 19  1  0  0  0  0
  5 20  2  0  0  0  0
  5 22  1  0  0  0  0
  6 10  1  0  0  0  0
  7  8  1  0  0  0  0
  7 11  1  0  0  0  0
  8 13  1  0  0  0  0
  9 12  1  0  0  0  0
  9 13  1  0  0  0  0
 10 18  1  0  0  0  0
 11 19  1  0  0  0  0
 12 19  1  0  0  0  0
 13 18  1  0  0  0  0
 14 17  1  0  0  0  0
 15 17  1  0  0  0  0
 16 17  1  0  0  0  0
 17 22  1  0  0  0  0
  1 23  1  0  0  0  0
  2 24  1  0  0  0  0
  6 25  1  0  0  0  0
  6 26  1  0  0  0  0
  7 27  1  0  0  0  0
  7 28  1  0  0  0  0
  8 29  1  0  0  0  0
  8 30  1  0  0  0  0
  9 31  1  0  0  0  0
  9 32  1  0  0  0  0
 10 33  1  0  0  0  0
 10 34  1  0  0  0  0
 11 35  1  0  0  0  0
 11 36  1  0  0  0  0
 12 37  1  0  0  0  0
 12 38  1  0  0  0  0
 14 39  1  0  0  0  0
 14 40  1  0  0  0  0
 14 41  1  0  0  0  0
 15 42  1  0  0  0  0
 15 43  1  0  0  0  0
 15 44  1  0  0  0  0
 16 45  1  0  0  0  0
 16 46  1  0  0  0  0
 16 47  1  0  0  0  0
 18 48  1  0  0  0  0
M  END
> <id>
EN300-1076907

> <smiles>
CC(C)(C)OC(=O)N1CCCC2(CC1)NCCC=3C=COC32

> <IUPAC Name>
tert-butyl 5',6'-dihydro-4'H-spiro[azepane-4,7'-furo[2,3-c]pyridine]-1-carboxylate

> <CAS>
2137484-99-0

> <URL>
https://www.enaminestore.com/catalog/EN300-1076907

> <ROCS_ShapeQuery>
_x0404_0B

> <ROCS_TanimotoCombo>
0.401 

> <ROCS_ShapeTanimoto>
0.340 

> <ROCS_ColorTanimoto>
0.061 

> <ROCS_RefTversky>
0.303 

> <ROCS_RefColorTversky>
0.066 

> <ROCS_RefTverskyCombo>
0.369 

> <ROCS_FitTversky>
1.570 

> <ROCS_FitColorTversky>
0.420 

> <ROCS_FitTverskyCombo>
1.990 

> <ROCS_ColorScore>
-4.792

> <ROCS_Overlap>
2021.607

> <ROCS_Rank>
112                 

$$$$
untitled-dbase-46293_900
  -OEChem-08212314543D

 49 50  0     0  0  0  0  0  0999 V2000
   -8.7416    5.6638  -14.3821 C   0  0  0  0  0  0  0  0  0  0  0  0
   -7.6207    4.9928   -9.0064 C   0  0  0  0  0  0  0  0  0  0  0  0
  -10.0831    4.6774   -9.5756 C   0  0  0  0  0  0  0  0  0  0  0  0
   -7.6212    3.7303   -8.1383 C   0  0  0  0  0  0  0  0  0  0  0  0
  -10.0993    4.3047   -8.0876 C   0  0  0  0  0  0  0  0  0  0  0  0
   -8.2606    3.9103  -11.2063 C   0  0  0  0  0  0  0  0  0  0  0  0
   -8.6453    6.3655  -10.8381 C   0  0  0  0  0  0  0  0  0  0  0  0
   -9.0588    3.9999  -12.5084 C   0  0  0  0  0  0  0  0  0  0  0  0
   -9.4580    6.4128  -12.1301 C   0  0  0  0  0  0  0  0  0  0  0  0
   -8.6652    4.9744  -10.1483 C   0  0  0  0  0  0  0  0  0  0  0  0
   -9.0319    3.2625   -7.7365 C   0  0  0  0  0  0  0  0  0  0  0  0
   -9.0836    2.9145   -6.2466 C   0  0  0  0  0  0  0  0  0  0  0  0
   -7.3161    5.1079  -16.8013 C   0  0  0  0  0  0  0  0  0  0  0  0
   -9.2816    3.6670  -17.4098 C   0  0  0  0  0  0  0  0  0  0  0  0
   -9.5962    6.1368  -17.0793 C   0  0  0  0  0  0  0  0  0  0  0  0
   -8.8203    4.8983  -16.6331 C   0  0  0  0  0  0  0  0  0  0  0  0
   -9.0432    5.3589  -13.0507 N   0  0  0  0  0  0  0  0  0  0  0  0
   -8.2168    6.7130  -14.7510 O   0  0  0  0  0  0  0  0  0  0  0  0
   -9.3150    2.0584   -8.4594 O   0  0  0  0  0  0  0  0  0  0  0  0
   -9.0955    4.6625  -15.2474 O   0  0  0  0  0  0  0  0  0  0  0  0
   -7.7829    5.8666   -8.3578 H   0  0  0  0  0  0  0  0  0  0  0  0
   -6.6148    5.1238   -9.4336 H   0  0  0  0  0  0  0  0  0  0  0  0
  -10.5313    3.8484  -10.1445 H   0  0  0  0  0  0  0  0  0  0  0  0
  -10.7568    5.5307   -9.7256 H   0  0  0  0  0  0  0  0  0  0  0  0
   -7.1151    2.9313   -8.7048 H   0  0  0  0  0  0  0  0  0  0  0  0
   -7.0099    3.9020   -7.2381 H   0  0  0  0  0  0  0  0  0  0  0  0
   -9.9630    5.2077   -7.4819 H   0  0  0  0  0  0  0  0  0  0  0  0
  -11.0961    3.9128   -7.8503 H   0  0  0  0  0  0  0  0  0  0  0  0
   -8.3701    2.9001  -10.7886 H   0  0  0  0  0  0  0  0  0  0  0  0
   -7.1936    4.0242  -11.4488 H   0  0  0  0  0  0  0  0  0  0  0  0
   -7.6080    6.6325  -11.0792 H   0  0  0  0  0  0  0  0  0  0  0  0
   -9.0098    7.1480  -10.1658 H   0  0  0  0  0  0  0  0  0  0  0  0
   -8.6493    3.2924  -13.2354 H   0  0  0  0  0  0  0  0  0  0  0  0
  -10.1058    3.7239  -12.3478 H   0  0  0  0  0  0  0  0  0  0  0  0
  -10.5244    6.2705  -11.9290 H   0  0  0  0  0  0  0  0  0  0  0  0
   -9.3497    7.4015  -12.5832 H   0  0  0  0  0  0  0  0  0  0  0  0
  -10.0864    2.5865   -5.9813 H   0  0  0  0  0  0  0  0  0  0  0  0
   -8.8250    3.7909   -5.6562 H   0  0  0  0  0  0  0  0  0  0  0  0
   -8.3765    2.1159   -6.0319 H   0  0  0  0  0  0  0  0  0  0  0  0
   -6.9811    5.9908  -16.2453 H   0  0  0  0  0  0  0  0  0  0  0  0
   -6.7465    4.2404  -16.4523 H   0  0  0  0  0  0  0  0  0  0  0  0
   -7.0616    5.2892  -17.8518 H   0  0  0  0  0  0  0  0  0  0  0  0
  -10.3602    3.5128  -17.2919 H   0  0  0  0  0  0  0  0  0  0  0  0
   -8.7968    2.7609  -17.0286 H   0  0  0  0  0  0  0  0  0  0  0  0
   -9.0587    3.7562  -18.4779 H   0  0  0  0  0  0  0  0  0  0  0  0
  -10.6752    5.9868  -16.9587 H   0  0  0  0  0  0  0  0  0  0  0  0
   -9.3045    7.0233  -16.5069 H   0  0  0  0  0  0  0  0  0  0  0  0
   -9.4291    6.3388  -18.1435 H   0  0  0  0  0  0  0  0  0  0  0  0
  -10.2040    1.7847   -8.1909 H   0  0  0  0  0  0  0  0  0  0  0  0
  1 17  1  0  0  0  0
  1 18  2  0  0  0  0
  1 20  1  0  0  0  0
  2  4  1  0  0  0  0
  2 10  1  0  0  0  0
  3  5  1  0  0  0  0
  3 10  1  0  0  0  0
  4 11  1  0  0  0  0
  5 11  1  0  0  0  0
  6  8  1  0  0  0  0
  6 10  1  0  0  0  0
  7  9  1  0  0  0  0
  7 10  1  0  0  0  0
  8 17  1  0  0  0  0
  9 17  1  0  0  0  0
 11 12  1  0  0  0  0
 11 19  1  0  0  0  0
 13 16  1  0  0  0  0
 14 16  1  0  0  0  0
 15 16  1  0  0  0  0
 16 20  1  0  0  0  0
  2 21  1  0  0  0  0
  2 22  1  0  0  0  0
  3 23  1  0  0  0  0
  3 24  1  0  0  0  0
  4 25  1  0  0  0  0
  4 26  1  0  0  0  0
  5 27  1  0  0  0  0
  5 28  1  0  0  0  0
  6 29  1  0  0  0  0
  6 30  1  0  0  0  0
  7 31  1  0  0  0  0
  7 32  1  0  0  0  0
  8 33  1  0  0  0  0
  8 34  1  0  0  0  0
  9 35  1  0  0  0  0
  9 36  1  0  0  0  0
 12 37  1  0  0  0  0
 12 38  1  0  0  0  0
 12 39  1  0  0  0  0
 13 40  1  0  0  0  0
 13 41  1  0  0  0  0
 13 42  1  0  0  0  0
 14 43  1  0  0  0  0
 14 44  1  0  0  0  0
 14 45  1  0  0  0  0
 15 46  1  0  0  0  0
 15 47  1  0  0  0  0
 15 48  1  0  0  0  0
 19 49  1  0  0  0  0
M  END
> <id>
EN300-27753231

> <smiles>
CC(C)(C)OC(=O)N1CCC2(CC1)CCC(C)(O)CC2

> <MDLNUMBER>
MFCD34186471

> <IUPAC Name>
tert-butyl 9-hydroxy-9-methyl-3-azaspiro[5.5]undecane-3-carboxylate

> <CAS>
2680528-18-9

> <Purity>
95

> <URL>
https://www.enaminestore.com/catalog/EN300-27753231

> <ROCS_ShapeQuery>
_x0404_0B

> <ROCS_TanimotoCombo>
0.401 

> <ROCS_ShapeTanimoto>
0.313 

> <ROCS_ColorTanimoto>
0.088 

> <ROCS_RefTversky>
0.280 

> <ROCS_RefColorTversky>
0.091 

> <ROCS_RefTverskyCombo>
0.372 

> <ROCS_FitTversky>
1.600 

> <ROCS_FitColorTversky>
0.693 

> <ROCS_FitTverskyCombo>
2.294 

> <ROCS_ColorScore>
-6.571

> <ROCS_Overlap>
1870.305

> <ROCS_Rank>
113                 

$$$$
untitled-dbase-9944_21
  -OEChem-08212314543D

 46 48  0     1  0  0  0  0  0999 V2000
   -8.9909    1.8709   -7.9864 C   0  0  0  0  0  0  0  0  0  0  0  0
   -8.6688    2.4843   -9.1974 C   0  0  0  0  0  0  0  0  0  0  0  0
   -9.3098    4.0391   -6.9650 C   0  0  0  0  0  0  0  0  0  0  0  0
   -8.9836    4.6501   -8.1788 C   0  0  0  0  0  0  0  0  0  0  0  0
   -9.3153    2.6470   -6.8738 C   0  0  0  0  0  0  0  0  0  0  0  0
   -8.6779    3.8765   -9.2997 C   0  0  0  0  0  0  0  0  0  0  0  0
   -8.9193    6.1194   -8.2822 C   0  0  0  0  0  0  0  0  0  0  0  0
   -8.7430    5.7263  -14.4397 C   0  0  0  0  0  0  0  0  0  0  0  0
   -8.4080    6.6649   -9.5884 C   0  0  0  0  0  0  0  0  0  0  0  0
  -10.3120    5.7830  -11.0889 C   0  0  0  0  0  0  0  0  0  0  0  0
  -10.3533    5.3170  -12.5390 C   0  0  0  0  0  0  0  0  0  0  0  0
   -8.1706    6.2164  -12.0598 C   0  0  0  0  0  0  0  0  0  0  0  0
   -8.8088    5.7508  -10.7418 C   0  0  1  0  0  0  0  0  0  0  0  0
   -9.6773    1.9861   -5.5864 C   0  0  0  0  0  0  0  0  0  0  0  0
   -7.5864    4.3771  -16.6780 C   0  0  0  0  0  0  0  0  0  0  0  0
   -9.8816    3.4305  -17.0592 C   0  0  0  0  0  0  0  0  0  0  0  0
   -9.5141    5.9115  -17.1919 C   0  0  0  0  0  0  0  0  0  0  0  0
   -9.0866    4.6129  -16.5095 C   0  0  0  0  0  0  0  0  0  0  0  0
   -9.0803    5.7482  -13.0971 N   0  0  0  0  0  0  0  0  0  0  0  0
   -9.2066    6.8407   -7.3345 O   0  0  0  0  0  0  0  0  0  0  0  0
   -7.9651    6.5167  -14.9691 O   0  0  0  0  0  0  0  0  0  0  0  0
   -8.3655    4.3999  -10.5253 O   0  0  0  0  0  0  0  0  0  0  0  0
   -9.3775    4.7156  -15.1111 O   0  0  0  0  0  0  0  0  0  0  0  0
   -8.9851    0.7860   -7.9185 H   0  0  0  0  0  0  0  0  0  0  0  0
   -8.4007    1.8707  -10.0536 H   0  0  0  0  0  0  0  0  0  0  0  0
   -9.5691    4.6347   -6.0934 H   0  0  0  0  0  0  0  0  0  0  0  0
   -8.8409    7.6653   -9.7115 H   0  0  0  0  0  0  0  0  0  0  0  0
   -7.3179    6.7619   -9.5293 H   0  0  0  0  0  0  0  0  0  0  0  0
  -10.7077    6.8030  -11.0212 H   0  0  0  0  0  0  0  0  0  0  0  0
  -10.9075    5.1261  -10.4480 H   0  0  0  0  0  0  0  0  0  0  0  0
  -10.3962    4.2251  -12.6125 H   0  0  0  0  0  0  0  0  0  0  0  0
  -11.1884    5.7409  -13.1035 H   0  0  0  0  0  0  0  0  0  0  0  0
   -8.1307    7.3095  -12.1387 H   0  0  0  0  0  0  0  0  0  0  0  0
   -7.1712    5.8085  -12.2440 H   0  0  0  0  0  0  0  0  0  0  0  0
   -8.7813    1.8255   -4.9747 H   0  0  0  0  0  0  0  0  0  0  0  0
  -10.3866    2.5955   -5.0117 H   0  0  0  0  0  0  0  0  0  0  0  0
  -10.1596    1.0152   -5.7592 H   0  0  0  0  0  0  0  0  0  0  0  0
   -7.0123    5.2236  -16.2846 H   0  0  0  0  0  0  0  0  0  0  0  0
   -7.2608    3.4671  -16.1635 H   0  0  0  0  0  0  0  0  0  0  0  0
   -7.3209    4.2894  -17.7377 H   0  0  0  0  0  0  0  0  0  0  0  0
  -10.9586    3.5955  -16.9404 H   0  0  0  0  0  0  0  0  0  0  0  0
   -9.6472    2.5126  -16.5080 H   0  0  0  0  0  0  0  0  0  0  0  0
   -9.6718    3.2610  -18.1202 H   0  0  0  0  0  0  0  0  0  0  0  0
  -10.5901    6.0809  -17.0712 H   0  0  0  0  0  0  0  0  0  0  0  0
   -8.9803    6.7761  -16.7841 H   0  0  0  0  0  0  0  0  0  0  0  0
   -9.3276    5.8644  -18.2709 H   0  0  0  0  0  0  0  0  0  0  0  0
  1  2  1  0  0  0  0
  1  5  2  0  0  0  0
  2  6  2  0  0  0  0
  3  4  2  0  0  0  0
  3  5  1  0  0  0  0
  4  6  1  0  0  0  0
  4  7  1  0  0  0  0
  5 14  1  0  0  0  0
  6 22  1  0  0  0  0
  7  9  1  0  0  0  0
  7 20  2  0  0  0  0
  8 19  1  0  0  0  0
  8 21  2  0  0  0  0
  8 23  1  0  0  0  0
  9 13  1  0  0  0  0
 10 11  1  0  0  0  0
 10 13  1  0  0  0  0
 11 19  1  0  0  0  0
 12 13  1  0  0  0  0
 12 19  1  0  0  0  0
 13 22  1  0  0  0  0
 15 18  1  0  0  0  0
 16 18  1  0  0  0  0
 17 18  1  0  0  0  0
 18 23  1  0  0  0  0
  1 24  1  0  0  0  0
  2 25  1  0  0  0  0
  3 26  1  0  0  0  0
  9 27  1  0  0  0  0
  9 28  1  0  0  0  0
 10 29  1  0  0  0  0
 10 30  1  0  0  0  0
 11 31  1  0  0  0  0
 11 32  1  0  0  0  0
 12 33  1  0  0  0  0
 12 34  1  0  0  0  0
 14 35  1  0  0  0  0
 14 36  1  0  0  0  0
 14 37  1  0  0  0  0
 15 38  1  0  0  0  0
 15 39  1  0  0  0  0
 15 40  1  0  0  0  0
 16 41  1  0  0  0  0
 16 42  1  0  0  0  0
 16 43  1  0  0  0  0
 17 44  1  0  0  0  0
 17 45  1  0  0  0  0
 17 46  1  0  0  0  0
M  END
> <id>
EN300-338196

> <smiles>
CC=1C=CC=2OC3(CCN(C3)C(=O)OC(C)(C)C)CC(=O)C2C1

> <MDLNUMBER>
MFCD30499666

> <IUPAC Name>
tert-butyl 6-methyl-4-oxo-3,4-dihydrospiro[1-benzopyran-2,3'-pyrrolidine]-1'-carboxylate

> <CAS>
2059936-31-9

> <URL>
https://www.enaminestore.com/catalog/EN300-338196

> <ROCS_ShapeQuery>
_x0404_0B

> <ROCS_TanimotoCombo>
0.401 

> <ROCS_ShapeTanimoto>
0.330 

> <ROCS_ColorTanimoto>
0.071 

> <ROCS_RefTversky>
0.298 

> <ROCS_RefColorTversky>
0.076 

> <ROCS_RefTverskyCombo>
0.374 

> <ROCS_FitTversky>
1.478 

> <ROCS_FitColorTversky>
0.527 

> <ROCS_FitTverskyCombo>
2.005 

> <ROCS_ColorScore>
-5.498

> <ROCS_Overlap>
1989.223

> <ROCS_Rank>
114                 

$$$$
untitled-dbase-34270_99
  -OEChem-08212314543D

 51 53  0     1  0  0  0  0  0999 V2000
   -9.3168    3.3162   -7.0625 C   0  0  0  0  0  0  0  0  0  0  0  0
   -9.1717    2.1879   -7.8372 C   0  0  0  0  0  0  0  0  0  0  0  0
   -9.1686    4.5117   -7.8251 C   0  0  0  0  0  0  0  0  0  0  0  0
   -8.9071    4.2512   -9.1603 C   0  0  0  0  0  0  0  0  0  0  0  0
   -8.1638    5.7538  -14.5587 C   0  0  0  0  0  0  0  0  0  0  0  0
   -9.2518    5.9099   -7.3068 C   0  0  0  0  0  0  0  0  0  0  0  0
   -7.4239    5.0863  -11.0565 C   0  0  0  0  0  0  0  0  0  0  0  0
   -9.9559    5.3571  -11.1778 C   0  0  0  0  0  0  0  0  0  0  0  0
   -9.4634    6.9057   -8.4531 C   0  0  0  0  0  0  0  0  0  0  0  0
   -7.7047    4.4928  -12.4346 C   0  0  0  0  0  0  0  0  0  0  0  0
   -8.7188    5.3323  -10.2326 C   0  0  1  0  0  0  0  0  0  0  0  0
   -9.7300    6.0020  -12.5807 C   0  0  0  0  0  0  0  0  0  0  0  0
  -10.9993    5.6961  -13.4090 C   0  0  0  0  0  0  0  0  0  0  0  0
   -9.5831    7.5299  -12.4453 C   0  0  0  0  0  0  0  0  0  0  0  0
   -7.1843    5.9773  -17.2421 C   0  0  0  0  0  0  0  0  0  0  0  0
   -6.8420    3.4916  -17.1272 C   0  0  0  0  0  0  0  0  0  0  0  0
   -9.1553    4.4466  -16.9153 C   0  0  0  0  0  0  0  0  0  0  0  0
   -7.6724    4.6692  -16.6214 C   0  0  0  0  0  0  0  0  0  0  0  0
   -8.5345    6.6563   -9.5653 N   0  0  0  0  0  0  0  0  0  0  0  0
   -8.5196    5.4178  -13.2385 N   0  0  0  0  0  0  0  0  0  0  0  0
   -8.4169    6.8260  -15.1036 O   0  0  0  0  0  0  0  0  0  0  0  0
   -7.4950    4.7442  -15.2019 O   0  0  0  0  0  0  0  0  0  0  0  0
   -8.8575    2.5688   -9.4737 S   0  0  0  0  0  0  0  0  0  0  0  0
   -9.5198    3.2838   -5.9996 H   0  0  0  0  0  0  0  0  0  0  0  0
   -9.2377    1.1571   -7.5190 H   0  0  0  0  0  0  0  0  0  0  0  0
  -10.0705    6.0026   -6.5839 H   0  0  0  0  0  0  0  0  0  0  0  0
   -8.3183    6.1455   -6.7801 H   0  0  0  0  0  0  0  0  0  0  0  0
   -6.7536    4.3999  -10.5262 H   0  0  0  0  0  0  0  0  0  0  0  0
   -6.8679    6.0245  -11.1737 H   0  0  0  0  0  0  0  0  0  0  0  0
  -10.2653    4.3186  -11.3308 H   0  0  0  0  0  0  0  0  0  0  0  0
  -10.7998    5.8379  -10.6794 H   0  0  0  0  0  0  0  0  0  0  0  0
  -10.5016    6.8774   -8.8045 H   0  0  0  0  0  0  0  0  0  0  0  0
   -9.2928    7.9194   -8.0724 H   0  0  0  0  0  0  0  0  0  0  0  0
   -6.7956    4.3027  -12.9788 H   0  0  0  0  0  0  0  0  0  0  0  0
   -8.2252    3.5618  -12.2910 H   0  0  0  0  0  0  0  0  0  0  0  0
  -10.8754    6.1298  -14.3885 H   0  0  0  0  0  0  0  0  0  0  0  0
  -11.8454    6.1332  -12.9032 H   0  0  0  0  0  0  0  0  0  0  0  0
  -11.1075    4.6253  -13.4773 H   0  0  0  0  0  0  0  0  0  0  0  0
   -9.4272    7.9589  -13.4281 H   0  0  0  0  0  0  0  0  0  0  0  0
   -8.7336    7.7487  -11.8089 H   0  0  0  0  0  0  0  0  0  0  0  0
  -10.4871    7.9347  -12.0056 H   0  0  0  0  0  0  0  0  0  0  0  0
   -7.7779    6.8251  -16.8816 H   0  0  0  0  0  0  0  0  0  0  0  0
   -6.1313    6.1661  -17.0093 H   0  0  0  0  0  0  0  0  0  0  0  0
   -7.3001    5.9602  -18.3319 H   0  0  0  0  0  0  0  0  0  0  0  0
   -7.1887    2.5509  -16.6844 H   0  0  0  0  0  0  0  0  0  0  0  0
   -5.7912    3.6012  -16.8356 H   0  0  0  0  0  0  0  0  0  0  0  0
   -6.8917    3.4008  -18.2171 H   0  0  0  0  0  0  0  0  0  0  0  0
   -9.5056    3.5084  -16.4701 H   0  0  0  0  0  0  0  0  0  0  0  0
   -9.7707    5.2645  -16.5266 H   0  0  0  0  0  0  0  0  0  0  0  0
   -9.3302    4.3614  -17.9939 H   0  0  0  0  0  0  0  0  0  0  0  0
   -8.5686    7.4183  -10.2320 H   0  0  0  0  0  0  0  0  0  0  0  0
  1  2  2  0  0  0  0
  1  3  1  0  0  0  0
  2 23  1  0  0  0  0
  3  4  2  0  0  0  0
  3  6  1  0  0  0  0
  4 11  1  0  0  0  0
  4 23  1  0  0  0  0
  5 20  1  0  0  0  0
  5 21  2  0  0  0  0
  5 22  1  0  0  0  0
  6  9  1  0  0  0  0
  7 10  1  0  0  0  0
  7 11  1  0  0  0  0
  8 11  1  0  0  0  0
  8 12  1  0  0  0  0
  9 19  1  0  0  0  0
 10 20  1  0  0  0  0
 11 19  1  0  0  0  0
 12 13  1  0  0  0  0
 12 14  1  0  0  0  0
 12 20  1  0  0  0  0
 15 18  1  0  0  0  0
 16 18  1  0  0  0  0
 17 18  1  0  0  0  0
 18 22  1  0  0  0  0
  1 24  1  0  0  0  0
  2 25  1  0  0  0  0
  6 26  1  0  0  0  0
  6 27  1  0  0  0  0
  7 28  1  0  0  0  0
  7 29  1  0  0  0  0
  8 30  1  0  0  0  0
  8 31  1  0  0  0  0
  9 32  1  0  0  0  0
  9 33  1  0  0  0  0
 10 34  1  0  0  0  0
 10 35  1  0  0  0  0
 13 36  1  0  0  0  0
 13 37  1  0  0  0  0
 13 38  1  0  0  0  0
 14 39  1  0  0  0  0
 14 40  1  0  0  0  0
 14 41  1  0  0  0  0
 15 42  1  0  0  0  0
 15 43  1  0  0  0  0
 15 44  1  0  0  0  0
 16 45  1  0  0  0  0
 16 46  1  0  0  0  0
 16 47  1  0  0  0  0
 17 48  1  0  0  0  0
 17 49  1  0  0  0  0
 17 50  1  0  0  0  0
 19 51  1  0  0  0  0
M  END
> <id>
EN300-1075732

> <smiles>
CC(C)(C)OC(=O)N1CCC2(CC1(C)C)NCCC=3C=CSC32

> <IUPAC Name>
tert-butyl 2,2-dimethyl-5',6'-dihydro-4'H-spiro[piperidine-4,7'-thieno[2,3-c]pyridine]-1-carboxylate

> <CAS>
2137448-16-7

> <URL>
https://www.enaminestore.com/catalog/EN300-1075732

> <ROCS_ShapeQuery>
_x0404_0B

> <ROCS_TanimotoCombo>
0.401 

> <ROCS_ShapeTanimoto>
0.329 

> <ROCS_ColorTanimoto>
0.072 

> <ROCS_RefTversky>
0.296 

> <ROCS_RefColorTversky>
0.078 

> <ROCS_RefTverskyCombo>
0.374 

> <ROCS_FitTversky>
1.511 

> <ROCS_FitColorTversky>
0.493 

> <ROCS_FitTverskyCombo>
2.004 

> <ROCS_ColorScore>
-5.616

> <ROCS_Overlap>
1975.578

> <ROCS_Rank>
115                 

$$$$
untitled-dbase-45757_2
  -OEChem-08212314543D

 38 39  0     0  0  0  0  0  0999 V2000
   -8.3228    5.3850   -8.8452 C   0  0  0  0  0  0  0  0  0  0  0  0
   -9.3143    3.1651  -10.2084 C   0  0  0  0  0  0  0  0  0  0  0  0
   -8.5552    5.4674  -10.2248 C   0  0  0  0  0  0  0  0  0  0  0  0
   -9.0407    4.3439  -10.9174 C   0  0  0  0  0  0  0  0  0  0  0  0
   -8.5949    4.2057   -8.1525 C   0  0  0  0  0  0  0  0  0  0  0  0
   -9.0929    3.0976   -8.8330 C   0  0  0  0  0  0  0  0  0  0  0  0
   -8.5680    5.7258  -14.4084 C   0  0  0  0  0  0  0  0  0  0  0  0
   -8.2314    6.7378  -10.9663 C   0  0  0  0  0  0  0  0  0  0  0  0
   -9.2886    4.3794  -12.4055 C   0  0  0  0  0  0  0  0  0  0  0  0
   -9.0430    6.8523  -12.2507 C   0  0  0  0  0  0  0  0  0  0  0  0
   -6.8893    5.0016  -16.6100 C   0  0  0  0  0  0  0  0  0  0  0  0
   -8.4730    3.0812  -16.9468 C   0  0  0  0  0  0  0  0  0  0  0  0
   -9.3045    5.4411  -17.1654 C   0  0  0  0  0  0  0  0  0  0  0  0
   -8.3280    4.5151  -16.4416 C   0  0  0  0  0  0  0  0  0  0  0  0
   -8.9033    5.6397  -13.0529 N   0  0  0  0  0  0  0  0  0  0  0  0
   -8.2417    6.7649  -14.9788 O   0  0  0  0  0  0  0  0  0  0  0  0
   -8.3712    4.1510   -6.8099 O   0  0  0  0  0  0  0  0  0  0  0  0
   -9.3718    1.9429   -8.1661 O   0  0  0  0  0  0  0  0  0  0  0  0
   -8.6488    4.5153  -15.0458 O   0  0  0  0  0  0  0  0  0  0  0  0
   -7.9268    6.2442   -8.3086 H   0  0  0  0  0  0  0  0  0  0  0  0
   -9.7055    2.2962  -10.7331 H   0  0  0  0  0  0  0  0  0  0  0  0
   -8.4387    7.5924  -10.3108 H   0  0  0  0  0  0  0  0  0  0  0  0
   -7.1654    6.7613  -11.2212 H   0  0  0  0  0  0  0  0  0  0  0  0
   -8.7010    3.5895  -12.8882 H   0  0  0  0  0  0  0  0  0  0  0  0
  -10.3493    4.1839  -12.5967 H   0  0  0  0  0  0  0  0  0  0  0  0
  -10.0940    7.0440  -12.0119 H   0  0  0  0  0  0  0  0  0  0  0  0
   -8.6885    7.6892  -12.8654 H   0  0  0  0  0  0  0  0  0  0  0  0
   -6.7811    6.0305  -16.2485 H   0  0  0  0  0  0  0  0  0  0  0  0
   -6.1824    4.3660  -16.0667 H   0  0  0  0  0  0  0  0  0  0  0  0
   -6.6018    5.0137  -17.6675 H   0  0  0  0  0  0  0  0  0  0  0  0
   -9.5037    2.7281  -16.8280 H   0  0  0  0  0  0  0  0  0  0  0  0
   -7.8435    2.3973  -16.3661 H   0  0  0  0  0  0  0  0  0  0  0  0
   -8.1965    2.9949  -18.0026 H   0  0  0  0  0  0  0  0  0  0  0  0
  -10.3365    5.0923  -17.0448 H   0  0  0  0  0  0  0  0  0  0  0  0
   -9.2405    6.4675  -16.7899 H   0  0  0  0  0  0  0  0  0  0  0  0
   -9.1055    5.4515  -18.2432 H   0  0  0  0  0  0  0  0  0  0  0  0
   -8.0278    5.0009   -6.4924 H   0  0  0  0  0  0  0  0  0  0  0  0
   -9.1694    2.0435   -7.2227 H   0  0  0  0  0  0  0  0  0  0  0  0
  1  3  2  0  0  0  0
  1  5  1  0  0  0  0
  2  4  2  0  0  0  0
  2  6  1  0  0  0  0
  3  4  1  0  0  0  0
  3  8  1  0  0  0  0
  4  9  1  0  0  0  0
  5  6  2  0  0  0  0
  5 17  1  0  0  0  0
  6 18  1  0  0  0  0
  7 15  1  0  0  0  0
  7 16  2  0  0  0  0
  7 19  1  0  0  0  0
  8 10  1  0  0  0  0
  9 15  1  0  0  0  0
 10 15  1  0  0  0  0
 11 14  1  0  0  0  0
 12 14  1  0  0  0  0
 13 14  1  0  0  0  0
 14 19  1  0  0  0  0
  1 20  1  0  0  0  0
  2 21  1  0  0  0  0
  8 22  1  0  0  0  0
  8 23  1  0  0  0  0
  9 24  1  0  0  0  0
  9 25  1  0  0  0  0
 10 26  1  0  0  0  0
 10 27  1  0  0  0  0
 11 28  1  0  0  0  0
 11 29  1  0  0  0  0
 11 30  1  0  0  0  0
 12 31  1  0  0  0  0
 12 32  1  0  0  0  0
 12 33  1  0  0  0  0
 13 34  1  0  0  0  0
 13 35  1  0  0  0  0
 13 36  1  0  0  0  0
 17 37  1  0  0  0  0
 18 38  1  0  0  0  0
M  END
> <id>
EN300-12448872

> <smiles>
CC(C)(C)OC(=O)N1CCC=2C=C(O)C(O)=CC2C1

> <MDLNUMBER>
MFCD20492530

> <IUPAC Name>
tert-butyl 6,7-dihydroxy-1,2,3,4-tetrahydroisoquinoline-2-carboxylate

> <CAS>
921224-56-8

> <URL>
https://www.enaminestore.com/catalog/EN300-12448872

> <ROCS_ShapeQuery>
_x0404_0B

> <ROCS_TanimotoCombo>
0.401 

> <ROCS_ShapeTanimoto>
0.317 

> <ROCS_ColorTanimoto>
0.084 

> <ROCS_RefTversky>
0.282 

> <ROCS_RefColorTversky>
0.089 

> <ROCS_RefTverskyCombo>
0.372 

> <ROCS_FitTversky>
1.631 

> <ROCS_FitColorTversky>
0.566 

> <ROCS_FitTverskyCombo>
2.197 

> <ROCS_ColorScore>
-6.444

> <ROCS_Overlap>
1883.408

> <ROCS_Rank>
116                 

$$$$
untitled-dbase-21817_0
  -OEChem-08212314543D

 34 37  0     0  0  0  0  0  0999 V2000
   -8.9839    5.6918   -9.0613 C   0  0  0  0  0  0  0  0  0  0  0  0
   -9.1314    4.4743   -8.3915 C   0  0  0  0  0  0  0  0  0  0  0  0
   -8.2340    6.7499  -16.2808 C   0  0  0  0  0  0  0  0  0  0  0  0
   -9.0198    3.2483  -10.4832 C   0  0  0  0  0  0  0  0  0  0  0  0
   -8.1824    5.9597  -17.4188 C   0  0  0  0  0  0  0  0  0  0  0  0
   -8.4296    4.0309  -16.2007 C   0  0  0  0  0  0  0  0  0  0  0  0
   -8.3933    6.1269  -15.0379 C   0  0  0  0  0  0  0  0  0  0  0  0
   -8.8698    4.4645  -11.1821 C   0  0  0  0  0  0  0  0  0  0  0  0
   -8.4950    4.7225  -14.9898 C   0  0  0  0  0  0  0  0  0  0  0  0
   -8.7164    4.8069  -12.5633 C   0  0  0  0  0  0  0  0  0  0  0  0
   -8.4524    6.8780  -13.8512 C   0  0  0  0  0  0  0  0  0  0  0  0
   -8.6562    4.0593  -13.7578 C   0  0  0  0  0  0  0  0  0  0  0  0
   -8.8556    5.6544  -10.4545 C   0  0  0  0  0  0  0  0  0  0  0  0
   -8.6133    6.1939  -12.6398 C   0  0  0  0  0  0  0  0  0  0  0  0
   -9.1494    3.2693   -9.0899 C   0  0  0  0  0  0  0  0  0  0  0  0
   -8.3469    8.3713  -13.8635 C   0  0  0  0  0  0  0  0  0  0  0  0
   -8.7617    2.5626  -13.7274 C   0  0  0  0  0  0  0  0  0  0  0  0
   -8.2763    4.6141  -17.4108 N   0  0  0  0  0  0  0  0  0  0  0  0
   -8.6999    6.6802  -11.3565 N   0  0  0  0  0  0  0  0  0  0  0  0
   -9.2962    2.0971   -8.4103 O   0  0  0  0  0  0  0  0  0  0  0  0
   -8.9711    6.6300   -8.5170 H   0  0  0  0  0  0  0  0  0  0  0  0
   -9.2358    4.4757   -7.3090 H   0  0  0  0  0  0  0  0  0  0  0  0
   -8.1515    7.8269  -16.3874 H   0  0  0  0  0  0  0  0  0  0  0  0
   -9.0367    2.2988  -11.0102 H   0  0  0  0  0  0  0  0  0  0  0  0
   -8.0600    6.4081  -18.3995 H   0  0  0  0  0  0  0  0  0  0  0  0
   -8.4990    2.9482  -16.2533 H   0  0  0  0  0  0  0  0  0  0  0  0
   -9.3417    8.8180  -13.9625 H   0  0  0  0  0  0  0  0  0  0  0  0
   -7.8852    8.7400  -12.9408 H   0  0  0  0  0  0  0  0  0  0  0  0
   -7.7220    8.7141  -14.6958 H   0  0  0  0  0  0  0  0  0  0  0  0
   -7.7665    2.1209  -13.6239 H   0  0  0  0  0  0  0  0  0  0  0  0
   -9.3855    2.2333  -12.8906 H   0  0  0  0  0  0  0  0  0  0  0  0
   -9.2240    2.1864  -14.6454 H   0  0  0  0  0  0  0  0  0  0  0  0
   -8.6562    7.6588  -11.1076 H   0  0  0  0  0  0  0  0  0  0  0  0
   -9.3746    2.2695   -7.4591 H   0  0  0  0  0  0  0  0  0  0  0  0
  1  2  1  0  0  0  0
  1 13  2  0  0  0  0
  2 15  2  0  0  0  0
  3  5  1  0  0  0  0
  3  7  2  0  0  0  0
  4  8  2  0  0  0  0
  4 15  1  0  0  0  0
  5 18  2  0  0  0  0
  6  9  2  0  0  0  0
  6 18  1  0  0  0  0
  7  9  1  0  0  0  0
  7 11  1  0  0  0  0
  8 10  1  0  0  0  0
  8 13  1  0  0  0  0
  9 12  1  0  0  0  0
 10 12  2  0  0  0  0
 10 14  1  0  0  0  0
 11 14  2  0  0  0  0
 11 16  1  0  0  0  0
 12 17  1  0  0  0  0
 13 19  1  0  0  0  0
 14 19  1  0  0  0  0
 15 20  1  0  0  0  0
  1 21  1  0  0  0  0
  2 22  1  0  0  0  0
  3 23  1  0  0  0  0
  4 24  1  0  0  0  0
  5 25  1  0  0  0  0
  6 26  1  0  0  0  0
 16 27  1  0  0  0  0
 16 28  1  0  0  0  0
 16 29  1  0  0  0  0
 17 30  1  0  0  0  0
 17 31  1  0  0  0  0
 17 32  1  0  0  0  0
 19 33  1  0  0  0  0
 20 34  1  0  0  0  0
M  END
> <id>
EN300-18531135

> <smiles>
CC=1C=2NC=3C=CC(O)=CC3C2C(C)=C4C=NC=CC14

> <MDLNUMBER>
MFCD00049338

> <IUPAC Name>
5,11-dimethyl-6H-pyrido[4,3-b]carbazol-9-ol

> <CAS>
51131-85-2

> <URL>
https://www.enaminestore.com/catalog/EN300-18531135

> <ROCS_ShapeQuery>
_x0404_0B

> <ROCS_TanimotoCombo>
0.400 

> <ROCS_ShapeTanimoto>
0.329 

> <ROCS_ColorTanimoto>
0.072 

> <ROCS_RefTversky>
0.294 

> <ROCS_RefColorTversky>
0.078 

> <ROCS_RefTverskyCombo>
0.371 

> <ROCS_FitTversky>
1.563 

> <ROCS_FitColorTversky>
0.491 

> <ROCS_FitTverskyCombo>
2.054 

> <ROCS_ColorScore>
-5.603

> <ROCS_Overlap>
1960.465

> <ROCS_Rank>
117                 

$$$$
untitled-dbase-36044_0
  -OEChem-08212314543D

 31 34  0     0  0  0  0  0  0999 V2000
   -8.1035    6.6257  -17.6344 C   0  0  0  0  0  0  0  0  0  0  0  0
   -8.1816    5.2722  -17.9475 C   0  0  0  0  0  0  0  0  0  0  0  0
   -8.1921    7.0413  -16.3055 C   0  0  0  0  0  0  0  0  0  0  0  0
   -8.3484    4.3293  -16.9329 C   0  0  0  0  0  0  0  0  0  0  0  0
   -8.4504    6.5096  -13.9286 C   0  0  0  0  0  0  0  0  0  0  0  0
   -8.6064    3.7915  -14.5574 C   0  0  0  0  0  0  0  0  0  0  0  0
   -9.1156    2.5399  -10.0466 C   0  0  0  0  0  0  0  0  0  0  0  0
   -9.1547    4.1472   -8.2407 C   0  0  0  0  0  0  0  0  0  0  0  0
   -8.3599    6.1062  -15.2710 C   0  0  0  0  0  0  0  0  0  0  0  0
   -8.4391    4.7294  -15.5898 C   0  0  0  0  0  0  0  0  0  0  0  0
   -8.6169    5.5590  -12.9174 C   0  0  0  0  0  0  0  0  0  0  0  0
   -8.8878    4.8950  -10.5188 C   0  0  0  0  0  0  0  0  0  0  0  0
   -8.6950    4.2043  -13.2259 C   0  0  0  0  0  0  0  0  0  0  0  0
   -8.9501    3.5763  -10.9676 C   0  0  0  0  0  0  0  0  0  0  0  0
   -9.2179    2.8262   -8.6848 C   0  0  0  0  0  0  0  0  0  0  0  0
   -8.9894    5.1868   -9.1561 C   0  0  0  0  0  0  0  0  0  0  0  0
   -8.7132    5.9695  -11.5078 C   0  0  0  0  0  0  0  0  0  0  0  0
   -8.6488    7.1498  -11.1974 O   0  0  0  0  0  0  0  0  0  0  0  0
   -8.8576    3.2136  -12.2887 O   0  0  0  0  0  0  0  0  0  0  0  0
   -9.3792    1.8146   -7.7881 O   0  0  0  0  0  0  0  0  0  0  0  0
   -8.9340    6.4583   -8.6709 O   0  0  0  0  0  0  0  0  0  0  0  0
   -7.9742    7.3591  -18.4250 H   0  0  0  0  0  0  0  0  0  0  0  0
   -8.1131    4.9490  -18.9822 H   0  0  0  0  0  0  0  0  0  0  0  0
   -8.1285    8.1047  -16.0844 H   0  0  0  0  0  0  0  0  0  0  0  0
   -8.4064    3.2763  -17.2009 H   0  0  0  0  0  0  0  0  0  0  0  0
   -8.3896    7.5676  -13.6810 H   0  0  0  0  0  0  0  0  0  0  0  0
   -8.6685    2.7297  -14.7904 H   0  0  0  0  0  0  0  0  0  0  0  0
   -9.1657    1.5090  -10.3885 H   0  0  0  0  0  0  0  0  0  0  0  0
   -9.2348    4.3651   -7.1783 H   0  0  0  0  0  0  0  0  0  0  0  0
   -9.4339    2.1700   -6.8868 H   0  0  0  0  0  0  0  0  0  0  0  0
   -8.8179    7.0899   -9.3981 H   0  0  0  0  0  0  0  0  0  0  0  0
  1  2  2  0  0  0  0
  1  3  1  0  0  0  0
  2  4  1  0  0  0  0
  3  9  2  0  0  0  0
  4 10  2  0  0  0  0
  5  9  1  0  0  0  0
  5 11  2  0  0  0  0
  6 10  1  0  0  0  0
  6 13  2  0  0  0  0
  7 14  2  0  0  0  0
  7 15  1  0  0  0  0
  8 15  2  0  0  0  0
  8 16  1  0  0  0  0
  9 10  1  0  0  0  0
 11 13  1  0  0  0  0
 11 17  1  0  0  0  0
 12 14  1  0  0  0  0
 12 16  2  0  0  0  0
 12 17  1  0  0  0  0
 13 19  1  0  0  0  0
 14 19  1  0  0  0  0
 15 20  1  0  0  0  0
 16 21  1  0  0  0  0
 17 18  2  0  0  0  0
  1 22  1  0  0  0  0
  2 23  1  0  0  0  0
  3 24  1  0  0  0  0
  4 25  1  0  0  0  0
  5 26  1  0  0  0  0
  6 27  1  0  0  0  0
  7 28  1  0  0  0  0
  8 29  1  0  0  0  0
 20 30  1  0  0  0  0
 21 31  1  0  0  0  0
M  END
> <id>
EN300-303193

> <smiles>
OC=1C=C(O)C=2C(=O)C=3C=C4C=CC=CC4=CC3OC2C1

> <MDLNUMBER>
MFCD13969025

> <IUPAC Name>
1,3-dihydroxy-12H-5-oxatetracen-12-one

> <CAS>
22315-94-2

> <URL>
https://www.enaminestore.com/catalog/EN300-303193

> <ROCS_ShapeQuery>
_x0404_0B

> <ROCS_TanimotoCombo>
0.400 

> <ROCS_ShapeTanimoto>
0.338 

> <ROCS_ColorTanimoto>
0.063 

> <ROCS_RefTversky>
0.302 

> <ROCS_RefColorTversky>
0.070 

> <ROCS_RefTverskyCombo>
0.371 

> <ROCS_FitTversky>
1.546 

> <ROCS_FitColorTversky>
0.379 

> <ROCS_FitTverskyCombo>
1.925 

> <ROCS_ColorScore>
-5.044

> <ROCS_Overlap>
2014.226

> <ROCS_Rank>
118                 

$$$$
untitled-dbase-36991_22
  -OEChem-08212314543D

 46 48  0     1  0  0  0  0  0999 V2000
   -9.3087    4.0403   -6.9640 C   0  0  0  0  0  0  0  0  0  0  0  0
   -9.3152    2.6482   -6.8725 C   0  0  0  0  0  0  0  0  0  0  0  0
   -8.6697    2.4846   -9.1963 C   0  0  0  0  0  0  0  0  0  0  0  0
   -8.9826    4.6508   -8.1781 C   0  0  0  0  0  0  0  0  0  0  0  0
   -8.9918    1.8717   -7.9851 C   0  0  0  0  0  0  0  0  0  0  0  0
   -8.6778    3.8768   -9.2990 C   0  0  0  0  0  0  0  0  0  0  0  0
   -8.9172    6.1200   -8.2818 C   0  0  0  0  0  0  0  0  0  0  0  0
   -8.7436    5.7256  -14.4393 C   0  0  0  0  0  0  0  0  0  0  0  0
   -8.4060    6.6649   -9.5883 C   0  0  0  0  0  0  0  0  0  0  0  0
  -10.3112    5.7842  -11.0879 C   0  0  0  0  0  0  0  0  0  0  0  0
  -10.3534    5.3179  -12.5379 C   0  0  0  0  0  0  0  0  0  0  0  0
   -8.1698    6.2158  -12.0597 C   0  0  0  0  0  0  0  0  0  0  0  0
   -8.8079    5.7509  -10.7414 C   0  0  1  0  0  0  0  0  0  0  0  0
   -8.9881    0.3839   -7.8789 C   0  0  0  0  0  0  0  0  0  0  0  0
   -7.5887    4.3751  -16.6777 C   0  0  0  0  0  0  0  0  0  0  0  0
   -9.8847    3.4302  -17.0579 C   0  0  0  0  0  0  0  0  0  0  0  0
   -9.5155    5.9109  -17.1912 C   0  0  0  0  0  0  0  0  0  0  0  0
   -9.0887    4.6121  -16.5087 C   0  0  0  0  0  0  0  0  0  0  0  0
   -9.0803    5.7480  -13.0965 N   0  0  0  0  0  0  0  0  0  0  0  0
   -9.2036    6.8418   -7.3341 O   0  0  0  0  0  0  0  0  0  0  0  0
   -7.9653    6.5154  -14.9691 O   0  0  0  0  0  0  0  0  0  0  0  0
   -8.3655    4.3997  -10.5248 O   0  0  0  0  0  0  0  0  0  0  0  0
   -9.3790    4.7152  -15.1103 O   0  0  0  0  0  0  0  0  0  0  0  0
   -9.5688    4.6274   -6.0878 H   0  0  0  0  0  0  0  0  0  0  0  0
   -9.5818    2.1764   -5.9303 H   0  0  0  0  0  0  0  0  0  0  0  0
   -8.4005    1.8782  -10.0581 H   0  0  0  0  0  0  0  0  0  0  0  0
   -8.8384    7.6655   -9.7112 H   0  0  0  0  0  0  0  0  0  0  0  0
   -7.3158    6.7612   -9.5296 H   0  0  0  0  0  0  0  0  0  0  0  0
  -10.7060    6.8045  -11.0202 H   0  0  0  0  0  0  0  0  0  0  0  0
  -10.9070    5.1277  -10.4468 H   0  0  0  0  0  0  0  0  0  0  0  0
  -10.3972    4.2260  -12.6110 H   0  0  0  0  0  0  0  0  0  0  0  0
  -11.1885    5.7421  -13.1023 H   0  0  0  0  0  0  0  0  0  0  0  0
   -8.1289    7.3088  -12.1389 H   0  0  0  0  0  0  0  0  0  0  0  0
   -7.1709    5.8069  -12.2441 H   0  0  0  0  0  0  0  0  0  0  0  0
   -9.9783   -0.0188   -8.1245 H   0  0  0  0  0  0  0  0  0  0  0  0
   -8.2521   -0.0622   -8.5602 H   0  0  0  0  0  0  0  0  0  0  0  0
   -8.7213    0.0577   -6.8652 H   0  0  0  0  0  0  0  0  0  0  0  0
   -7.0138    5.2213  -16.2847 H   0  0  0  0  0  0  0  0  0  0  0  0
   -7.2636    3.4650  -16.1632 H   0  0  0  0  0  0  0  0  0  0  0  0
   -7.3237    4.2870  -17.7376 H   0  0  0  0  0  0  0  0  0  0  0  0
  -10.9616    3.5959  -16.9387 H   0  0  0  0  0  0  0  0  0  0  0  0
   -9.6509    2.5122  -16.5066 H   0  0  0  0  0  0  0  0  0  0  0  0
   -9.6755    3.2602  -18.1189 H   0  0  0  0  0  0  0  0  0  0  0  0
  -10.5914    6.0811  -17.0701 H   0  0  0  0  0  0  0  0  0  0  0  0
   -8.9809    6.7751  -16.7838 H   0  0  0  0  0  0  0  0  0  0  0  0
   -9.3295    5.8634  -18.2703 H   0  0  0  0  0  0  0  0  0  0  0  0
  1  2  1  0  0  0  0
  1  4  2  0  0  0  0
  2  5  2  0  0  0  0
  3  5  1  0  0  0  0
  3  6  2  0  0  0  0
  4  6  1  0  0  0  0
  4  7  1  0  0  0  0
  5 14  1  0  0  0  0
  6 22  1  0  0  0  0
  7  9  1  0  0  0  0
  7 20  2  0  0  0  0
  8 19  1  0  0  0  0
  8 21  2  0  0  0  0
  8 23  1  0  0  0  0
  9 13  1  0  0  0  0
 10 11  1  0  0  0  0
 10 13  1  0  0  0  0
 11 19  1  0  0  0  0
 12 13  1  0  0  0  0
 12 19  1  0  0  0  0
 13 22  1  0  0  0  0
 15 18  1  0  0  0  0
 16 18  1  0  0  0  0
 17 18  1  0  0  0  0
 18 23  1  0  0  0  0
  1 24  1  0  0  0  0
  2 25  1  0  0  0  0
  3 26  1  0  0  0  0
  9 27  1  0  0  0  0
  9 28  1  0  0  0  0
 10 29  1  0  0  0  0
 10 30  1  0  0  0  0
 11 31  1  0  0  0  0
 11 32  1  0  0  0  0
 12 33  1  0  0  0  0
 12 34  1  0  0  0  0
 14 35  1  0  0  0  0
 14 36  1  0  0  0  0
 14 37  1  0  0  0  0
 15 38  1  0  0  0  0
 15 39  1  0  0  0  0
 15 40  1  0  0  0  0
 16 41  1  0  0  0  0
 16 42  1  0  0  0  0
 16 43  1  0  0  0  0
 17 44  1  0  0  0  0
 17 45  1  0  0  0  0
 17 46  1  0  0  0  0
M  END
> <id>
EN300-338205

> <smiles>
CC=1C=CC=2C(=O)CC3(CCN(C3)C(=O)OC(C)(C)C)OC2C1

> <MDLNUMBER>
MFCD30499674

> <IUPAC Name>
tert-butyl 7-methyl-4-oxo-3,4-dihydrospiro[1-benzopyran-2,3'-pyrrolidine]-1'-carboxylate

> <CAS>
2060039-81-6

> <URL>
https://www.enaminestore.com/catalog/EN300-338205

> <ROCS_ShapeQuery>
_x0404_0B

> <ROCS_TanimotoCombo>
0.400 

> <ROCS_ShapeTanimoto>
0.329 

> <ROCS_ColorTanimoto>
0.071 

> <ROCS_RefTversky>
0.297 

> <ROCS_RefColorTversky>
0.076 

> <ROCS_RefTverskyCombo>
0.374 

> <ROCS_FitTversky>
1.476 

> <ROCS_FitColorTversky>
0.527 

> <ROCS_FitTverskyCombo>
2.002 

> <ROCS_ColorScore>
-5.498

> <ROCS_Overlap>
1985.773

> <ROCS_Rank>
119                 

$$$$
untitled-dbase-32124_59
  -OEChem-08212314543D

 39 41  0     0  0  0  0  0  0999 V2000
   -9.1272    2.3256   -8.1227 C   0  0  0  0  0  0  0  0  0  0  0  0
   -9.4898    2.9972   -6.9573 C   0  0  0  0  0  0  0  0  0  0  0  0
   -8.4212    2.8154  -10.5934 C   0  0  0  0  0  0  0  0  0  0  0  0
   -8.8211    3.0950   -9.2572 C   0  0  0  0  0  0  0  0  0  0  0  0
   -8.2714    4.0222  -11.2455 C   0  0  0  0  0  0  0  0  0  0  0  0
   -8.9023    4.4817   -9.1346 C   0  0  0  0  0  0  0  0  0  0  0  0
   -9.5306    4.3843   -6.9724 C   0  0  0  0  0  0  0  0  0  0  0  0
   -8.6037    5.7930  -14.5040 C   0  0  0  0  0  0  0  0  0  0  0  0
   -7.8610    4.3634  -12.6306 C   0  0  0  0  0  0  0  0  0  0  0  0
   -8.5336    6.4074  -10.7370 C   0  0  0  0  0  0  0  0  0  0  0  0
   -9.0610    6.5664  -12.1587 C   0  0  0  0  0  0  0  0  0  0  0  0
   -7.5196    5.4717  -17.1318 C   0  0  0  0  0  0  0  0  0  0  0  0
   -8.8197    3.3239  -17.2059 C   0  0  0  0  0  0  0  0  0  0  0  0
  -10.0312    5.5118  -16.9744 C   0  0  0  0  0  0  0  0  0  0  0  0
   -8.7608    4.7364  -16.6284 C   0  0  0  0  0  0  0  0  0  0  0  0
   -9.2468    5.1760   -8.0319 N   0  0  0  0  0  0  0  0  0  0  0  0
   -8.5666    5.0142  -10.3463 N   0  0  0  0  0  0  0  0  0  0  0  0
   -8.5134    5.5889  -13.1193 N   0  0  0  0  0  0  0  0  0  0  0  0
   -8.6139    6.8994  -15.0406 O   0  0  0  0  0  0  0  0  0  0  0  0
   -8.6732    4.6168  -15.2039 O   0  0  0  0  0  0  0  0  0  0  0  0
   -9.9731    5.2512   -5.5532 Cl  0  0  0  0  0  0  0  0  0  0  0  0
   -9.0861    1.2414   -8.1465 H   0  0  0  0  0  0  0  0  0  0  0  0
   -9.7338    2.4322   -6.0629 H   0  0  0  0  0  0  0  0  0  0  0  0
   -8.2607    1.8412  -11.0301 H   0  0  0  0  0  0  0  0  0  0  0  0
   -6.7767    4.5438  -12.6684 H   0  0  0  0  0  0  0  0  0  0  0  0
   -8.0785    3.5228  -13.3033 H   0  0  0  0  0  0  0  0  0  0  0  0
   -7.5052    6.7603  -10.6732 H   0  0  0  0  0  0  0  0  0  0  0  0
   -9.1573    6.9510  -10.0271 H   0  0  0  0  0  0  0  0  0  0  0  0
  -10.1692    6.5272  -12.1549 H   0  0  0  0  0  0  0  0  0  0  0  0
   -8.8012    7.5699  -12.5568 H   0  0  0  0  0  0  0  0  0  0  0  0
   -7.4736    6.4861  -16.7196 H   0  0  0  0  0  0  0  0  0  0  0  0
   -6.5998    4.9437  -16.8597 H   0  0  0  0  0  0  0  0  0  0  0  0
   -7.5457    5.5820  -18.2220 H   0  0  0  0  0  0  0  0  0  0  0  0
   -9.7088    2.7926  -16.8473 H   0  0  0  0  0  0  0  0  0  0  0  0
   -7.9554    2.7332  -16.8815 H   0  0  0  0  0  0  0  0  0  0  0  0
   -8.8407    3.3354  -18.3004 H   0  0  0  0  0  0  0  0  0  0  0  0
  -10.9216    4.9845  -16.6134 H   0  0  0  0  0  0  0  0  0  0  0  0
  -10.0228    6.5154  -16.5370 H   0  0  0  0  0  0  0  0  0  0  0  0
  -10.1466    5.6061  -18.0602 H   0  0  0  0  0  0  0  0  0  0  0  0
  1  2  1  0  0  0  0
  1  4  2  0  0  0  0
  2  7  2  0  0  0  0
  3  4  1  0  0  0  0
  3  5  2  0  0  0  0
  4  6  1  0  0  0  0
  5  9  1  0  0  0  0
  5 17  1  0  0  0  0
  6 16  2  0  0  0  0
  6 17  1  0  0  0  0
  7 16  1  0  0  0  0
  7 21  1  0  0  0  0
  8 18  1  0  0  0  0
  8 19  2  0  0  0  0
  8 20  1  0  0  0  0
  9 18  1  0  0  0  0
 10 11  1  0  0  0  0
 10 17  1  0  0  0  0
 11 18  1  0  0  0  0
 12 15  1  0  0  0  0
 13 15  1  0  0  0  0
 14 15  1  0  0  0  0
 15 20  1  0  0  0  0
  1 22  1  0  0  0  0
  2 23  1  0  0  0  0
  3 24  1  0  0  0  0
  9 25  1  0  0  0  0
  9 26  1  0  0  0  0
 10 27  1  0  0  0  0
 10 28  1  0  0  0  0
 11 29  1  0  0  0  0
 11 30  1  0  0  0  0
 12 31  1  0  0  0  0
 12 32  1  0  0  0  0
 12 33  1  0  0  0  0
 13 34  1  0  0  0  0
 13 35  1  0  0  0  0
 13 36  1  0  0  0  0
 14 37  1  0  0  0  0
 14 38  1  0  0  0  0
 14 39  1  0  0  0  0
M  END
> <id>
EN300-26571302

> <smiles>
CC(C)(C)OC(=O)N1CCN2C(C1)=CC=3C=CC(Cl)=NC23

> <MDLNUMBER>
MFCD32692332

> <IUPAC Name>
tert-butyl 4-chloro-1,3,11-triazatricyclo[7.4.0.0,2,7]trideca-2,4,6,8-tetraene-11-carboxylate

> <CAS>
2445784-26-7

> <URL>
https://www.enaminestore.com/catalog/EN300-26571302

> <ROCS_ShapeQuery>
_x0404_0B

> <ROCS_TanimotoCombo>
0.400 

> <ROCS_ShapeTanimoto>
0.334 

> <ROCS_ColorTanimoto>
0.066 

> <ROCS_RefTversky>
0.298 

> <ROCS_RefColorTversky>
0.070 

> <ROCS_RefTverskyCombo>
0.368 

> <ROCS_FitTversky>
1.574 

> <ROCS_FitColorTversky>
0.529 

> <ROCS_FitTverskyCombo>
2.103 

> <ROCS_ColorScore>
-5.032

> <ROCS_Overlap>
1987.782

> <ROCS_Rank>
120                 

$$$$
untitled-dbase-14558_519
  -OEChem-08212314543D

 48 50  0     1  0  0  0  0  0999 V2000
   -8.9777    2.5905   -9.2140 C   0  0  0  0  0  0  0  0  0  0  0  0
   -9.1491    2.4655   -7.8508 C   0  0  0  0  0  0  0  0  0  0  0  0
   -8.9092    3.9816   -9.4829 C   0  0  0  0  0  0  0  0  0  0  0  0
   -9.0660    4.5851   -8.2550 C   0  0  0  0  0  0  0  0  0  0  0  0
   -8.4058    5.4220  -14.9005 C   0  0  0  0  0  0  0  0  0  0  0  0
   -9.0835    6.0310   -7.9773 C   0  0  0  0  0  0  0  0  0  0  0  0
   -7.6029    3.1129  -12.4728 C   0  0  0  0  0  0  0  0  0  0  0  0
   -7.4779    4.3255  -11.5386 C   0  0  0  0  0  0  0  0  0  0  0  0
  -10.0609    4.6711  -11.5999 C   0  0  0  0  0  0  0  0  0  0  0  0
   -9.2954    6.7647   -9.3136 C   0  0  0  0  0  0  0  0  0  0  0  0
   -8.5996    3.2582  -13.6269 C   0  0  0  0  0  0  0  0  0  0  0  0
  -10.0047    5.2409  -13.0215 C   0  0  0  0  0  0  0  0  0  0  0  0
   -8.7547    4.7724  -10.7664 C   0  0  1  0  0  0  0  0  0  0  0  0
   -7.1025    6.5287  -17.1947 C   0  0  0  0  0  0  0  0  0  0  0  0
   -7.5435    4.3098  -18.2860 C   0  0  0  0  0  0  0  0  0  0  0  0
   -9.4679    5.7433  -17.5445 C   0  0  0  0  0  0  0  0  0  0  0  0
   -8.0313    5.3166  -17.2465 C   0  0  0  0  0  0  0  0  0  0  0  0
   -8.4713    6.1991  -10.3960 N   0  0  0  0  0  0  0  0  0  0  0  0
   -8.9764    4.6505  -13.8803 N   0  0  0  0  0  0  0  0  0  0  0  0
   -8.2653    6.6427  -14.8481 O   0  0  0  0  0  0  0  0  0  0  0  0
   -9.2035    3.6881   -7.2546 O   0  0  0  0  0  0  0  0  0  0  0  0
   -8.0041    4.6668  -15.9705 O   0  0  0  0  0  0  0  0  0  0  0  0
   -8.9140    1.7758   -9.9225 H   0  0  0  0  0  0  0  0  0  0  0  0
   -9.2485    1.6192   -7.1871 H   0  0  0  0  0  0  0  0  0  0  0  0
   -9.8794    6.2907   -7.2720 H   0  0  0  0  0  0  0  0  0  0  0  0
   -8.1250    6.3267   -7.5354 H   0  0  0  0  0  0  0  0  0  0  0  0
   -6.6107    2.8312  -12.8625 H   0  0  0  0  0  0  0  0  0  0  0  0
   -7.9207    2.2536  -11.8588 H   0  0  0  0  0  0  0  0  0  0  0  0
   -6.6799    4.1066  -10.8193 H   0  0  0  0  0  0  0  0  0  0  0  0
   -7.1067    5.1633  -12.1420 H   0  0  0  0  0  0  0  0  0  0  0  0
  -10.8728    5.1918  -11.0872 H   0  0  0  0  0  0  0  0  0  0  0  0
  -10.3703    3.6256  -11.6536 H   0  0  0  0  0  0  0  0  0  0  0  0
  -10.3555    6.7415   -9.5970 H   0  0  0  0  0  0  0  0  0  0  0  0
   -9.0332    7.8212   -9.1804 H   0  0  0  0  0  0  0  0  0  0  0  0
   -8.1428    2.8406  -14.5381 H   0  0  0  0  0  0  0  0  0  0  0  0
   -9.5100    2.6618  -13.4526 H   0  0  0  0  0  0  0  0  0  0  0  0
  -10.9624    5.0755  -13.5156 H   0  0  0  0  0  0  0  0  0  0  0  0
   -9.8546    6.3184  -12.9704 H   0  0  0  0  0  0  0  0  0  0  0  0
   -7.4492    7.2538  -16.4497 H   0  0  0  0  0  0  0  0  0  0  0  0
   -6.0758    6.2399  -16.9473 H   0  0  0  0  0  0  0  0  0  0  0  0
   -7.0920    7.0546  -18.1563 H   0  0  0  0  0  0  0  0  0  0  0  0
   -8.2070    3.4384  -18.3265 H   0  0  0  0  0  0  0  0  0  0  0  0
   -6.5496    3.9291  -18.0243 H   0  0  0  0  0  0  0  0  0  0  0  0
   -7.4927    4.7536  -19.2855 H   0  0  0  0  0  0  0  0  0  0  0  0
  -10.1344    4.8740  -17.5817 H   0  0  0  0  0  0  0  0  0  0  0  0
   -9.8476    6.4377  -16.7879 H   0  0  0  0  0  0  0  0  0  0  0  0
   -9.5352    6.2267  -18.5258 H   0  0  0  0  0  0  0  0  0  0  0  0
   -8.5594    6.7870  -11.2282 H   0  0  0  0  0  0  0  0  0  0  0  0
  1  2  2  0  0  0  0
  1  3  1  0  0  0  0
  2 21  1  0  0  0  0
  3  4  2  0  0  0  0
  3 13  1  0  0  0  0
  4  6  1  0  0  0  0
  4 21  1  0  0  0  0
  5 19  1  0  0  0  0
  5 20  2  0  0  0  0
  5 22  1  0  0  0  0
  6 10  1  0  0  0  0
  7  8  1  0  0  0  0
  7 11  1  0  0  0  0
  8 13  1  0  0  0  0
  9 12  1  0  0  0  0
  9 13  1  0  0  0  0
 10 18  1  0  0  0  0
 11 19  1  0  0  0  0
 12 19  1  0  0  0  0
 13 18  1  0  0  0  0
 14 17  1  0  0  0  0
 15 17  1  0  0  0  0
 16 17  1  0  0  0  0
 17 22  1  0  0  0  0
  1 23  1  0  0  0  0
  2 24  1  0  0  0  0
  6 25  1  0  0  0  0
  6 26  1  0  0  0  0
  7 27  1  0  0  0  0
  7 28  1  0  0  0  0
  8 29  1  0  0  0  0
  8 30  1  0  0  0  0
  9 31  1  0  0  0  0
  9 32  1  0  0  0  0
 10 33  1  0  0  0  0
 10 34  1  0  0  0  0
 11 35  1  0  0  0  0
 11 36  1  0  0  0  0
 12 37  1  0  0  0  0
 12 38  1  0  0  0  0
 14 39  1  0  0  0  0
 14 40  1  0  0  0  0
 14 41  1  0  0  0  0
 15 42  1  0  0  0  0
 15 43  1  0  0  0  0
 15 44  1  0  0  0  0
 16 45  1  0  0  0  0
 16 46  1  0  0  0  0
 16 47  1  0  0  0  0
 18 48  1  0  0  0  0
M  END
> <id>
EN300-1076906

> <smiles>
CC(C)(C)OC(=O)N1CCCC2(CC1)NCCC=3OC=CC32

> <IUPAC Name>
tert-butyl 6',7'-dihydro-5'H-spiro[azepane-4,4'-furo[3,2-c]pyridine]-1-carboxylate

> <CAS>
2138140-81-3

> <URL>
https://www.enaminestore.com/catalog/EN300-1076906

> <ROCS_ShapeQuery>
_x0404_0B

> <ROCS_TanimotoCombo>
0.400 

> <ROCS_ShapeTanimoto>
0.342 

> <ROCS_ColorTanimoto>
0.058 

> <ROCS_RefTversky>
0.304 

> <ROCS_RefColorTversky>
0.064 

> <ROCS_RefTverskyCombo>
0.367 

> <ROCS_FitTversky>
1.575 

> <ROCS_FitColorTversky>
0.403 

> <ROCS_FitTverskyCombo>
1.978 

> <ROCS_ColorScore>
-4.592

> <ROCS_Overlap>
2026.651

> <ROCS_Rank>
121                 

$$$$
untitled-dbase-42508_1
  -OEChem-08212314543D

 37 38  0     0  0  0  0  0  0999 V2000
   -9.3007    3.1930  -10.1905 C   0  0  0  0  0  0  0  0  0  0  0  0
   -8.3219    5.4308   -8.8475 C   0  0  0  0  0  0  0  0  0  0  0  0
   -9.0337    4.3667  -10.9102 C   0  0  0  0  0  0  0  0  0  0  0  0
   -8.5547    5.4994  -10.2278 C   0  0  0  0  0  0  0  0  0  0  0  0
   -9.0791    3.1393   -8.8145 C   0  0  0  0  0  0  0  0  0  0  0  0
   -8.5875    4.2564   -8.1442 C   0  0  0  0  0  0  0  0  0  0  0  0
   -8.5683    5.7193  -14.4137 C   0  0  0  0  0  0  0  0  0  0  0  0
   -8.2379    6.7647  -10.9809 C   0  0  0  0  0  0  0  0  0  0  0  0
   -9.2815    4.3873  -12.3986 C   0  0  0  0  0  0  0  0  0  0  0  0
   -9.0499    6.8629  -12.2664 C   0  0  0  0  0  0  0  0  0  0  0  0
   -6.8852    4.9846  -16.6083 C   0  0  0  0  0  0  0  0  0  0  0  0
   -8.4580    3.0523  -16.9278 C   0  0  0  0  0  0  0  0  0  0  0  0
   -9.3028    5.4053  -17.1680 C   0  0  0  0  0  0  0  0  0  0  0  0
   -8.3212    4.4915  -16.4357 C   0  0  0  0  0  0  0  0  0  0  0  0
   -8.9033    5.6438  -13.0574 N   0  0  0  0  0  0  0  0  0  0  0  0
   -8.2478    6.7551  -14.9935 O   0  0  0  0  0  0  0  0  0  0  0  0
   -9.3565    1.9811   -8.1511 O   0  0  0  0  0  0  0  0  0  0  0  0
   -8.6422    4.5027  -15.0400 O   0  0  0  0  0  0  0  0  0  0  0  0
   -8.2983    4.2160   -6.4439 Cl  0  0  0  0  0  0  0  0  0  0  0  0
   -9.6873    2.3176  -10.7076 H   0  0  0  0  0  0  0  0  0  0  0  0
   -7.9305    6.3027   -8.3272 H   0  0  0  0  0  0  0  0  0  0  0  0
   -8.4506    7.6235  -10.3331 H   0  0  0  0  0  0  0  0  0  0  0  0
   -7.1719    6.7921  -11.2354 H   0  0  0  0  0  0  0  0  0  0  0  0
   -8.6894    3.5961  -12.8738 H   0  0  0  0  0  0  0  0  0  0  0  0
  -10.3409    4.1842  -12.5882 H   0  0  0  0  0  0  0  0  0  0  0  0
  -10.1020    7.0505  -12.0294 H   0  0  0  0  0  0  0  0  0  0  0  0
   -8.7003    7.6959  -12.8886 H   0  0  0  0  0  0  0  0  0  0  0  0
   -6.7829    6.0173  -16.2563 H   0  0  0  0  0  0  0  0  0  0  0  0
   -6.1748    4.3580  -16.0593 H   0  0  0  0  0  0  0  0  0  0  0  0
   -6.5977    4.9886  -17.6659 H   0  0  0  0  0  0  0  0  0  0  0  0
   -9.4867    2.6944  -16.8058 H   0  0  0  0  0  0  0  0  0  0  0  0
   -7.8247    2.3773  -16.3408 H   0  0  0  0  0  0  0  0  0  0  0  0
   -8.1808    2.9579  -17.9827 H   0  0  0  0  0  0  0  0  0  0  0  0
  -10.3328    5.0519  -17.0443 H   0  0  0  0  0  0  0  0  0  0  0  0
   -9.2446    6.4355  -16.8019 H   0  0  0  0  0  0  0  0  0  0  0  0
   -9.1037    5.4070  -18.2458 H   0  0  0  0  0  0  0  0  0  0  0  0
   -9.1581    2.0810   -7.2071 H   0  0  0  0  0  0  0  0  0  0  0  0
  1  3  2  0  0  0  0
  1  5  1  0  0  0  0
  2  4  2  0  0  0  0
  2  6  1  0  0  0  0
  3  4  1  0  0  0  0
  3  9  1  0  0  0  0
  4  8  1  0  0  0  0
  5  6  2  0  0  0  0
  5 17  1  0  0  0  0
  6 19  1  0  0  0  0
  7 15  1  0  0  0  0
  7 16  2  0  0  0  0
  7 18  1  0  0  0  0
  8 10  1  0  0  0  0
  9 15  1  0  0  0  0
 10 15  1  0  0  0  0
 11 14  1  0  0  0  0
 12 14  1  0  0  0  0
 13 14  1  0  0  0  0
 14 18  1  0  0  0  0
  1 20  1  0  0  0  0
  2 21  1  0  0  0  0
  8 22  1  0  0  0  0
  8 23  1  0  0  0  0
  9 24  1  0  0  0  0
  9 25  1  0  0  0  0
 10 26  1  0  0  0  0
 10 27  1  0  0  0  0
 11 28  1  0  0  0  0
 11 29  1  0  0  0  0
 11 30  1  0  0  0  0
 12 31  1  0  0  0  0
 12 32  1  0  0  0  0
 12 33  1  0  0  0  0
 13 34  1  0  0  0  0
 13 35  1  0  0  0  0
 13 36  1  0  0  0  0
 17 37  1  0  0  0  0
M  END
> <id>
EN300-27718606

> <smiles>
CC(C)(C)OC(=O)N1CCC=2C=C(Cl)C(O)=CC2C1

> <IUPAC Name>
tert-butyl 6-chloro-7-hydroxy-1,2,3,4-tetrahydroisoquinoline-2-carboxylate

> <CAS>
2580222-54-2

> <URL>
https://www.enaminestore.com/catalog/EN300-27718606

> <ROCS_ShapeQuery>
_x0404_0B

> <ROCS_TanimotoCombo>
0.399 

> <ROCS_ShapeTanimoto>
0.314 

> <ROCS_ColorTanimoto>
0.085 

> <ROCS_RefTversky>
0.280 

> <ROCS_RefColorTversky>
0.089 

> <ROCS_RefTverskyCombo>
0.369 

> <ROCS_FitTversky>
1.633 

> <ROCS_FitColorTversky>
0.675 

> <ROCS_FitTverskyCombo>
2.308 

> <ROCS_ColorScore>
-6.403

> <ROCS_Overlap>
1867.819

> <ROCS_Rank>
122                 

$$$$
untitled-dbase-48261_42
  -OEChem-08212314543D

 41 43  0     0  0  0  0  0  0999 V2000
   -8.8323    5.6777   -8.8386 C   0  0  0  0  0  0  0  0  0  0  0  0
   -9.0033    4.4393   -8.2210 C   0  0  0  0  0  0  0  0  0  0  0  0
   -9.0808    3.3375  -10.3842 C   0  0  0  0  0  0  0  0  0  0  0  0
   -8.9116    4.5687  -11.0116 C   0  0  0  0  0  0  0  0  0  0  0  0
   -8.8079    5.7272  -10.2237 C   0  0  0  0  0  0  0  0  0  0  0  0
   -9.1300    3.2755   -8.9892 C   0  0  0  0  0  0  0  0  0  0  0  0
   -8.6037    4.1168  -15.7960 C   0  0  0  0  0  0  0  0  0  0  0  0
   -8.7522    6.5108  -12.4237 C   0  0  0  0  0  0  0  0  0  0  0  0
   -7.6690    4.3166  -13.3683 C   0  0  0  0  0  0  0  0  0  0  0  0
   -9.7972    4.3849  -13.5486 C   0  0  0  0  0  0  0  0  0  0  0  0
   -8.7967    4.9530  -12.5168 C   0  0  0  0  0  0  0  0  0  0  0  0
   -7.2941    6.6522  -16.4676 C   0  0  0  0  0  0  0  0  0  0  0  0
   -5.6558    5.2253  -17.7284 C   0  0  0  0  0  0  0  0  0  0  0  0
   -8.0648    5.2863  -18.4362 C   0  0  0  0  0  0  0  0  0  0  0  0
   -7.1011    5.3554  -17.2525 C   0  0  0  0  0  0  0  0  0  0  0  0
   -8.5993    6.8628  -11.0090 N   0  0  0  0  0  0  0  0  0  0  0  0
   -8.6540    4.1864  -14.4249 N   0  0  0  0  0  0  0  0  0  0  0  0
   -9.3169    2.0310   -8.3493 N   0  0  0  0  0  0  0  0  0  0  0  0
   -9.6083    4.0041  -16.4979 O   0  0  0  0  0  0  0  0  0  0  0  0
   -7.3703    4.2474  -16.3780 O   0  0  0  0  0  0  0  0  0  0  0  0
   -8.7184    6.5769   -8.2418 H   0  0  0  0  0  0  0  0  0  0  0  0
   -9.0418    4.3879   -7.1355 H   0  0  0  0  0  0  0  0  0  0  0  0
   -9.1795    2.4358  -10.9824 H   0  0  0  0  0  0  0  0  0  0  0  0
   -7.8911    6.9073  -12.9742 H   0  0  0  0  0  0  0  0  0  0  0  0
   -9.6579    6.9747  -12.8276 H   0  0  0  0  0  0  0  0  0  0  0  0
   -6.8292    4.9663  -13.6260 H   0  0  0  0  0  0  0  0  0  0  0  0
   -7.2975    3.3461  -13.0271 H   0  0  0  0  0  0  0  0  0  0  0  0
  -10.2806    3.4387  -13.2837 H   0  0  0  0  0  0  0  0  0  0  0  0
  -10.5418    5.0821  -13.9432 H   0  0  0  0  0  0  0  0  0  0  0  0
   -8.3302    6.7493  -16.1243 H   0  0  0  0  0  0  0  0  0  0  0  0
   -6.6331    6.6983  -15.5960 H   0  0  0  0  0  0  0  0  0  0  0  0
   -7.0948    7.5251  -17.0997 H   0  0  0  0  0  0  0  0  0  0  0  0
   -5.5128    4.2963  -18.2920 H   0  0  0  0  0  0  0  0  0  0  0  0
   -4.9672    5.1790  -16.8770 H   0  0  0  0  0  0  0  0  0  0  0  0
   -5.3631    6.0660  -18.3657 H   0  0  0  0  0  0  0  0  0  0  0  0
   -7.9266    4.3563  -18.9993 H   0  0  0  0  0  0  0  0  0  0  0  0
   -9.1086    5.3410  -18.1101 H   0  0  0  0  0  0  0  0  0  0  0  0
   -7.8766    6.1049  -19.1402 H   0  0  0  0  0  0  0  0  0  0  0  0
   -8.7224    7.8002  -10.6531 H   0  0  0  0  0  0  0  0  0  0  0  0
   -9.3092    1.9914   -7.3508 H   0  0  0  0  0  0  0  0  0  0  0  0
   -9.3590    1.2006   -8.9037 H   0  0  0  0  0  0  0  0  0  0  0  0
  1  2  1  0  0  0  0
  1  5  2  0  0  0  0
  2  6  2  0  0  0  0
  3  4  2  0  0  0  0
  3  6  1  0  0  0  0
  4  5  1  0  0  0  0
  4 11  1  0  0  0  0
  5 16  1  0  0  0  0
  6 18  1  0  0  0  0
  7 17  1  0  0  0  0
  7 19  2  0  0  0  0
  7 20  1  0  0  0  0
  8 11  1  0  0  0  0
  8 16  1  0  0  0  0
  9 11  1  0  0  0  0
  9 17  1  0  0  0  0
 10 11  1  0  0  0  0
 10 17  1  0  0  0  0
 12 15  1  0  0  0  0
 13 15  1  0  0  0  0
 14 15  1  0  0  0  0
 15 20  1  0  0  0  0
  1 21  1  0  0  0  0
  2 22  1  0  0  0  0
  3 23  1  0  0  0  0
  8 24  1  0  0  0  0
  8 25  1  0  0  0  0
  9 26  1  0  0  0  0
  9 27  1  0  0  0  0
 10 28  1  0  0  0  0
 10 29  1  0  0  0  0
 12 30  1  0  0  0  0
 12 31  1  0  0  0  0
 12 32  1  0  0  0  0
 13 33  1  0  0  0  0
 13 34  1  0  0  0  0
 13 35  1  0  0  0  0
 14 36  1  0  0  0  0
 14 37  1  0  0  0  0
 14 38  1  0  0  0  0
 16 39  1  0  0  0  0
 18 40  1  0  0  0  0
 18 41  1  0  0  0  0
M  END
> <id>
EN300-338932

> <smiles>
CC(C)(C)OC(=O)N1CC2(C1)CNC=3C=CC(N)=CC32

> <MDLNUMBER>
MFCD30499973

> <IUPAC Name>
tert-butyl 5'-amino-1',2'-dihydrospiro[azetidine-3,3'-indole]-1-carboxylate

> <CAS>
2059994-61-3

> <URL>
https://www.enaminestore.com/catalog/EN300-338932

> <ROCS_ShapeQuery>
_x0404_0B

> <ROCS_TanimotoCombo>
0.399 

> <ROCS_ShapeTanimoto>
0.335 

> <ROCS_ColorTanimoto>
0.063 

> <ROCS_RefTversky>
0.297 

> <ROCS_RefColorTversky>
0.069 

> <ROCS_RefTverskyCombo>
0.366 

> <ROCS_FitTversky>
1.638 

> <ROCS_FitColorTversky>
0.438 

> <ROCS_FitTverskyCombo>
2.076 

> <ROCS_ColorScore>
-4.992

> <ROCS_Overlap>
1978.818

> <ROCS_Rank>
123                 

$$$$
untitled-dbase-50778_30
  -OEChem-08212314543D

 37 38  0     1  0  0  0  0  0999 V2000
   -8.6946    4.3458  -10.4686 C   0  0  0  0  0  0  0  0  0  0  0  0
   -8.5949    5.6852  -10.1084 C   0  0  0  0  0  0  0  0  0  0  0  0
   -8.8102    3.9683  -11.8192 C   0  0  0  0  0  0  0  0  0  0  0  0
   -8.8220    4.9540  -12.8313 C   0  0  0  0  0  0  0  0  0  0  0  0
   -8.6312    6.6624  -11.0932 C   0  0  0  0  0  0  0  0  0  0  0  0
   -8.7527    6.3017  -12.4387 C   0  0  0  0  0  0  0  0  0  0  0  0
   -8.6503    5.3580  -15.3302 C   0  0  0  0  0  0  0  0  0  0  0  0
   -8.9567    2.4947  -12.1175 C   0  0  0  0  0  0  0  0  0  0  0  0
   -9.4824    3.2109  -14.4564 C   0  0  0  0  0  0  0  0  0  0  0  0
   -8.7907    2.1681  -13.5934 C   0  0  1  0  0  0  0  0  0  0  0  0
   -6.5927    4.4861  -16.7144 C   0  0  0  0  0  0  0  0  0  0  0  0
   -8.1932    3.4089  -18.3228 C   0  0  0  0  0  0  0  0  0  0  0  0
   -7.8772    5.9003  -18.3529 C   0  0  0  0  0  0  0  0  0  0  0  0
   -7.9064    4.6481  -17.4777 C   0  0  0  0  0  0  0  0  0  0  0  0
   -8.9559    4.5601  -14.2095 N   0  0  0  0  0  0  0  0  0  0  0  0
   -8.2041    6.5029  -15.2507 O   0  0  0  0  0  0  0  0  0  0  0  0
   -7.4020    2.1089  -13.9133 O   0  0  0  0  0  0  0  0  0  0  0  0
   -8.9718    4.7795  -16.5290 O   0  0  0  0  0  0  0  0  0  0  0  0
   -8.5819    7.9564  -10.7510 F   0  0  0  0  0  0  0  0  0  0  0  0
   -8.9192    7.3071  -13.3058 F   0  0  0  0  0  0  0  0  0  0  0  0
   -8.6831    3.5890   -9.6879 H   0  0  0  0  0  0  0  0  0  0  0  0
   -8.5034    5.9652   -9.0631 H   0  0  0  0  0  0  0  0  0  0  0  0
   -8.2141    1.9300  -11.5354 H   0  0  0  0  0  0  0  0  0  0  0  0
   -9.9574    2.1841  -11.7838 H   0  0  0  0  0  0  0  0  0  0  0  0
   -9.3403    2.9358  -15.5017 H   0  0  0  0  0  0  0  0  0  0  0  0
  -10.5546    3.2378  -14.2514 H   0  0  0  0  0  0  0  0  0  0  0  0
   -9.2066    1.1758  -13.7916 H   0  0  0  0  0  0  0  0  0  0  0  0
   -6.3833    5.3736  -16.1065 H   0  0  0  0  0  0  0  0  0  0  0  0
   -6.6137    3.6111  -16.0565 H   0  0  0  0  0  0  0  0  0  0  0  0
   -5.7492    4.3790  -17.4060 H   0  0  0  0  0  0  0  0  0  0  0  0
   -9.1349    3.5207  -18.8723 H   0  0  0  0  0  0  0  0  0  0  0  0
   -8.3092    2.5224  -17.6888 H   0  0  0  0  0  0  0  0  0  0  0  0
   -7.3919    3.2171  -19.0437 H   0  0  0  0  0  0  0  0  0  0  0  0
   -8.8194    6.0167  -18.9006 H   0  0  0  0  0  0  0  0  0  0  0  0
   -7.7092    6.8041  -17.7583 H   0  0  0  0  0  0  0  0  0  0  0  0
   -7.0869    5.8289  -19.1089 H   0  0  0  0  0  0  0  0  0  0  0  0
   -7.0347    2.9824  -13.7081 H   0  0  0  0  0  0  0  0  0  0  0  0
  1  2  1  0  0  0  0
  1  3  2  0  0  0  0
  2  5  2  0  0  0  0
  3  4  1  0  0  0  0
  3  8  1  0  0  0  0
  4  6  2  0  0  0  0
  4 15  1  0  0  0  0
  5  6  1  0  0  0  0
  5 19  1  0  0  0  0
  6 20  1  0  0  0  0
  7 15  1  0  0  0  0
  7 16  2  0  0  0  0
  7 18  1  0  0  0  0
  8 10  1  0  0  0  0
  9 10  1  0  0  0  0
  9 15  1  0  0  0  0
 10 17  1  0  0  0  0
 11 14  1  0  0  0  0
 12 14  1  0  0  0  0
 13 14  1  0  0  0  0
 14 18  1  0  0  0  0
  1 21  1  0  0  0  0
  2 22  1  0  0  0  0
  8 23  1  0  0  0  0
  8 24  1  0  0  0  0
  9 25  1  0  0  0  0
  9 26  1  0  0  0  0
 10 27  1  0  0  0  0
 11 28  1  0  0  0  0
 11 29  1  0  0  0  0
 11 30  1  0  0  0  0
 12 31  1  0  0  0  0
 12 32  1  0  0  0  0
 12 33  1  0  0  0  0
 13 34  1  0  0  0  0
 13 35  1  0  0  0  0
 13 36  1  0  0  0  0
 17 37  1  0  0  0  0
M  END
> <id>
EN300-37397174

> <smiles>
CC(C)(C)OC(=O)N1CC(O)CC=2C=CC(F)=C(F)C12

> <IUPAC Name>
tert-butyl 7,8-difluoro-3-hydroxy-1,2,3,4-tetrahydroquinoline-1-carboxylate

> <CAS>
2770500-31-5

> <URL>
https://www.enaminestore.com/catalog/EN300-37397174

> <ROCS_ShapeQuery>
_x0404_0B

> <ROCS_TanimotoCombo>
0.399 

> <ROCS_ShapeTanimoto>
0.281 

> <ROCS_ColorTanimoto>
0.117 

> <ROCS_RefTversky>
0.259 

> <ROCS_RefColorTversky>
0.119 

> <ROCS_RefTverskyCombo>
0.378 

> <ROCS_FitTversky>
1.431 

> <ROCS_FitColorTversky>
0.904 

> <ROCS_FitTverskyCombo>
2.335 

> <ROCS_ColorScore>
-8.574

> <ROCS_Overlap>
1730.447

> <ROCS_Rank>
124                 

$$$$
untitled-dbase-33505_78
  -OEChem-08212314543D

 39 40  0     0  0  0  0  0  0999 V2000
   -8.8544    3.0588  -10.1698 C   0  0  0  0  0  0  0  0  0  0  0  0
   -9.2362    4.3114   -8.1365 C   0  0  0  0  0  0  0  0  0  0  0  0
   -8.6618    4.2462  -10.8907 C   0  0  0  0  0  0  0  0  0  0  0  0
   -9.1480    3.0917   -8.8046 C   0  0  0  0  0  0  0  0  0  0  0  0
   -8.7622    5.4643  -10.2011 C   0  0  0  0  0  0  0  0  0  0  0  0
   -9.0336    5.5009   -8.8318 C   0  0  0  0  0  0  0  0  0  0  0  0
   -8.2258    5.5518  -14.4534 C   0  0  0  0  0  0  0  0  0  0  0  0
   -8.2884    4.1692  -12.3526 C   0  0  0  0  0  0  0  0  0  0  0  0
   -9.9724    5.9935  -12.7570 C   0  0  0  0  0  0  0  0  0  0  0  0
   -9.5951    7.0369  -11.7059 C   0  0  0  0  0  0  0  0  0  0  0  0
   -5.9415    5.6884  -16.1708 C   0  0  0  0  0  0  0  0  0  0  0  0
   -6.5173    3.3308  -16.8183 C   0  0  0  0  0  0  0  0  0  0  0  0
   -8.1368    5.1900  -17.2964 C   0  0  0  0  0  0  0  0  0  0  0  0
   -7.0690    4.6703  -16.3349 C   0  0  0  0  0  0  0  0  0  0  0  0
   -8.8001    5.2501  -13.2124 N   0  0  0  0  0  0  0  0  0  0  0  0
   -9.3465    1.8861   -8.0990 N   0  0  0  0  0  0  0  0  0  0  0  0
   -8.2146    6.6727  -14.9589 O   0  0  0  0  0  0  0  0  0  0  0  0
   -8.5222    6.6537  -10.8349 O   0  0  0  0  0  0  0  0  0  0  0  0
   -7.6749    4.4511  -15.0559 O   0  0  0  0  0  0  0  0  0  0  0  0
   -9.1531    7.1357   -7.8761 Br  0  0  0  0  0  0  0  0  0  0  0  0
   -8.7675    2.0987  -10.6761 H   0  0  0  0  0  0  0  0  0  0  0  0
   -9.4616    4.3251   -7.0722 H   0  0  0  0  0  0  0  0  0  0  0  0
   -7.1776    4.1469  -12.4480 H   0  0  0  0  0  0  0  0  0  0  0  0
   -8.6088    3.1895  -12.7756 H   0  0  0  0  0  0  0  0  0  0  0  0
  -10.7076    5.3017  -12.3306 H   0  0  0  0  0  0  0  0  0  0  0  0
  -10.4268    6.4709  -13.6338 H   0  0  0  0  0  0  0  0  0  0  0  0
   -9.2459    7.9475  -12.2325 H   0  0  0  0  0  0  0  0  0  0  0  0
  -10.4850    7.3742  -11.1264 H   0  0  0  0  0  0  0  0  0  0  0  0
   -6.3334    6.6513  -15.8240 H   0  0  0  0  0  0  0  0  0  0  0  0
   -5.1866    5.3428  -15.4570 H   0  0  0  0  0  0  0  0  0  0  0  0
   -5.4477    5.8830  -17.1297 H   0  0  0  0  0  0  0  0  0  0  0  0
   -7.3228    2.5972  -16.9374 H   0  0  0  0  0  0  0  0  0  0  0  0
   -5.8208    2.9081  -16.0851 H   0  0  0  0  0  0  0  0  0  0  0  0
   -5.9949    3.4306  -17.7752 H   0  0  0  0  0  0  0  0  0  0  0  0
   -8.9456    4.4599  -17.4143 H   0  0  0  0  0  0  0  0  0  0  0  0
   -8.5703    6.1325  -16.9465 H   0  0  0  0  0  0  0  0  0  0  0  0
   -7.7165    5.3500  -18.2959 H   0  0  0  0  0  0  0  0  0  0  0  0
   -9.3207    1.0199   -8.5974 H   0  0  0  0  0  0  0  0  0  0  0  0
   -9.6024    1.9233   -7.1333 H   0  0  0  0  0  0  0  0  0  0  0  0
  1  3  2  0  0  0  0
  1  4  1  0  0  0  0
  2  4  2  0  0  0  0
  2  6  1  0  0  0  0
  3  5  1  0  0  0  0
  3  8  1  0  0  0  0
  4 16  1  0  0  0  0
  5  6  2  0  0  0  0
  5 18  1  0  0  0  0
  6 20  1  0  0  0  0
  7 15  1  0  0  0  0
  7 17  2  0  0  0  0
  7 19  1  0  0  0  0
  8 15  1  0  0  0  0
  9 10  1  0  0  0  0
  9 15  1  0  0  0  0
 10 18  1  0  0  0  0
 11 14  1  0  0  0  0
 12 14  1  0  0  0  0
 13 14  1  0  0  0  0
 14 19  1  0  0  0  0
  1 21  1  0  0  0  0
  2 22  1  0  0  0  0
  8 23  1  0  0  0  0
  8 24  1  0  0  0  0
  9 25  1  0  0  0  0
  9 26  1  0  0  0  0
 10 27  1  0  0  0  0
 10 28  1  0  0  0  0
 11 29  1  0  0  0  0
 11 30  1  0  0  0  0
 11 31  1  0  0  0  0
 12 32  1  0  0  0  0
 12 33  1  0  0  0  0
 12 34  1  0  0  0  0
 13 35  1  0  0  0  0
 13 36  1  0  0  0  0
 13 37  1  0  0  0  0
 16 38  1  0  0  0  0
 16 39  1  0  0  0  0
M  END
> <id>
EN300-1665510

> <smiles>
CC(C)(C)OC(=O)N1CCOC=2C(Br)=CC(N)=CC2C1

> <MDLNUMBER>
MFCD31617245

> <IUPAC Name>
tert-butyl 7-amino-9-bromo-2,3,4,5-tetrahydro-1,4-benzoxazepine-4-carboxylate

> <CAS>
2193064-36-5

> <Purity>
95

> <URL>
https://www.enaminestore.com/catalog/EN300-1665510

> <ROCS_ShapeQuery>
_x0404_0B

> <ROCS_TanimotoCombo>
0.399 

> <ROCS_ShapeTanimoto>
0.307 

> <ROCS_ColorTanimoto>
0.092 

> <ROCS_RefTversky>
0.277 

> <ROCS_RefColorTversky>
0.098 

> <ROCS_RefTverskyCombo>
0.374 

> <ROCS_FitTversky>
1.555 

> <ROCS_FitColorTversky>
0.619 

> <ROCS_FitTverskyCombo>
2.174 

> <ROCS_ColorScore>
-7.044

> <ROCS_Overlap>
1844.271

> <ROCS_Rank>
125                 

$$$$
untitled-dbase-29889_419
  -OEChem-08212314543D

 45 46  0     1  0  0  0  0  0999 V2000
   -7.5730    3.2429  -14.0510 C   0  0  0  0  0  0  0  0  0  0  0  0
   -8.8512    5.2498   -8.7367 C   0  0  0  0  0  0  0  0  0  0  0  0
   -9.0527    4.6169  -16.4544 C   0  0  0  0  0  0  0  0  0  0  0  0
   -9.7596    4.3060  -12.2773 C   0  0  0  0  0  0  0  0  0  0  0  0
   -8.1319    6.2924  -12.1958 C   0  0  0  0  0  0  0  0  0  0  0  0
   -9.1611    4.0170  -10.9066 C   0  0  0  0  0  0  0  0  0  0  0  0
   -8.8681    6.5024  -10.8792 C   0  0  0  0  0  0  0  0  0  0  0  0
   -9.6370    5.8752  -14.2822 C   0  0  0  0  0  0  0  0  0  0  0  0
   -7.8787    4.6502  -14.1527 C   0  0  2  0  0  0  0  0  0  0  0  0
   -8.8536    5.2608  -13.0845 C   0  0  0  0  0  0  0  0  0  0  0  0
   -7.8200    6.0210  -18.6144 C   0  0  0  0  0  0  0  0  0  0  0  0
   -6.2977    4.0313  -18.7957 C   0  0  0  0  0  0  0  0  0  0  0  0
   -8.7661    3.7555  -19.1687 C   0  0  0  0  0  0  0  0  0  0  0  0
   -8.8153    3.8989   -6.7802 C   0  0  0  0  0  0  0  0  0  0  0  0
   -7.6896    4.5146  -18.3942 C   0  0  0  0  0  0  0  0  0  0  0  0
   -7.3275    2.1119  -13.9692 N   0  0  0  0  0  0  0  0  0  0  0  0
   -8.9672    5.2477  -10.1298 N   0  0  0  0  0  0  0  0  0  0  0  0
   -8.9161    4.9438  -15.1305 N   0  0  0  0  0  0  0  0  0  0  0  0
   -8.6884    6.2604   -8.0557 O   0  0  0  0  0  0  0  0  0  0  0  0
  -10.1122    4.6535  -17.0737 O   0  0  0  0  0  0  0  0  0  0  0  0
   -8.9321    3.9896   -8.2047 O   0  0  0  0  0  0  0  0  0  0  0  0
   -7.8548    4.2421  -16.9983 O   0  0  0  0  0  0  0  0  0  0  0  0
   -9.8878    3.3638  -12.8281 H   0  0  0  0  0  0  0  0  0  0  0  0
  -10.7611    4.7356  -12.1452 H   0  0  0  0  0  0  0  0  0  0  0  0
   -8.0378    7.2577  -12.7147 H   0  0  0  0  0  0  0  0  0  0  0  0
   -7.1070    5.9489  -11.9894 H   0  0  0  0  0  0  0  0  0  0  0  0
   -9.8271    3.3715  -10.3177 H   0  0  0  0  0  0  0  0  0  0  0  0
   -8.2103    3.4816  -11.0201 H   0  0  0  0  0  0  0  0  0  0  0  0
   -8.3634    7.2783  -10.2969 H   0  0  0  0  0  0  0  0  0  0  0  0
   -9.8938    6.8468  -11.0570 H   0  0  0  0  0  0  0  0  0  0  0  0
  -10.7147    5.6961  -14.2965 H   0  0  0  0  0  0  0  0  0  0  0  0
   -9.4293    6.9228  -14.5072 H   0  0  0  0  0  0  0  0  0  0  0  0
   -6.9795    5.2629  -14.3204 H   0  0  0  0  0  0  0  0  0  0  0  0
   -8.8177    6.3718  -18.3274 H   0  0  0  0  0  0  0  0  0  0  0  0
   -7.0757    6.5790  -18.0369 H   0  0  0  0  0  0  0  0  0  0  0  0
   -7.6964    6.2735  -19.6738 H   0  0  0  0  0  0  0  0  0  0  0  0
   -6.1996    2.9509  -18.6394 H   0  0  0  0  0  0  0  0  0  0  0  0
   -5.5267    4.5039  -18.1765 H   0  0  0  0  0  0  0  0  0  0  0  0
   -6.0813    4.2506  -19.8463 H   0  0  0  0  0  0  0  0  0  0  0  0
   -8.6728    2.6749  -19.0110 H   0  0  0  0  0  0  0  0  0  0  0  0
   -9.7725    4.0632  -18.8670 H   0  0  0  0  0  0  0  0  0  0  0  0
   -8.6600    3.9209  -20.2470 H   0  0  0  0  0  0  0  0  0  0  0  0
   -8.8944    2.8531   -6.4732 H   0  0  0  0  0  0  0  0  0  0  0  0
   -9.6068    4.4884   -6.3107 H   0  0  0  0  0  0  0  0  0  0  0  0
   -7.8422    4.2926   -6.4775 H   0  0  0  0  0  0  0  0  0  0  0  0
  1  9  1  0  0  0  0
  1 16  3  0  0  0  0
  2 17  1  0  0  0  0
  2 19  2  0  0  0  0
  2 21  1  0  0  0  0
  3 18  1  0  0  0  0
  3 20  2  0  0  0  0
  3 22  1  0  0  0  0
  4  6  1  0  0  0  0
  4 10  1  0  0  0  0
  5  7  1  0  0  0  0
  5 10  1  0  0  0  0
  6 17  1  0  0  0  0
  7 17  1  0  0  0  0
  8 10  1  0  0  0  0
  8 18  1  0  0  0  0
  9 10  1  0  0  0  0
  9 18  1  0  0  0  0
 11 15  1  0  0  0  0
 12 15  1  0  0  0  0
 13 15  1  0  0  0  0
 14 21  1  0  0  0  0
 15 22  1  0  0  0  0
  4 23  1  0  0  0  0
  4 24  1  0  0  0  0
  5 25  1  0  0  0  0
  5 26  1  0  0  0  0
  6 27  1  0  0  0  0
  6 28  1  0  0  0  0
  7 29  1  0  0  0  0
  7 30  1  0  0  0  0
  8 31  1  0  0  0  0
  8 32  1  0  0  0  0
  9 33  1  0  0  0  0
 11 34  1  0  0  0  0
 11 35  1  0  0  0  0
 11 36  1  0  0  0  0
 12 37  1  0  0  0  0
 12 38  1  0  0  0  0
 12 39  1  0  0  0  0
 13 40  1  0  0  0  0
 13 41  1  0  0  0  0
 13 42  1  0  0  0  0
 14 43  1  0  0  0  0
 14 44  1  0  0  0  0
 14 45  1  0  0  0  0
M  END
> <id>
EN300-37340982

> <smiles>
COC(=O)N1CCC2(CN(C2C#N)C(=O)OC(C)(C)C)CC1

> <MDLNUMBER>
MFCD34600645

> <IUPAC Name>
2-tert-butyl 7-methyl 1-cyano-2,7-diazaspiro[3.5]nonane-2,7-dicarboxylate

> <CAS>
2758005-22-8

> <Purity>
95

> <URL>
https://www.enaminestore.com/catalog/EN300-37340982

> <ROCS_ShapeQuery>
_x0404_0B

> <ROCS_TanimotoCombo>
0.398 

> <ROCS_ShapeTanimoto>
0.332 

> <ROCS_ColorTanimoto>
0.066 

> <ROCS_RefTversky>
0.297 

> <ROCS_RefColorTversky>
0.070 

> <ROCS_RefTverskyCombo>
0.367 

> <ROCS_FitTversky>
1.558 

> <ROCS_FitColorTversky>
0.535 

> <ROCS_FitTverskyCombo>
2.094 

> <ROCS_ColorScore>
-5.075

> <ROCS_Overlap>
1980.786

> <ROCS_Rank>
126                 

$$$$
untitled-dbase-34233_86
  -OEChem-08212314543D

 48 50  0     1  0  0  0  0  0999 V2000
   -8.7902    3.7964   -6.9909 C   0  0  0  0  0  0  0  0  0  0  0  0
   -9.1901    2.5582   -7.5328 C   0  0  0  0  0  0  0  0  0  0  0  0
   -8.6938    4.6284   -8.0793 C   0  0  0  0  0  0  0  0  0  0  0  0
   -8.5309    5.6273  -14.3229 C   0  0  0  0  0  0  0  0  0  0  0  0
  -10.3304    4.3059  -11.2385 C   0  0  0  0  0  0  0  0  0  0  0  0
  -10.1579    4.5560  -12.7374 C   0  0  0  0  0  0  0  0  0  0  0  0
   -8.5726    6.6081   -9.4774 C   0  0  0  0  0  0  0  0  0  0  0  0
   -8.6957    6.4265  -11.9800 C   0  0  0  0  0  0  0  0  0  0  0  0
   -8.2826    5.6969  -10.6868 C   0  0  2  0  0  0  0  0  0  0  0  0
   -8.9619    4.3076  -10.5502 C   0  0  1  0  0  0  0  0  0  0  0  0
   -8.5306    4.1252   -5.5785 C   0  0  0  0  0  0  0  0  0  0  0  0
   -9.4528    1.3003   -6.8114 C   0  0  0  0  0  0  0  0  0  0  0  0
   -6.5713    4.8850  -16.2710 C   0  0  0  0  0  0  0  0  0  0  0  0
   -8.1941    3.0923  -16.9508 C   0  0  0  0  0  0  0  0  0  0  0  0
   -8.8369    5.5102  -17.1714 C   0  0  0  0  0  0  0  0  0  0  0  0
   -8.0451    4.4903  -16.3544 C   0  0  0  0  0  0  0  0  0  0  0  0
   -9.3261    2.5929   -8.8621 N   0  0  0  0  0  0  0  0  0  0  0  0
   -9.0237    3.8699   -9.1661 N   0  0  0  0  0  0  0  0  0  0  0  0
   -8.3430    5.9202   -8.2204 N   0  0  0  0  0  0  0  0  0  0  0  0
   -9.0803    5.5034  -13.0429 N   0  0  0  0  0  0  0  0  0  0  0  0
   -8.0565    6.6656  -14.7792 O   0  0  0  0  0  0  0  0  0  0  0  0
   -8.5826    4.4528  -15.0275 O   0  0  0  0  0  0  0  0  0  0  0  0
  -10.9775    5.0752  -10.8180 H   0  0  0  0  0  0  0  0  0  0  0  0
  -10.8270    3.3489  -11.0876 H   0  0  0  0  0  0  0  0  0  0  0  0
   -9.9162    3.6113  -13.2570 H   0  0  0  0  0  0  0  0  0  0  0  0
  -11.1125    4.9073  -13.1659 H   0  0  0  0  0  0  0  0  0  0  0  0
   -7.9284    7.4980   -9.5201 H   0  0  0  0  0  0  0  0  0  0  0  0
   -9.6100    6.9724   -9.4976 H   0  0  0  0  0  0  0  0  0  0  0  0
   -9.4914    7.1507  -11.7620 H   0  0  0  0  0  0  0  0  0  0  0  0
   -7.8423    7.0088  -12.3590 H   0  0  0  0  0  0  0  0  0  0  0  0
   -7.1935    5.5588  -10.7324 H   0  0  0  0  0  0  0  0  0  0  0  0
   -8.3105    3.5715  -11.0835 H   0  0  0  0  0  0  0  0  0  0  0  0
   -7.4741    3.9482   -5.3141 H   0  0  0  0  0  0  0  0  0  0  0  0
   -8.7589    5.1809   -5.3478 H   0  0  0  0  0  0  0  0  0  0  0  0
   -9.1510    3.5244   -4.8898 H   0  0  0  0  0  0  0  0  0  0  0  0
  -10.5100    1.2291   -6.5045 H   0  0  0  0  0  0  0  0  0  0  0  0
   -9.2237    0.4121   -7.4262 H   0  0  0  0  0  0  0  0  0  0  0  0
   -8.8345    1.2059   -5.9012 H   0  0  0  0  0  0  0  0  0  0  0  0
   -6.4601    5.8879  -15.8434 H   0  0  0  0  0  0  0  0  0  0  0  0
   -5.9990    4.1805  -15.6586 H   0  0  0  0  0  0  0  0  0  0  0  0
   -6.1195    4.9226  -17.2688 H   0  0  0  0  0  0  0  0  0  0  0  0
   -9.2499    2.8050  -17.0125 H   0  0  0  0  0  0  0  0  0  0  0  0
   -7.7069    2.3433  -16.3161 H   0  0  0  0  0  0  0  0  0  0  0  0
   -7.7593    3.0325  -17.9538 H   0  0  0  0  0  0  0  0  0  0  0  0
   -9.8940    5.2273  -17.2314 H   0  0  0  0  0  0  0  0  0  0  0  0
   -8.7716    6.5131  -16.7370 H   0  0  0  0  0  0  0  0  0  0  0  0
   -8.4692    5.5530  -18.2030 H   0  0  0  0  0  0  0  0  0  0  0  0
   -7.9997    6.4685   -7.4428 H   0  0  0  0  0  0  0  0  0  0  0  0
  1  2  1  0  0  0  0
  1  3  2  0  0  0  0
  1 11  1  0  0  0  0
  2 12  1  0  0  0  0
  2 17  2  0  0  0  0
  3 18  1  0  0  0  0
  3 19  1  0  0  0  0
  4 20  1  0  0  0  0
  4 21  2  0  0  0  0
  4 22  1  0  0  0  0
  5  6  1  0  0  0  0
  5 10  1  0  0  0  0
  6 20  1  0  0  0  0
  7  9  1  0  0  0  0
  7 19  1  0  0  0  0
  8  9  1  0  0  0  0
  8 20  1  0  0  0  0
  9 10  1  0  0  0  0
 10 18  1  0  0  0  0
 13 16  1  0  0  0  0
 14 16  1  0  0  0  0
 15 16  1  0  0  0  0
 16 22  1  0  0  0  0
 17 18  1  0  0  0  0
  5 23  1  0  0  0  0
  5 24  1  0  0  0  0
  6 25  1  0  0  0  0
  6 26  1  0  0  0  0
  7 27  1  0  0  0  0
  7 28  1  0  0  0  0
  8 29  1  0  0  0  0
  8 30  1  0  0  0  0
  9 31  1  0  0  0  0
 10 32  1  0  0  0  0
 11 33  1  0  0  0  0
 11 34  1  0  0  0  0
 11 35  1  0  0  0  0
 12 36  1  0  0  0  0
 12 37  1  0  0  0  0
 12 38  1  0  0  0  0
 13 39  1  0  0  0  0
 13 40  1  0  0  0  0
 13 41  1  0  0  0  0
 14 42  1  0  0  0  0
 14 43  1  0  0  0  0
 14 44  1  0  0  0  0
 15 45  1  0  0  0  0
 15 46  1  0  0  0  0
 15 47  1  0  0  0  0
 19 48  1  0  0  0  0
M  END
> <id>
EN300-1118525

> <smiles>
CC1=NN2C3CCN(CC3CNC2=C1C)C(=O)OC(C)(C)C

> <IUPAC Name>
tert-butyl 4,5-dimethyl-2,3,7,11-tetraazatricyclo[7.4.0.0,2,6]trideca-3,5-diene-11-carboxylate

> <CAS>
1695094-57-5

> <URL>
https://www.enaminestore.com/catalog/EN300-1118525

> <ROCS_ShapeQuery>
_x0404_0B

> <ROCS_TanimotoCombo>
0.398 

> <ROCS_ShapeTanimoto>
0.323 

> <ROCS_ColorTanimoto>
0.075 

> <ROCS_RefTversky>
0.292 

> <ROCS_RefColorTversky>
0.080 

> <ROCS_RefTverskyCombo>
0.372 

> <ROCS_FitTversky>
1.499 

> <ROCS_FitColorTversky>
0.553 

> <ROCS_FitTverskyCombo>
2.052 

> <ROCS_ColorScore>
-5.787

> <ROCS_Overlap>
1946.925

> <ROCS_Rank>
127                 

$$$$
untitled-dbase-47096_28
  -OEChem-08212314543D

 45 47  0     0  0  0  0  0  0999 V2000
   -9.1700    3.0318   -6.7792 C   0  0  0  0  0  0  0  0  0  0  0  0
   -8.5710    5.8143  -14.5945 C   0  0  0  0  0  0  0  0  0  0  0  0
   -9.6583    4.4327   -7.1893 C   0  0  0  0  0  0  0  0  0  0  0  0
   -8.9526    6.4904  -11.0756 C   0  0  0  0  0  0  0  0  0  0  0  0
   -7.8072    4.2600  -11.3885 C   0  0  0  0  0  0  0  0  0  0  0  0
   -8.0170    5.2589   -9.0066 C   0  0  0  0  0  0  0  0  0  0  0  0
   -9.8614    4.4207   -9.7659 C   0  0  0  0  0  0  0  0  0  0  0  0
   -9.6576    6.2892  -12.4139 C   0  0  0  0  0  0  0  0  0  0  0  0
   -8.5214    4.1061  -12.7301 C   0  0  0  0  0  0  0  0  0  0  0  0
   -8.4962    2.7744   -8.1849 C   0  0  0  0  0  0  0  0  0  0  0  0
   -8.9951    4.1930   -8.5370 C   0  0  0  0  0  0  0  0  0  0  0  0
   -8.6379    5.1330  -10.4352 C   0  0  0  0  0  0  0  0  0  0  0  0
   -6.8002    5.8174  -16.8432 C   0  0  0  0  0  0  0  0  0  0  0  0
   -8.0521    3.7743  -17.5968 C   0  0  0  0  0  0  0  0  0  0  0  0
   -9.2555    5.9677  -17.3758 C   0  0  0  0  0  0  0  0  0  0  0  0
   -8.1407    5.0845  -16.8172 C   0  0  0  0  0  0  0  0  0  0  0  0
   -8.8791    5.4138  -13.2907 N   0  0  0  0  0  0  0  0  0  0  0  0
   -9.2746    2.3866   -5.7567 O   0  0  0  0  0  0  0  0  0  0  0  0
   -8.4181    6.9839  -14.9423 O   0  0  0  0  0  0  0  0  0  0  0  0
   -8.4553    4.7578  -15.4586 O   0  0  0  0  0  0  0  0  0  0  0  0
   -9.2753    1.3481   -8.9756 Cl  0  0  0  0  0  0  0  0  0  0  0  0
   -6.7248    2.4944   -7.9656 Cl  0  0  0  0  0  0  0  0  0  0  0  0
  -10.7497    4.5186   -7.1919 H   0  0  0  0  0  0  0  0  0  0  0  0
   -9.2320    5.2297   -6.5715 H   0  0  0  0  0  0  0  0  0  0  0  0
   -8.0236    7.0512  -11.2355 H   0  0  0  0  0  0  0  0  0  0  0  0
   -9.5845    7.1046  -10.4267 H   0  0  0  0  0  0  0  0  0  0  0  0
   -7.6293    3.2672  -10.9559 H   0  0  0  0  0  0  0  0  0  0  0  0
   -6.8208    4.7156  -11.5487 H   0  0  0  0  0  0  0  0  0  0  0  0
   -8.1013    6.2422   -8.5321 H   0  0  0  0  0  0  0  0  0  0  0  0
   -6.9626    4.9596   -8.9677 H   0  0  0  0  0  0  0  0  0  0  0  0
  -10.1635    3.5045  -10.2876 H   0  0  0  0  0  0  0  0  0  0  0  0
  -10.7574    5.0326   -9.6214 H   0  0  0  0  0  0  0  0  0  0  0  0
  -10.6324    5.8090  -12.2689 H   0  0  0  0  0  0  0  0  0  0  0  0
   -9.8420    7.2619  -12.8786 H   0  0  0  0  0  0  0  0  0  0  0  0
   -7.8881    3.5477  -13.4259 H   0  0  0  0  0  0  0  0  0  0  0  0
   -9.4547    3.5443  -12.6100 H   0  0  0  0  0  0  0  0  0  0  0  0
   -6.8597    6.7584  -16.2847 H   0  0  0  0  0  0  0  0  0  0  0  0
   -5.9988    5.2078  -16.4131 H   0  0  0  0  0  0  0  0  0  0  0  0
   -6.5200    6.0838  -17.8688 H   0  0  0  0  0  0  0  0  0  0  0  0
   -9.0117    3.2451  -17.5808 H   0  0  0  0  0  0  0  0  0  0  0  0
   -7.3192    3.0982  -17.1417 H   0  0  0  0  0  0  0  0  0  0  0  0
   -7.7668    3.9434  -18.6401 H   0  0  0  0  0  0  0  0  0  0  0  0
  -10.2171    5.4422  -17.3573 H   0  0  0  0  0  0  0  0  0  0  0  0
   -9.3582    6.8966  -16.8055 H   0  0  0  0  0  0  0  0  0  0  0  0
   -9.0624    6.2224  -18.4242 H   0  0  0  0  0  0  0  0  0  0  0  0
  1  3  1  0  0  0  0
  1 10  1  0  0  0  0
  1 18  2  0  0  0  0
  2 17  1  0  0  0  0
  2 19  2  0  0  0  0
  2 20  1  0  0  0  0
  3 11  1  0  0  0  0
  4  8  1  0  0  0  0
  4 12  1  0  0  0  0
  5  9  1  0  0  0  0
  5 12  1  0  0  0  0
  6 11  1  0  0  0  0
  6 12  1  0  0  0  0
  7 11  1  0  0  0  0
  7 12  1  0  0  0  0
  8 17  1  0  0  0  0
  9 17  1  0  0  0  0
 10 11  1  0  0  0  0
 10 21  1  0  0  0  0
 10 22  1  0  0  0  0
 13 16  1  0  0  0  0
 14 16  1  0  0  0  0
 15 16  1  0  0  0  0
 16 20  1  0  0  0  0
  3 23  1  0  0  0  0
  3 24  1  0  0  0  0
  4 25  1  0  0  0  0
  4 26  1  0  0  0  0
  5 27  1  0  0  0  0
  5 28  1  0  0  0  0
  6 29  1  0  0  0  0
  6 30  1  0  0  0  0
  7 31  1  0  0  0  0
  7 32  1  0  0  0  0
  8 33  1  0  0  0  0
  8 34  1  0  0  0  0
  9 35  1  0  0  0  0
  9 36  1  0  0  0  0
 13 37  1  0  0  0  0
 13 38  1  0  0  0  0
 13 39  1  0  0  0  0
 14 40  1  0  0  0  0
 14 41  1  0  0  0  0
 14 42  1  0  0  0  0
 15 43  1  0  0  0  0
 15 44  1  0  0  0  0
 15 45  1  0  0  0  0
M  END
> <id>
EN300-37464893

> <smiles>
CC(C)(C)OC(=O)N1CCC2(CC3(CC(=O)C3(Cl)Cl)C2)CC1

> <IUPAC Name>
tert-butyl 1,1-dichloro-2-oxo-9-azadispiro[3.1.5^{6}.1^{4}]dodecane-9-carboxylate

> <Purity>
90

> <URL>
https://www.enaminestore.com/catalog/EN300-37464893

> <ROCS_ShapeQuery>
_x0404_0B

> <ROCS_TanimotoCombo>
0.398 

> <ROCS_ShapeTanimoto>
0.335 

> <ROCS_ColorTanimoto>
0.063 

> <ROCS_RefTversky>
0.298 

> <ROCS_RefColorTversky>
0.067 

> <ROCS_RefTverskyCombo>
0.365 

> <ROCS_FitTversky>
1.587 

> <ROCS_FitColorTversky>
0.511 

> <ROCS_FitTverskyCombo>
2.098 

> <ROCS_ColorScore>
-4.858

> <ROCS_Overlap>
1988.543

> <ROCS_Rank>
128                 

$$$$
untitled-dbase-2676_22
  -OEChem-08212314543D

 43 45  0     1  0  0  0  0  0999 V2000
   -9.3121    2.6460   -6.8726 C   0  0  0  0  0  0  0  0  0  0  0  0
   -8.9858    1.8702   -7.9848 C   0  0  0  0  0  0  0  0  0  0  0  0
   -9.3092    4.0381   -6.9641 C   0  0  0  0  0  0  0  0  0  0  0  0
   -8.6644    2.4839   -9.1959 C   0  0  0  0  0  0  0  0  0  0  0  0
   -8.9837    4.6493   -8.1780 C   0  0  0  0  0  0  0  0  0  0  0  0
   -8.6761    3.8761   -9.2986 C   0  0  0  0  0  0  0  0  0  0  0  0
   -8.9221    6.1187   -8.2818 C   0  0  0  0  0  0  0  0  0  0  0  0
   -8.7428    5.7244  -14.4390 C   0  0  0  0  0  0  0  0  0  0  0  0
   -8.4114    6.6649   -9.5879 C   0  0  0  0  0  0  0  0  0  0  0  0
  -10.3132    5.7790  -11.0888 C   0  0  0  0  0  0  0  0  0  0  0  0
  -10.3530    5.3125  -12.5388 C   0  0  0  0  0  0  0  0  0  0  0  0
   -8.1721    6.2162  -12.0590 C   0  0  0  0  0  0  0  0  0  0  0  0
   -8.8100    5.7497  -10.7412 C   0  0  1  0  0  0  0  0  0  0  0  0
   -7.5827    4.3768  -16.6765 C   0  0  0  0  0  0  0  0  0  0  0  0
   -9.8760    3.4258  -17.0584 C   0  0  0  0  0  0  0  0  0  0  0  0
   -9.5131    5.9075  -17.1916 C   0  0  0  0  0  0  0  0  0  0  0  0
   -9.0835    4.6099  -16.5087 C   0  0  0  0  0  0  0  0  0  0  0  0
   -9.0806    5.7460  -13.0966 N   0  0  0  0  0  0  0  0  0  0  0  0
   -9.2111    6.8398   -7.3343 O   0  0  0  0  0  0  0  0  0  0  0  0
   -7.9662    6.5162  -14.9684 O   0  0  0  0  0  0  0  0  0  0  0  0
   -8.3642    4.3997  -10.5242 O   0  0  0  0  0  0  0  0  0  0  0  0
   -9.3751    4.7123  -15.1105 O   0  0  0  0  0  0  0  0  0  0  0  0
   -9.5759    2.1648   -5.9351 H   0  0  0  0  0  0  0  0  0  0  0  0
   -8.9801    0.7868   -7.9074 H   0  0  0  0  0  0  0  0  0  0  0  0
   -9.5708    4.6245   -6.0879 H   0  0  0  0  0  0  0  0  0  0  0  0
   -8.3942    1.8706  -10.0516 H   0  0  0  0  0  0  0  0  0  0  0  0
   -8.8468    7.6640   -9.7115 H   0  0  0  0  0  0  0  0  0  0  0  0
   -7.3215    6.7646   -9.5283 H   0  0  0  0  0  0  0  0  0  0  0  0
  -10.7107    6.7983  -11.0217 H   0  0  0  0  0  0  0  0  0  0  0  0
  -10.9076    5.1214  -10.4477 H   0  0  0  0  0  0  0  0  0  0  0  0
  -10.3940    4.2206  -12.6122 H   0  0  0  0  0  0  0  0  0  0  0  0
  -11.1887    5.7348  -13.1038 H   0  0  0  0  0  0  0  0  0  0  0  0
   -8.1340    7.3093  -12.1383 H   0  0  0  0  0  0  0  0  0  0  0  0
   -7.1722    5.8098  -12.2427 H   0  0  0  0  0  0  0  0  0  0  0  0
   -7.0104    5.2245  -16.2832 H   0  0  0  0  0  0  0  0  0  0  0  0
   -7.2557    3.4676  -16.1618 H   0  0  0  0  0  0  0  0  0  0  0  0
   -7.3167    4.2893  -17.7362 H   0  0  0  0  0  0  0  0  0  0  0  0
  -10.9533    3.5887  -16.9400 H   0  0  0  0  0  0  0  0  0  0  0  0
   -9.6401    2.5085  -16.5069 H   0  0  0  0  0  0  0  0  0  0  0  0
   -9.6655    3.2564  -18.1193 H   0  0  0  0  0  0  0  0  0  0  0  0
  -10.5896    6.0749  -17.0713 H   0  0  0  0  0  0  0  0  0  0  0  0
   -8.9811    6.7731  -16.7838 H   0  0  0  0  0  0  0  0  0  0  0  0
   -9.3262    5.8604  -18.2705 H   0  0  0  0  0  0  0  0  0  0  0  0
  1  2  2  0  0  0  0
  1  3  1  0  0  0  0
  2  4  1  0  0  0  0
  3  5  2  0  0  0  0
  4  6  2  0  0  0  0
  5  6  1  0  0  0  0
  5  7  1  0  0  0  0
  6 21  1  0  0  0  0
  7  9  1  0  0  0  0
  7 19  2  0  0  0  0
  8 18  1  0  0  0  0
  8 20  2  0  0  0  0
  8 22  1  0  0  0  0
  9 13  1  0  0  0  0
 10 11  1  0  0  0  0
 10 13  1  0  0  0  0
 11 18  1  0  0  0  0
 12 13  1  0  0  0  0
 12 18  1  0  0  0  0
 13 21  1  0  0  0  0
 14 17  1  0  0  0  0
 15 17  1  0  0  0  0
 16 17  1  0  0  0  0
 17 22  1  0  0  0  0
  1 23  1  0  0  0  0
  2 24  1  0  0  0  0
  3 25  1  0  0  0  0
  4 26  1  0  0  0  0
  9 27  1  0  0  0  0
  9 28  1  0  0  0  0
 10 29  1  0  0  0  0
 10 30  1  0  0  0  0
 11 31  1  0  0  0  0
 11 32  1  0  0  0  0
 12 33  1  0  0  0  0
 12 34  1  0  0  0  0
 14 35  1  0  0  0  0
 14 36  1  0  0  0  0
 14 37  1  0  0  0  0
 15 38  1  0  0  0  0
 15 39  1  0  0  0  0
 15 40  1  0  0  0  0
 16 41  1  0  0  0  0
 16 42  1  0  0  0  0
 16 43  1  0  0  0  0
M  END
> <id>
EN300-124159

> <smiles>
CC(C)(C)OC(=O)N1CCC2(C1)CC(=O)C=3C=CC=CC3O2

> <MDLNUMBER>
MFCD15071774

> <IUPAC Name>
tert-butyl 4-oxo-3,4-dihydrospiro[1-benzopyran-2,3'-pyrrolidine]-1'-carboxylate

> <CAS>
1013334-96-7

> <Purity>
95

> <URL>
https://www.enaminestore.com/catalog/EN300-124159

> <ROCS_ShapeQuery>
_x0404_0B

> <ROCS_TanimotoCombo>
0.398 

> <ROCS_ShapeTanimoto>
0.327 

> <ROCS_ColorTanimoto>
0.071 

> <ROCS_RefTversky>
0.294 

> <ROCS_RefColorTversky>
0.076 

> <ROCS_RefTverskyCombo>
0.371 

> <ROCS_FitTversky>
1.505 

> <ROCS_FitColorTversky>
0.527 

> <ROCS_FitTverskyCombo>
2.032 

> <ROCS_ColorScore>
-5.498

> <ROCS_Overlap>
1965.196

> <ROCS_Rank>
129                 

$$$$
untitled-dbase-41485_24
  -OEChem-08212314543D

 37 38  0     0  0  0  0  0  0999 V2000
   -8.0904    2.5139  -11.4698 C   0  0  0  0  0  0  0  0  0  0  0  0
   -7.8448    1.4640  -10.9406 C   0  0  0  0  0  0  0  0  0  0  0  0
   -9.2301    7.2657  -12.1909 C   0  0  0  0  0  0  0  0  0  0  0  0
   -9.3466    7.6376  -10.8476 C   0  0  0  0  0  0  0  0  0  0  0  0
   -8.8155    5.3911  -10.1314 C   0  0  0  0  0  0  0  0  0  0  0  0
   -8.4033    3.9579  -13.4554 C   0  0  0  0  0  0  0  0  0  0  0  0
   -8.3810    3.7591  -12.0977 C   0  0  0  0  0  0  0  0  0  0  0  0
   -8.6925    4.9925  -11.4790 C   0  0  0  0  0  0  0  0  0  0  0  0
   -8.9009    5.9316  -12.4984 C   0  0  0  0  0  0  0  0  0  0  0  0
   -9.1427    6.7146   -9.8298 C   0  0  0  0  0  0  0  0  0  0  0  0
   -8.8346    5.8514  -15.0003 C   0  0  0  0  0  0  0  0  0  0  0  0
   -7.2611    5.0910  -17.2358 C   0  0  0  0  0  0  0  0  0  0  0  0
   -9.3434    3.9710  -18.0836 C   0  0  0  0  0  0  0  0  0  0  0  0
   -9.3138    6.4583  -17.7369 C   0  0  0  0  0  0  0  0  0  0  0  0
   -7.5480    0.1858  -10.2952 C   0  0  0  0  0  0  0  0  0  0  0  0
   -8.7889    5.1137  -17.2357 C   0  0  0  0  0  0  0  0  0  0  0  0
   -8.7193    5.2787  -13.7224 N   0  0  0  0  0  0  0  0  0  0  0  0
   -8.5821    7.0284  -15.1987 O   0  0  0  0  0  0  0  0  0  0  0  0
   -6.3483   -0.3542  -10.8311 O   0  0  0  0  0  0  0  0  0  0  0  0
   -9.2471    4.9170  -15.8946 O   0  0  0  0  0  0  0  0  0  0  0  0
   -9.2601    7.0951   -8.5507 F   0  0  0  0  0  0  0  0  0  0  0  0
   -9.3953    8.0096  -12.9623 H   0  0  0  0  0  0  0  0  0  0  0  0
   -9.6005    8.6647  -10.5985 H   0  0  0  0  0  0  0  0  0  0  0  0
   -8.6578    4.6802   -9.3250 H   0  0  0  0  0  0  0  0  0  0  0  0
   -8.2179    3.2561  -14.2588 H   0  0  0  0  0  0  0  0  0  0  0  0
   -6.8592    5.9097  -16.6283 H   0  0  0  0  0  0  0  0  0  0  0  0
   -6.8717    4.1449  -16.8457 H   0  0  0  0  0  0  0  0  0  0  0  0
   -6.8679    5.2357  -18.2486 H   0  0  0  0  0  0  0  0  0  0  0  0
  -10.4393    3.9834  -18.0864 H   0  0  0  0  0  0  0  0  0  0  0  0
   -9.0468    2.9997  -17.6715 H   0  0  0  0  0  0  0  0  0  0  0  0
   -8.9934    4.0296  -19.1193 H   0  0  0  0  0  0  0  0  0  0  0  0
  -10.4097    6.4749  -17.7369 H   0  0  0  0  0  0  0  0  0  0  0  0
   -8.9557    7.2872  -17.1177 H   0  0  0  0  0  0  0  0  0  0  0  0
   -9.0018    6.6370  -18.7723 H   0  0  0  0  0  0  0  0  0  0  0  0
   -7.4179    0.3174   -9.2168 H   0  0  0  0  0  0  0  0  0  0  0  0
   -8.3573   -0.5308  -10.4654 H   0  0  0  0  0  0  0  0  0  0  0  0
   -6.4961   -0.4768  -11.7830 H   0  0  0  0  0  0  0  0  0  0  0  0
  1  2  3  0  0  0  0
  1  7  1  0  0  0  0
  2 15  1  0  0  0  0
  3  4  1  0  0  0  0
  3  9  2  0  0  0  0
  4 10  2  0  0  0  0
  5  8  2  0  0  0  0
  5 10  1  0  0  0  0
  6  7  2  0  0  0  0
  6 17  1  0  0  0  0
  7  8  1  0  0  0  0
  8  9  1  0  0  0  0
  9 17  1  0  0  0  0
 10 21  1  0  0  0  0
 11 17  1  0  0  0  0
 11 18  2  0  0  0  0
 11 20  1  0  0  0  0
 12 16  1  0  0  0  0
 13 16  1  0  0  0  0
 14 16  1  0  0  0  0
 15 19  1  0  0  0  0
 16 20  1  0  0  0  0
  3 22  1  0  0  0  0
  4 23  1  0  0  0  0
  5 24  1  0  0  0  0
  6 25  1  0  0  0  0
 12 26  1  0  0  0  0
 12 27  1  0  0  0  0
 12 28  1  0  0  0  0
 13 29  1  0  0  0  0
 13 30  1  0  0  0  0
 13 31  1  0  0  0  0
 14 32  1  0  0  0  0
 14 33  1  0  0  0  0
 14 34  1  0  0  0  0
 15 35  1  0  0  0  0
 15 36  1  0  0  0  0
 19 37  1  0  0  0  0
M  END
> <id>
EN300-697694

> <smiles>
CC(C)(C)OC(=O)N1C=C(C#CCO)C=2C=C(F)C=CC12

> <MDLNUMBER>
MFCD31431495

> <IUPAC Name>
tert-butyl 5-fluoro-3-(3-hydroxyprop-1-yn-1-yl)-1H-indole-1-carboxylate

> <CAS>
2138413-58-6

> <URL>
https://www.enaminestore.com/catalog/EN300-697694

> <ROCS_ShapeQuery>
_x0404_0B

> <ROCS_TanimotoCombo>
0.398 

> <ROCS_ShapeTanimoto>
0.282 

> <ROCS_ColorTanimoto>
0.116 

> <ROCS_RefTversky>
0.261 

> <ROCS_RefColorTversky>
0.118 

> <ROCS_RefTverskyCombo>
0.379 

> <ROCS_FitTversky>
1.396 

> <ROCS_FitColorTversky>
0.893 

> <ROCS_FitTverskyCombo>
2.289 

> <ROCS_ColorScore>
-8.484

> <ROCS_Overlap>
1740.708

> <ROCS_Rank>
130                 

$$$$
untitled-dbase-4218_208
  -OEChem-08212314543D

 38 39  0     0  0  0  0  0  0999 V2000
   -8.8958    5.5024   -7.5619 C   0  0  0  0  0  0  0  0  0  0  0  0
   -9.0501    4.2537   -9.9541 C   0  0  0  0  0  0  0  0  0  0  0  0
   -8.9558    5.6401   -9.8608 C   0  0  0  0  0  0  0  0  0  0  0  0
   -9.0895    3.5808   -8.7346 C   0  0  0  0  0  0  0  0  0  0  0  0
   -8.2894    5.4817  -14.3457 C   0  0  0  0  0  0  0  0  0  0  0  0
   -9.1697    3.4602  -11.2240 C   0  0  0  0  0  0  0  0  0  0  0  0
   -8.9139    6.5745  -11.0405 C   0  0  0  0  0  0  0  0  0  0  0  0
   -8.2915    3.9304  -12.3806 C   0  0  0  0  0  0  0  0  0  0  0  0
   -9.5848    6.0944  -12.3227 C   0  0  0  0  0  0  0  0  0  0  0  0
   -7.2404    5.6371  -17.0044 C   0  0  0  0  0  0  0  0  0  0  0  0
   -7.7373    3.1791  -17.1466 C   0  0  0  0  0  0  0  0  0  0  0  0
   -9.6110    4.8160  -16.8031 C   0  0  0  0  0  0  0  0  0  0  0  0
   -8.1432    4.5072  -16.5114 C   0  0  0  0  0  0  0  0  0  0  0  0
   -8.8624    6.2747   -8.6619 N   0  0  0  0  0  0  0  0  0  0  0  0
   -9.0114    4.1690   -7.5247 N   0  0  0  0  0  0  0  0  0  0  0  0
   -8.7462    5.1478  -13.0601 N   0  0  0  0  0  0  0  0  0  0  0  0
   -8.1697    6.6307  -14.7666 O   0  0  0  0  0  0  0  0  0  0  0  0
   -9.2147    2.2139   -8.7045 O   0  0  0  0  0  0  0  0  0  0  0  0
   -7.9775    4.3765  -15.0949 O   0  0  0  0  0  0  0  0  0  0  0  0
   -8.8231    6.0124   -6.6101 H   0  0  0  0  0  0  0  0  0  0  0  0
   -8.9203    2.3991  -11.0425 H   0  0  0  0  0  0  0  0  0  0  0  0
  -10.2334    3.4377  -11.5299 H   0  0  0  0  0  0  0  0  0  0  0  0
   -9.3182    7.5648  -10.7326 H   0  0  0  0  0  0  0  0  0  0  0  0
   -7.8473    6.7847  -11.2774 H   0  0  0  0  0  0  0  0  0  0  0  0
   -7.2403    4.0925  -12.0540 H   0  0  0  0  0  0  0  0  0  0  0  0
   -8.2354    3.1144  -13.1322 H   0  0  0  0  0  0  0  0  0  0  0  0
  -10.5377    5.6136  -12.0657 H   0  0  0  0  0  0  0  0  0  0  0  0
   -9.8310    6.9322  -12.9913 H   0  0  0  0  0  0  0  0  0  0  0  0
   -7.5285    6.5922  -16.5507 H   0  0  0  0  0  0  0  0  0  0  0  0
   -6.1884    5.4442  -16.7701 H   0  0  0  0  0  0  0  0  0  0  0  0
   -7.3351    5.7687  -18.0883 H   0  0  0  0  0  0  0  0  0  0  0  0
   -8.3825    2.3655  -16.7957 H   0  0  0  0  0  0  0  0  0  0  0  0
   -6.7146    2.9066  -16.8618 H   0  0  0  0  0  0  0  0  0  0  0  0
   -7.7938    3.2197  -18.2392 H   0  0  0  0  0  0  0  0  0  0  0  0
  -10.2588    4.0057  -16.4496 H   0  0  0  0  0  0  0  0  0  0  0  0
   -9.9301    5.7474  -16.3242 H   0  0  0  0  0  0  0  0  0  0  0  0
   -9.7841    4.9020  -17.8819 H   0  0  0  0  0  0  0  0  0  0  0  0
   -9.2260    1.9077   -7.7871 H   0  0  0  0  0  0  0  0  0  0  0  0
  1 14  1  0  0  0  0
  1 15  2  0  0  0  0
  2  3  1  0  0  0  0
  2  4  2  0  0  0  0
  2  6  1  0  0  0  0
  3  7  1  0  0  0  0
  3 14  2  0  0  0  0
  4 15  1  0  0  0  0
  4 18  1  0  0  0  0
  5 16  1  0  0  0  0
  5 17  2  0  0  0  0
  5 19  1  0  0  0  0
  6  8  1  0  0  0  0
  7  9  1  0  0  0  0
  8 16  1  0  0  0  0
  9 16  1  0  0  0  0
 10 13  1  0  0  0  0
 11 13  1  0  0  0  0
 12 13  1  0  0  0  0
 13 19  1  0  0  0  0
  1 20  1  0  0  0  0
  6 21  1  0  0  0  0
  6 22  1  0  0  0  0
  7 23  1  0  0  0  0
  7 24  1  0  0  0  0
  8 25  1  0  0  0  0
  8 26  1  0  0  0  0
  9 27  1  0  0  0  0
  9 28  1  0  0  0  0
 10 29  1  0  0  0  0
 10 30  1  0  0  0  0
 10 31  1  0  0  0  0
 11 32  1  0  0  0  0
 11 33  1  0  0  0  0
 11 34  1  0  0  0  0
 12 35  1  0  0  0  0
 12 36  1  0  0  0  0
 12 37  1  0  0  0  0
 18 38  1  0  0  0  0
M  END
> <id>
EN300-176074

> <smiles>
CC(C)(C)OC(=O)N1CCC=2N=CN=C(O)C2CC1

> <MDLNUMBER>
MFCD24384831

> <IUPAC Name>
tert-butyl 4-hydroxy-5H,6H,7H,8H,9H-pyrimido[4,5-d]azepine-7-carboxylate

> <CAS>
951134-38-6

> <Purity>
95

> <URL>
https://www.enaminestore.com/catalog/EN300-176074

> <ROCS_ShapeQuery>
_x0404_0B

> <ROCS_TanimotoCombo>
0.398 

> <ROCS_ShapeTanimoto>
0.308 

> <ROCS_ColorTanimoto>
0.090 

> <ROCS_RefTversky>
0.276 

> <ROCS_RefColorTversky>
0.095 

> <ROCS_RefTverskyCombo>
0.372 

> <ROCS_FitTversky>
1.592 

> <ROCS_FitColorTversky>
0.605 

> <ROCS_FitTverskyCombo>
2.197 

> <ROCS_ColorScore>
-6.894

> <ROCS_Overlap>
1841.670

> <ROCS_Rank>
131                 

$$$$
untitled-dbase-9792_99
  -OEChem-08212314543D

 40 42  0     0  0  0  0  0  0999 V2000
   -8.8313    5.6454   -8.8235 C   0  0  0  0  0  0  0  0  0  0  0  0
   -9.0044    4.4061   -8.2082 C   0  0  0  0  0  0  0  0  0  0  0  0
   -9.0928    3.3096  -10.3738 C   0  0  0  0  0  0  0  0  0  0  0  0
   -8.9216    4.5418  -10.9989 C   0  0  0  0  0  0  0  0  0  0  0  0
   -8.8113    5.6981  -10.2086 C   0  0  0  0  0  0  0  0  0  0  0  0
   -9.1375    3.2445   -8.9788 C   0  0  0  0  0  0  0  0  0  0  0  0
   -8.6311    4.1001  -15.7853 C   0  0  0  0  0  0  0  0  0  0  0  0
   -8.7603    6.4867  -12.4069 C   0  0  0  0  0  0  0  0  0  0  0  0
   -7.6877    4.2911  -13.3602 C   0  0  0  0  0  0  0  0  0  0  0  0
   -9.8162    4.3669  -13.5333 C   0  0  0  0  0  0  0  0  0  0  0  0
   -8.8104    4.9292  -12.5035 C   0  0  0  0  0  0  0  0  0  0  0  0
   -7.9758    6.5269  -16.7941 C   0  0  0  0  0  0  0  0  0  0  0  0
   -5.6414    5.6618  -17.1283 C   0  0  0  0  0  0  0  0  0  0  0  0
   -7.4804    4.9279  -18.6735 C   0  0  0  0  0  0  0  0  0  0  0  0
   -7.1292    5.3371  -17.2438 C   0  0  0  0  0  0  0  0  0  0  0  0
   -8.6015    6.8348  -10.9919 N   0  0  0  0  0  0  0  0  0  0  0  0
   -8.6766    4.1666  -14.4138 N   0  0  0  0  0  0  0  0  0  0  0  0
   -9.6384    3.9924  -16.4841 O   0  0  0  0  0  0  0  0  0  0  0  0
   -9.3200    2.0429   -8.3634 O   0  0  0  0  0  0  0  0  0  0  0  0
   -7.3992    4.2279  -16.3711 O   0  0  0  0  0  0  0  0  0  0  0  0
   -8.7129    6.5430   -8.2253 H   0  0  0  0  0  0  0  0  0  0  0  0
   -9.0399    4.3472   -7.1234 H   0  0  0  0  0  0  0  0  0  0  0  0
   -9.1968    2.4074  -10.9696 H   0  0  0  0  0  0  0  0  0  0  0  0
   -7.8996    6.8814  -12.9592 H   0  0  0  0  0  0  0  0  0  0  0  0
   -9.6656    6.9547  -12.8068 H   0  0  0  0  0  0  0  0  0  0  0  0
   -6.8468    4.9388  -13.6189 H   0  0  0  0  0  0  0  0  0  0  0  0
   -7.3185    3.3185  -13.0221 H   0  0  0  0  0  0  0  0  0  0  0  0
  -10.3019    3.4216  -13.2689 H   0  0  0  0  0  0  0  0  0  0  0  0
  -10.5600    5.0678  -13.9228 H   0  0  0  0  0  0  0  0  0  0  0  0
   -9.0444    6.2978  -16.8755 H   0  0  0  0  0  0  0  0  0  0  0  0
   -7.7584    6.8082  -15.7585 H   0  0  0  0  0  0  0  0  0  0  0  0
   -7.7968    7.3984  -17.4342 H   0  0  0  0  0  0  0  0  0  0  0  0
   -5.0302    4.8109  -17.4499 H   0  0  0  0  0  0  0  0  0  0  0  0
   -5.3657    5.8637  -16.0869 H   0  0  0  0  0  0  0  0  0  0  0  0
   -5.3697    6.5325  -17.7339 H   0  0  0  0  0  0  0  0  0  0  0  0
   -6.8732    4.0744  -18.9964 H   0  0  0  0  0  0  0  0  0  0  0  0
   -8.5367    4.6557  -18.7672 H   0  0  0  0  0  0  0  0  0  0  0  0
   -7.2671    5.7422  -19.3754 H   0  0  0  0  0  0  0  0  0  0  0  0
   -8.0566    7.6229  -10.6714 H   0  0  0  0  0  0  0  0  0  0  0  0
   -9.3950    1.3362   -9.0237 H   0  0  0  0  0  0  0  0  0  0  0  0
  1  2  1  0  0  0  0
  1  5  2  0  0  0  0
  2  6  2  0  0  0  0
  3  4  2  0  0  0  0
  3  6  1  0  0  0  0
  4  5  1  0  0  0  0
  4 11  1  0  0  0  0
  5 16  1  0  0  0  0
  6 19  1  0  0  0  0
  7 17  1  0  0  0  0
  7 18  2  0  0  0  0
  7 20  1  0  0  0  0
  8 11  1  0  0  0  0
  8 16  1  0  0  0  0
  9 11  1  0  0  0  0
  9 17  1  0  0  0  0
 10 11  1  0  0  0  0
 10 17  1  0  0  0  0
 12 15  1  0  0  0  0
 13 15  1  0  0  0  0
 14 15  1  0  0  0  0
 15 20  1  0  0  0  0
  1 21  1  0  0  0  0
  2 22  1  0  0  0  0
  3 23  1  0  0  0  0
  8 24  1  0  0  0  0
  8 25  1  0  0  0  0
  9 26  1  0  0  0  0
  9 27  1  0  0  0  0
 10 28  1  0  0  0  0
 10 29  1  0  0  0  0
 12 30  1  0  0  0  0
 12 31  1  0  0  0  0
 12 32  1  0  0  0  0
 13 33  1  0  0  0  0
 13 34  1  0  0  0  0
 13 35  1  0  0  0  0
 14 36  1  0  0  0  0
 14 37  1  0  0  0  0
 14 38  1  0  0  0  0
 16 39  1  0  0  0  0
 19 40  1  0  0  0  0
M  END
> <id>
EN300-338955

> <smiles>
CC(C)(C)OC(=O)N1CC2(C1)CNC=3C=CC(O)=CC32

> <MDLNUMBER>
MFCD30499991

> <IUPAC Name>
tert-butyl 5'-hydroxy-1',2'-dihydrospiro[azetidine-3,3'-indole]-1-carboxylate

> <CAS>
2060058-24-2

> <URL>
https://www.enaminestore.com/catalog/EN300-338955

> <ROCS_ShapeQuery>
_x0404_0B

> <ROCS_TanimotoCombo>
0.398 

> <ROCS_ShapeTanimoto>
0.334 

> <ROCS_ColorTanimoto>
0.064 

> <ROCS_RefTversky>
0.296 

> <ROCS_RefColorTversky>
0.069 

> <ROCS_RefTverskyCombo>
0.365 

> <ROCS_FitTversky>
1.631 

> <ROCS_FitColorTversky>
0.439 

> <ROCS_FitTverskyCombo>
2.070 

> <ROCS_ColorScore>
-5.000

> <ROCS_Overlap>
1973.345

> <ROCS_Rank>
132                 

$$$$
untitled-dbase-50951_29
  -OEChem-08212314543D

 46 48  0     0  0  0  0  0  0999 V2000
   -8.8286    5.2192  -11.3260 C   0  0  0  0  0  0  0  0  0  0  0  0
   -8.0350    4.0548  -14.7476 C   0  0  0  0  0  0  0  0  0  0  0  0
   -9.4970    6.1525  -14.9338 C   0  0  0  0  0  0  0  0  0  0  0  0
   -9.5110    5.6071  -17.9742 C   0  0  0  0  0  0  0  0  0  0  0  0
   -8.3115    3.9097  -17.8538 C   0  0  0  0  0  0  0  0  0  0  0  0
   -8.8028    3.9220  -13.4370 C   0  0  0  0  0  0  0  0  0  0  0  0
   -8.9619    6.4184  -13.5292 C   0  0  0  0  0  0  0  0  0  0  0  0
   -9.3865    4.4993  -16.8802 C   0  0  0  0  0  0  0  0  0  0  0  0
   -8.6554    5.1069  -15.6778 C   0  0  0  0  0  0  0  0  0  0  0  0
   -7.9378    5.4501  -17.8116 C   0  0  0  0  0  0  0  0  0  0  0  0
   -6.9866    6.0499  -18.8014 C   0  0  0  0  0  0  0  0  0  0  0  0
   -9.9714    4.5072   -8.8018 C   0  0  0  0  0  0  0  0  0  0  0  0
   -8.5841    2.4200   -8.9704 C   0  0  0  0  0  0  0  0  0  0  0  0
   -7.4603    4.6638   -8.8686 C   0  0  0  0  0  0  0  0  0  0  0  0
   -8.6865    3.8940   -9.3567 C   0  0  0  0  0  0  0  0  0  0  0  0
   -8.8712    5.1969  -12.7238 N   0  0  0  0  0  0  0  0  0  0  0  0
  -10.5583    3.6728  -16.7642 N   0  0  0  0  0  0  0  0  0  0  0  0
   -8.8801    6.2427  -10.6467 O   0  0  0  0  0  0  0  0  0  0  0  0
   -7.6034    5.7749  -16.4215 O   0  0  0  0  0  0  0  0  0  0  0  0
   -8.7291    3.9633  -10.7865 O   0  0  0  0  0  0  0  0  0  0  0  0
   -6.9971    4.3069  -14.4992 H   0  0  0  0  0  0  0  0  0  0  0  0
   -8.0110    3.0797  -15.2535 H   0  0  0  0  0  0  0  0  0  0  0  0
  -10.5377    5.8117  -14.8645 H   0  0  0  0  0  0  0  0  0  0  0  0
   -9.5080    7.1076  -15.4691 H   0  0  0  0  0  0  0  0  0  0  0  0
   -9.9366    5.3294  -18.9467 H   0  0  0  0  0  0  0  0  0  0  0  0
   -9.9285    6.5722  -17.6775 H   0  0  0  0  0  0  0  0  0  0  0  0
   -7.5702    3.2239  -17.4367 H   0  0  0  0  0  0  0  0  0  0  0  0
   -8.6521    3.5085  -18.8167 H   0  0  0  0  0  0  0  0  0  0  0  0
   -9.8096    3.5353  -13.6338 H   0  0  0  0  0  0  0  0  0  0  0  0
   -8.3074    3.2043  -12.7697 H   0  0  0  0  0  0  0  0  0  0  0  0
   -7.9464    6.8446  -13.5793 H   0  0  0  0  0  0  0  0  0  0  0  0
   -9.5901    7.1750  -13.0367 H   0  0  0  0  0  0  0  0  0  0  0  0
   -5.9428    5.8403  -18.5284 H   0  0  0  0  0  0  0  0  0  0  0  0
   -7.1037    7.1414  -18.8554 H   0  0  0  0  0  0  0  0  0  0  0  0
   -7.1544    5.6467  -19.8100 H   0  0  0  0  0  0  0  0  0  0  0  0
  -10.0486    5.5652   -9.0769 H   0  0  0  0  0  0  0  0  0  0  0  0
  -10.8600    3.9858   -9.1723 H   0  0  0  0  0  0  0  0  0  0  0  0
   -9.9805    4.4713   -7.7064 H   0  0  0  0  0  0  0  0  0  0  0  0
   -7.6637    1.9759   -9.3665 H   0  0  0  0  0  0  0  0  0  0  0  0
   -9.4133    1.8457   -9.3991 H   0  0  0  0  0  0  0  0  0  0  0  0
   -8.5944    2.2855   -7.8840 H   0  0  0  0  0  0  0  0  0  0  0  0
   -6.5385    4.2241   -9.2665 H   0  0  0  0  0  0  0  0  0  0  0  0
   -7.4988    5.7160   -9.1687 H   0  0  0  0  0  0  0  0  0  0  0  0
   -7.3794    4.6160   -7.7766 H   0  0  0  0  0  0  0  0  0  0  0  0
  -10.3139    2.7212  -16.9485 H   0  0  0  0  0  0  0  0  0  0  0  0
  -10.9285    3.7494  -15.8388 H   0  0  0  0  0  0  0  0  0  0  0  0
  1 16  1  0  0  0  0
  1 18  2  0  0  0  0
  1 20  1  0  0  0  0
  2  6  1  0  0  0  0
  2  9  1  0  0  0  0
  3  7  1  0  0  0  0
  3  9  1  0  0  0  0
  4  8  1  0  0  0  0
  4 10  1  0  0  0  0
  5  8  1  0  0  0  0
  5 10  1  0  0  0  0
  6 16  1  0  0  0  0
  7 16  1  0  0  0  0
  8  9  1  0  0  0  0
  8 17  1  1  0  0  0
  9 19  1  0  0  0  0
 10 11  1  1  0  0  0
 10 19  1  0  0  0  0
 12 15  1  0  0  0  0
 13 15  1  0  0  0  0
 14 15  1  0  0  0  0
 15 20  1  0  0  0  0
  2 21  1  0  0  0  0
  2 22  1  0  0  0  0
  3 23  1  0  0  0  0
  3 24  1  0  0  0  0
  4 25  1  0  0  0  0
  4 26  1  0  0  0  0
  5 27  1  0  0  0  0
  5 28  1  0  0  0  0
  6 29  1  0  0  0  0
  6 30  1  0  0  0  0
  7 31  1  0  0  0  0
  7 32  1  0  0  0  0
 11 33  1  0  0  0  0
 11 34  1  0  0  0  0
 11 35  1  0  0  0  0
 12 36  1  0  0  0  0
 12 37  1  0  0  0  0
 12 38  1  0  0  0  0
 13 39  1  0  0  0  0
 13 40  1  0  0  0  0
 13 41  1  0  0  0  0
 14 42  1  0  0  0  0
 14 43  1  0  0  0  0
 14 44  1  0  0  0  0
 17 45  1  0  0  0  0
 17 46  1  0  0  0  0
M  END
> <id>
EN300-37375266

> <smiles>
CC(C)(C)OC(=O)N1CCC2(CC1)O[C@]3(C)C[C@@]2(N)C3

> <IUPAC Name>
tert-butyl 1-amino-4-methyl-3-oxaspiro[bicyclo[2.1.1]hexane-2,4'-piperidine]-1'-carboxylate

> <CAS>
2243513-67-7

> <URL>
https://www.enaminestore.com/catalog/EN300-37375266

> <ROCS_ShapeQuery>
_x0404_0B

> <ROCS_TanimotoCombo>
0.398 

> <ROCS_ShapeTanimoto>
0.335 

> <ROCS_ColorTanimoto>
0.063 

> <ROCS_RefTversky>
0.296 

> <ROCS_RefColorTversky>
0.072 

> <ROCS_RefTverskyCombo>
0.368 

> <ROCS_FitTversky>
1.643 

> <ROCS_FitColorTversky>
0.328 

> <ROCS_FitTverskyCombo>
1.971 

> <ROCS_ColorScore>
-5.213

> <ROCS_Overlap>
1975.120

> <ROCS_Rank>
133                 

$$$$
untitled-dbase-24522_14
  -OEChem-08212314543D

 46 48  0     0  0  0  0  0  0999 V2000
   -8.8243    5.2204  -11.3257 C   0  0  0  0  0  0  0  0  0  0  0  0
   -8.0298    4.0562  -14.7462 C   0  0  0  0  0  0  0  0  0  0  0  0
   -9.4978    6.1496  -14.9347 C   0  0  0  0  0  0  0  0  0  0  0  0
   -9.5093    5.6043  -17.9731 C   0  0  0  0  0  0  0  0  0  0  0  0
   -8.3106    3.9058  -17.8525 C   0  0  0  0  0  0  0  0  0  0  0  0
   -8.7975    3.9219  -13.4358 C   0  0  0  0  0  0  0  0  0  0  0  0
   -8.9666    6.4176  -13.5290 C   0  0  0  0  0  0  0  0  0  0  0  0
   -9.3845    4.4961  -16.8782 C   0  0  0  0  0  0  0  0  0  0  0  0
   -8.6523    5.1063  -15.6774 C   0  0  0  0  0  0  0  0  0  0  0  0
   -7.9364    5.4466  -17.8119 C   0  0  0  0  0  0  0  0  0  0  0  0
   -6.9863    6.0453  -18.8033 C   0  0  0  0  0  0  0  0  0  0  0  0
   -9.9588    4.5053   -8.7986 C   0  0  0  0  0  0  0  0  0  0  0  0
   -8.5629    2.4240   -8.9687 C   0  0  0  0  0  0  0  0  0  0  0  0
   -7.4485    4.6727   -8.8706 C   0  0  0  0  0  0  0  0  0  0  0  0
   -8.6725    3.8972   -9.3558 C   0  0  0  0  0  0  0  0  0  0  0  0
   -8.8700    5.1969  -12.7234 N   0  0  0  0  0  0  0  0  0  0  0  0
  -10.5612    3.6770  -16.7507 N   0  0  0  0  0  0  0  0  0  0  0  0
   -8.8789    6.2443  -10.6471 O   0  0  0  0  0  0  0  0  0  0  0  0
   -7.6016    5.7740  -16.4226 O   0  0  0  0  0  0  0  0  0  0  0  0
   -8.7182    3.9655  -10.7856 O   0  0  0  0  0  0  0  0  0  0  0  0
   -6.9928    4.3114  -14.4973 H   0  0  0  0  0  0  0  0  0  0  0  0
   -8.0031    3.0805  -15.2507 H   0  0  0  0  0  0  0  0  0  0  0  0
  -10.5383    5.8070  -14.8676 H   0  0  0  0  0  0  0  0  0  0  0  0
   -9.5103    7.1048  -15.4705 H   0  0  0  0  0  0  0  0  0  0  0  0
   -9.9367    5.3261  -18.9447 H   0  0  0  0  0  0  0  0  0  0  0  0
   -9.9263    6.5694  -17.6757 H   0  0  0  0  0  0  0  0  0  0  0  0
   -7.5684    3.2204  -17.4366 H   0  0  0  0  0  0  0  0  0  0  0  0
   -8.6523    3.5044  -18.8149 H   0  0  0  0  0  0  0  0  0  0  0  0
   -9.8031    3.5317  -13.6324 H   0  0  0  0  0  0  0  0  0  0  0  0
   -8.2996    3.2062  -12.7681 H   0  0  0  0  0  0  0  0  0  0  0  0
   -7.9536    6.8508  -13.5768 H   0  0  0  0  0  0  0  0  0  0  0  0
   -9.6003    7.1706  -13.0373 H   0  0  0  0  0  0  0  0  0  0  0  0
   -5.9423    5.8355  -18.5314 H   0  0  0  0  0  0  0  0  0  0  0  0
   -7.1031    7.1367  -18.8580 H   0  0  0  0  0  0  0  0  0  0  0  0
   -7.1555    5.6413  -19.8113 H   0  0  0  0  0  0  0  0  0  0  0  0
  -10.0412    5.5628   -9.0742 H   0  0  0  0  0  0  0  0  0  0  0  0
  -10.8459    3.9798   -9.1669 H   0  0  0  0  0  0  0  0  0  0  0  0
   -9.9655    4.4700   -7.7032 H   0  0  0  0  0  0  0  0  0  0  0  0
   -7.6414    1.9836   -9.3664 H   0  0  0  0  0  0  0  0  0  0  0  0
   -9.3905    1.8458   -9.3954 H   0  0  0  0  0  0  0  0  0  0  0  0
   -8.5703    2.2901   -7.8822 H   0  0  0  0  0  0  0  0  0  0  0  0
   -6.5257    4.2367   -9.2701 H   0  0  0  0  0  0  0  0  0  0  0  0
   -7.4922    5.7245   -9.1714 H   0  0  0  0  0  0  0  0  0  0  0  0
   -7.3652    4.6259   -7.7788 H   0  0  0  0  0  0  0  0  0  0  0  0
  -11.3420    4.2517  -16.5069 H   0  0  0  0  0  0  0  0  0  0  0  0
  -10.7426    3.2184  -17.6202 H   0  0  0  0  0  0  0  0  0  0  0  0
  1 16  1  0  0  0  0
  1 18  2  0  0  0  0
  1 20  1  0  0  0  0
  2  6  1  0  0  0  0
  2  9  1  0  0  0  0
  3  7  1  0  0  0  0
  3  9  1  0  0  0  0
  4  8  1  0  0  0  0
  4 10  1  0  0  0  0
  5  8  1  0  0  0  0
  5 10  1  0  0  0  0
  6 16  1  0  0  0  0
  7 16  1  0  0  0  0
  8  9  1  0  0  0  0
  8 17  1  0  0  0  0
  9 19  1  0  0  0  0
 10 11  1  0  0  0  0
 10 19  1  0  0  0  0
 12 15  1  0  0  0  0
 13 15  1  0  0  0  0
 14 15  1  0  0  0  0
 15 20  1  0  0  0  0
  2 21  1  0  0  0  0
  2 22  1  0  0  0  0
  3 23  1  0  0  0  0
  3 24  1  0  0  0  0
  4 25  1  0  0  0  0
  4 26  1  0  0  0  0
  5 27  1  0  0  0  0
  5 28  1  0  0  0  0
  6 29  1  0  0  0  0
  6 30  1  0  0  0  0
  7 31  1  0  0  0  0
  7 32  1  0  0  0  0
 11 33  1  0  0  0  0
 11 34  1  0  0  0  0
 11 35  1  0  0  0  0
 12 36  1  0  0  0  0
 12 37  1  0  0  0  0
 12 38  1  0  0  0  0
 13 39  1  0  0  0  0
 13 40  1  0  0  0  0
 13 41  1  0  0  0  0
 14 42  1  0  0  0  0
 14 43  1  0  0  0  0
 14 44  1  0  0  0  0
 17 45  1  0  0  0  0
 17 46  1  0  0  0  0
M  END
> <id>
EN300-6487841

> <smiles>
CC(C)(C)OC(=O)N1CCC2(CC1)OC3(C)CC2(N)C3

> <MDLNUMBER>
MFCD31668022

> <IUPAC Name>
tert-butyl 1-amino-4-methyl-3-oxaspiro[bicyclo[2.1.1]hexane-2,4'-piperidine]-1'-carboxylate

> <CAS>
2243513-67-7

> <Purity>
95

> <URL>
https://www.enaminestore.com/catalog/EN300-6487841

> <ROCS_ShapeQuery>
_x0404_0B

> <ROCS_TanimotoCombo>
0.398 

> <ROCS_ShapeTanimoto>
0.335 

> <ROCS_ColorTanimoto>
0.063 

> <ROCS_RefTversky>
0.296 

> <ROCS_RefColorTversky>
0.072 

> <ROCS_RefTverskyCombo>
0.368 

> <ROCS_FitTversky>
1.643 

> <ROCS_FitColorTversky>
0.328 

> <ROCS_FitTverskyCombo>
1.971 

> <ROCS_ColorScore>
-5.212

> <ROCS_Overlap>
1974.684

> <ROCS_Rank>
134                 

$$$$
untitled-dbase-2626_6
  -OEChem-08212314543D

 37 38  0     0  0  0  0  0  0999 V2000
   -9.2061    3.2109  -10.1430 C   0  0  0  0  0  0  0  0  0  0  0  0
   -8.9491    4.4707   -8.1468 C   0  0  0  0  0  0  0  0  0  0  0  0
   -9.0390    4.3856  -10.8814 C   0  0  0  0  0  0  0  0  0  0  0  0
   -9.1612    3.2468   -8.7547 C   0  0  0  0  0  0  0  0  0  0  0  0
   -8.8410    5.5732  -10.1734 C   0  0  0  0  0  0  0  0  0  0  0  0
   -8.3774    5.7525  -14.3448 C   0  0  0  0  0  0  0  0  0  0  0  0
   -9.0962    4.3468  -12.3837 C   0  0  0  0  0  0  0  0  0  0  0  0
   -8.6315    6.8663  -10.9123 C   0  0  0  0  0  0  0  0  0  0  0  0
   -9.2649    6.8341  -12.2973 C   0  0  0  0  0  0  0  0  0  0  0  0
   -7.3846    5.4459  -17.0113 C   0  0  0  0  0  0  0  0  0  0  0  0
   -8.1253    3.0538  -16.8146 C   0  0  0  0  0  0  0  0  0  0  0  0
   -9.8190    4.9031  -16.6740 C   0  0  0  0  0  0  0  0  0  0  0  0
   -8.3821    4.4889  -16.3600 C   0  0  0  0  0  0  0  0  0  0  0  0
   -8.7852    5.6309   -8.8196 N   0  0  0  0  0  0  0  0  0  0  0  0
   -8.8444    5.6413  -13.0301 N   0  0  0  0  0  0  0  0  0  0  0  0
   -9.3244    2.0776   -7.9944 N   0  0  0  0  0  0  0  0  0  0  0  0
   -8.1563    6.8186  -14.9159 O   0  0  0  0  0  0  0  0  0  0  0  0
   -8.1949    4.5320  -14.9407 O   0  0  0  0  0  0  0  0  0  0  0  0
   -9.3706    2.2672  -10.6587 H   0  0  0  0  0  0  0  0  0  0  0  0
   -8.9011    4.5636   -7.0660 H   0  0  0  0  0  0  0  0  0  0  0  0
   -8.3715    3.6128  -12.7522 H   0  0  0  0  0  0  0  0  0  0  0  0
  -10.0970    4.0299  -12.7007 H   0  0  0  0  0  0  0  0  0  0  0  0
   -9.0600    7.6945  -10.3363 H   0  0  0  0  0  0  0  0  0  0  0  0
   -7.5530    7.0455  -10.9982 H   0  0  0  0  0  0  0  0  0  0  0  0
  -10.3589    6.7965  -12.2242 H   0  0  0  0  0  0  0  0  0  0  0  0
   -9.0055    7.7436  -12.8486 H   0  0  0  0  0  0  0  0  0  0  0  0
   -7.5656    6.4771  -16.6875 H   0  0  0  0  0  0  0  0  0  0  0  0
   -6.3513    5.1804  -16.7651 H   0  0  0  0  0  0  0  0  0  0  0  0
   -7.4928    5.4408  -18.1019 H   0  0  0  0  0  0  0  0  0  0  0  0
   -8.8388    2.3638  -16.3497 H   0  0  0  0  0  0  0  0  0  0  0  0
   -7.1277    2.7196  -16.5073 H   0  0  0  0  0  0  0  0  0  0  0  0
   -8.2047    2.9541  -17.9019 H   0  0  0  0  0  0  0  0  0  0  0  0
  -10.5347    4.2168  -16.2070 H   0  0  0  0  0  0  0  0  0  0  0  0
  -10.0325    5.9174  -16.3217 H   0  0  0  0  0  0  0  0  0  0  0  0
  -10.0096    4.8617  -17.7525 H   0  0  0  0  0  0  0  0  0  0  0  0
   -9.2410    2.1218   -6.9959 H   0  0  0  0  0  0  0  0  0  0  0  0
   -9.4287    1.1957   -8.4608 H   0  0  0  0  0  0  0  0  0  0  0  0
  1  3  2  0  0  0  0
  1  4  1  0  0  0  0
  2  4  2  0  0  0  0
  2 14  1  0  0  0  0
  3  5  1  0  0  0  0
  3  7  1  0  0  0  0
  4 16  1  0  0  0  0
  5  8  1  0  0  0  0
  5 14  2  0  0  0  0
  6 15  1  0  0  0  0
  6 17  2  0  0  0  0
  6 18  1  0  0  0  0
  7 15  1  0  0  0  0
  8  9  1  0  0  0  0
  9 15  1  0  0  0  0
 10 13  1  0  0  0  0
 11 13  1  0  0  0  0
 12 13  1  0  0  0  0
 13 18  1  0  0  0  0
  1 19  1  0  0  0  0
  2 20  1  0  0  0  0
  7 21  1  0  0  0  0
  7 22  1  0  0  0  0
  8 23  1  0  0  0  0
  8 24  1  0  0  0  0
  9 25  1  0  0  0  0
  9 26  1  0  0  0  0
 10 27  1  0  0  0  0
 10 28  1  0  0  0  0
 10 29  1  0  0  0  0
 11 30  1  0  0  0  0
 11 31  1  0  0  0  0
 11 32  1  0  0  0  0
 12 33  1  0  0  0  0
 12 34  1  0  0  0  0
 12 35  1  0  0  0  0
 16 36  1  0  0  0  0
 16 37  1  0  0  0  0
M  END
> <id>
EN300-125527

> <smiles>
CC(C)(C)OC(=O)N1CCC=2N=CC(N)=CC2C1

> <MDLNUMBER>
MFCD07371643

> <IUPAC Name>
tert-butyl 3-amino-5,6,7,8-tetrahydro-1,6-naphthyridine-6-carboxylate

> <CAS>
355819-02-2

> <Purity>
95

> <URL>
https://www.enaminestore.com/catalog/EN300-125527

> <MP>
117-119

> <ROCS_ShapeQuery>
_x0404_0B

> <ROCS_TanimotoCombo>
0.397 

> <ROCS_ShapeTanimoto>
0.307 

> <ROCS_ColorTanimoto>
0.090 

> <ROCS_RefTversky>
0.274 

> <ROCS_RefColorTversky>
0.094 

> <ROCS_RefTverskyCombo>
0.369 

> <ROCS_FitTversky>
1.643 

> <ROCS_FitColorTversky>
0.653 

> <ROCS_FitTverskyCombo>
2.297 

> <ROCS_ColorScore>
-6.818

> <ROCS_Overlap>
1828.719

> <ROCS_Rank>
135                 

$$$$
untitled-dbase-42134_802
  -OEChem-08212314543D

 51 51  0     0  0  0  0  0  0999 V2000
   -8.8967    5.5366  -14.8423 C   0  0  0  0  0  0  0  0  0  0  0  0
   -8.4963    4.6834   -9.6710 C   0  0  0  0  0  0  0  0  0  0  0  0
   -9.6087    6.1524  -12.5476 C   0  0  0  0  0  0  0  0  0  0  0  0
   -8.4477    6.2866  -11.5654 C   0  0  0  0  0  0  0  0  0  0  0  0
   -9.5313    3.7402  -13.1916 C   0  0  0  0  0  0  0  0  0  0  0  0
   -7.3430    4.0665  -11.8217 C   0  0  0  0  0  0  0  0  0  0  0  0
   -8.2767    3.0994  -12.5675 C   0  0  0  0  0  0  0  0  0  0  0  0
   -7.3460    5.0073  -17.1883 C   0  0  0  0  0  0  0  0  0  0  0  0
   -9.4376    3.9664  -18.1109 C   0  0  0  0  0  0  0  0  0  0  0  0
   -9.4092    6.4087  -17.5257 C   0  0  0  0  0  0  0  0  0  0  0  0
  -10.4612    3.5607   -7.9204 C   0  0  0  0  0  0  0  0  0  0  0  0
   -9.2290    1.3935   -8.2277 C   0  0  0  0  0  0  0  0  0  0  0  0
   -8.0686    3.3525   -7.1675 C   0  0  0  0  0  0  0  0  0  0  0  0
   -8.8737    5.0240  -17.1644 C   0  0  0  0  0  0  0  0  0  0  0  0
   -9.1050    2.9154   -8.2018 C   0  0  0  0  0  0  0  0  0  0  0  0
   -9.3633    5.1446  -13.5825 N   0  0  0  0  0  0  0  0  0  0  0  0
   -8.0689    5.0076  -10.9632 N   0  0  0  0  0  0  0  0  0  0  0  0
   -7.5110    2.3858  -13.5947 N   0  0  0  0  0  0  0  0  0  0  0  0
   -8.1880    6.5213  -15.0431 O   0  0  0  0  0  0  0  0  0  0  0  0
   -8.7099    5.5074   -8.7837 O   0  0  0  0  0  0  0  0  0  0  0  0
   -9.3123    4.6965  -15.8411 O   0  0  0  0  0  0  0  0  0  0  0  0
   -8.6611    3.3343   -9.4972 O   0  0  0  0  0  0  0  0  0  0  0  0
  -10.5153    5.8793  -11.9957 H   0  0  0  0  0  0  0  0  0  0  0  0
   -9.8136    7.1112  -13.0371 H   0  0  0  0  0  0  0  0  0  0  0  0
   -7.5713    6.6787  -12.0778 H   0  0  0  0  0  0  0  0  0  0  0  0
   -8.7211    6.9912  -10.7837 H   0  0  0  0  0  0  0  0  0  0  0  0
   -9.8522    3.1812  -14.0886 H   0  0  0  0  0  0  0  0  0  0  0  0
  -10.3724    3.6591  -12.4824 H   0  0  0  0  0  0  0  0  0  0  0  0
   -6.6420    3.4957  -11.1907 H   0  0  0  0  0  0  0  0  0  0  0  0
   -6.7136    4.6416  -12.5218 H   0  0  0  0  0  0  0  0  0  0  0  0
   -8.6186    2.3155  -11.8351 H   0  0  0  0  0  0  0  0  0  0  0  0
   -6.9374    5.7650  -16.5101 H   0  0  0  0  0  0  0  0  0  0  0  0
   -6.9487    4.0295  -16.8971 H   0  0  0  0  0  0  0  0  0  0  0  0
   -6.9679    5.2508  -18.1878 H   0  0  0  0  0  0  0  0  0  0  0  0
  -10.5334    3.9748  -18.0969 H   0  0  0  0  0  0  0  0  0  0  0  0
   -9.1326    2.9610  -17.7989 H   0  0  0  0  0  0  0  0  0  0  0  0
   -9.1027    4.1263  -19.1409 H   0  0  0  0  0  0  0  0  0  0  0  0
  -10.5050    6.4210  -17.5086 H   0  0  0  0  0  0  0  0  0  0  0  0
   -9.0443    7.1753  -16.8343 H   0  0  0  0  0  0  0  0  0  0  0  0
   -9.1127    6.6879  -18.5432 H   0  0  0  0  0  0  0  0  0  0  0  0
  -10.3765    4.6531   -7.9010 H   0  0  0  0  0  0  0  0  0  0  0  0
  -11.2044    3.2829   -8.6750 H   0  0  0  0  0  0  0  0  0  0  0  0
  -10.8394    3.2624   -6.9359 H   0  0  0  0  0  0  0  0  0  0  0  0
   -8.2582    0.9264   -8.4293 H   0  0  0  0  0  0  0  0  0  0  0  0
   -9.9000    1.0703   -9.0318 H   0  0  0  0  0  0  0  0  0  0  0  0
   -9.6113    1.0031   -7.2791 H   0  0  0  0  0  0  0  0  0  0  0  0
   -7.0957    2.8899   -7.3691 H   0  0  0  0  0  0  0  0  0  0  0  0
   -7.9394    4.4397   -7.1606 H   0  0  0  0  0  0  0  0  0  0  0  0
   -8.3618    3.0303   -6.1618 H   0  0  0  0  0  0  0  0  0  0  0  0
   -6.7477    1.9379  -13.1495 H   0  0  0  0  0  0  0  0  0  0  0  0
   -8.1139    1.7233  -14.0179 H   0  0  0  0  0  0  0  0  0  0  0  0
  1 16  1  0  0  0  0
  1 19  2  0  0  0  0
  1 21  1  0  0  0  0
  2 17  1  0  0  0  0
  2 20  2  0  0  0  0
  2 22  1  0  0  0  0
  3  4  1  0  0  0  0
  3 16  1  0  0  0  0
  4 17  1  0  0  0  0
  5  7  1  0  0  0  0
  5 16  1  0  0  0  0
  6  7  1  0  0  0  0
  6 17  1  0  0  0  0
  7 18  1  0  0  0  0
  8 14  1  0  0  0  0
  9 14  1  0  0  0  0
 10 14  1  0  0  0  0
 11 15  1  0  0  0  0
 12 15  1  0  0  0  0
 13 15  1  0  0  0  0
 14 21  1  0  0  0  0
 15 22  1  0  0  0  0
  3 23  1  0  0  0  0
  3 24  1  0  0  0  0
  4 25  1  0  0  0  0
  4 26  1  0  0  0  0
  5 27  1  0  0  0  0
  5 28  1  0  0  0  0
  6 29  1  0  0  0  0
  6 30  1  0  0  0  0
  7 31  1  0  0  0  0
  8 32  1  0  0  0  0
  8 33  1  0  0  0  0
  8 34  1  0  0  0  0
  9 35  1  0  0  0  0
  9 36  1  0  0  0  0
  9 37  1  0  0  0  0
 10 38  1  0  0  0  0
 10 39  1  0  0  0  0
 10 40  1  0  0  0  0
 11 41  1  0  0  0  0
 11 42  1  0  0  0  0
 11 43  1  0  0  0  0
 12 44  1  0  0  0  0
 12 45  1  0  0  0  0
 12 46  1  0  0  0  0
 13 47  1  0  0  0  0
 13 48  1  0  0  0  0
 13 49  1  0  0  0  0
 18 50  1  0  0  0  0
 18 51  1  0  0  0  0
M  END
> <id>
EN300-27694261

> <smiles>
Cl.CC(C)(C)OC(=O)N1CCN(CC(N)C1)C(=O)OC(C)(C)C

> <MDLNUMBER>
MFCD32879146

> <IUPAC Name>
1,4-di-tert-butyl 6-amino-1,4-diazepane-1,4-dicarboxylate hydrochloride

> <CAS>
2567498-23-9

> <Purity>
95

> <URL>
https://www.enaminestore.com/catalog/EN300-27694261

> <Saltdate>
Cl

> <ROCS_ShapeQuery>
_x0404_0B

> <ROCS_TanimotoCombo>
0.397 

> <ROCS_ShapeTanimoto>
0.335 

> <ROCS_ColorTanimoto>
0.062 

> <ROCS_RefTversky>
0.298 

> <ROCS_RefColorTversky>
0.067 

> <ROCS_RefTverskyCombo>
0.365 

> <ROCS_FitTversky>
1.587 

> <ROCS_FitColorTversky>
0.461 

> <ROCS_FitTverskyCombo>
2.048 

> <ROCS_ColorScore>
-4.813

> <ROCS_Overlap>
1991.192

> <ROCS_Rank>
136                 

$$$$
untitled-dbase-21708_802
  -OEChem-08212314543D

 51 51  0     0  0  0  0  0  0999 V2000
   -8.8967    5.5366  -14.8423 C   0  0  0  0  0  0  0  0  0  0  0  0
   -8.4963    4.6834   -9.6710 C   0  0  0  0  0  0  0  0  0  0  0  0
   -9.6087    6.1524  -12.5476 C   0  0  0  0  0  0  0  0  0  0  0  0
   -8.4477    6.2866  -11.5654 C   0  0  0  0  0  0  0  0  0  0  0  0
   -9.5313    3.7402  -13.1916 C   0  0  0  0  0  0  0  0  0  0  0  0
   -7.3430    4.0665  -11.8217 C   0  0  0  0  0  0  0  0  0  0  0  0
   -8.2767    3.0994  -12.5675 C   0  0  0  0  0  0  0  0  0  0  0  0
   -7.3460    5.0073  -17.1883 C   0  0  0  0  0  0  0  0  0  0  0  0
   -9.4376    3.9664  -18.1109 C   0  0  0  0  0  0  0  0  0  0  0  0
   -9.4092    6.4087  -17.5257 C   0  0  0  0  0  0  0  0  0  0  0  0
  -10.4612    3.5607   -7.9204 C   0  0  0  0  0  0  0  0  0  0  0  0
   -9.2290    1.3935   -8.2277 C   0  0  0  0  0  0  0  0  0  0  0  0
   -8.0686    3.3525   -7.1675 C   0  0  0  0  0  0  0  0  0  0  0  0
   -8.8737    5.0240  -17.1644 C   0  0  0  0  0  0  0  0  0  0  0  0
   -9.1050    2.9154   -8.2018 C   0  0  0  0  0  0  0  0  0  0  0  0
   -9.3633    5.1446  -13.5825 N   0  0  0  0  0  0  0  0  0  0  0  0
   -8.0689    5.0076  -10.9632 N   0  0  0  0  0  0  0  0  0  0  0  0
   -7.5110    2.3858  -13.5947 N   0  0  0  0  0  0  0  0  0  0  0  0
   -8.1880    6.5213  -15.0431 O   0  0  0  0  0  0  0  0  0  0  0  0
   -8.7099    5.5074   -8.7837 O   0  0  0  0  0  0  0  0  0  0  0  0
   -9.3123    4.6965  -15.8411 O   0  0  0  0  0  0  0  0  0  0  0  0
   -8.6611    3.3343   -9.4972 O   0  0  0  0  0  0  0  0  0  0  0  0
  -10.5153    5.8793  -11.9957 H   0  0  0  0  0  0  0  0  0  0  0  0
   -9.8136    7.1112  -13.0371 H   0  0  0  0  0  0  0  0  0  0  0  0
   -7.5713    6.6787  -12.0778 H   0  0  0  0  0  0  0  0  0  0  0  0
   -8.7211    6.9912  -10.7837 H   0  0  0  0  0  0  0  0  0  0  0  0
   -9.8522    3.1812  -14.0886 H   0  0  0  0  0  0  0  0  0  0  0  0
  -10.3724    3.6591  -12.4824 H   0  0  0  0  0  0  0  0  0  0  0  0
   -6.6420    3.4957  -11.1907 H   0  0  0  0  0  0  0  0  0  0  0  0
   -6.7136    4.6416  -12.5218 H   0  0  0  0  0  0  0  0  0  0  0  0
   -8.6186    2.3155  -11.8351 H   0  0  0  0  0  0  0  0  0  0  0  0
   -6.9374    5.7650  -16.5101 H   0  0  0  0  0  0  0  0  0  0  0  0
   -6.9487    4.0295  -16.8971 H   0  0  0  0  0  0  0  0  0  0  0  0
   -6.9679    5.2508  -18.1878 H   0  0  0  0  0  0  0  0  0  0  0  0
  -10.5334    3.9748  -18.0969 H   0  0  0  0  0  0  0  0  0  0  0  0
   -9.1326    2.9610  -17.7989 H   0  0  0  0  0  0  0  0  0  0  0  0
   -9.1027    4.1263  -19.1409 H   0  0  0  0  0  0  0  0  0  0  0  0
  -10.5050    6.4210  -17.5086 H   0  0  0  0  0  0  0  0  0  0  0  0
   -9.0443    7.1753  -16.8343 H   0  0  0  0  0  0  0  0  0  0  0  0
   -9.1127    6.6879  -18.5432 H   0  0  0  0  0  0  0  0  0  0  0  0
  -10.3765    4.6531   -7.9010 H   0  0  0  0  0  0  0  0  0  0  0  0
  -11.2044    3.2829   -8.6750 H   0  0  0  0  0  0  0  0  0  0  0  0
  -10.8394    3.2624   -6.9359 H   0  0  0  0  0  0  0  0  0  0  0  0
   -8.2582    0.9264   -8.4293 H   0  0  0  0  0  0  0  0  0  0  0  0
   -9.9000    1.0703   -9.0318 H   0  0  0  0  0  0  0  0  0  0  0  0
   -9.6113    1.0031   -7.2791 H   0  0  0  0  0  0  0  0  0  0  0  0
   -7.0957    2.8899   -7.3691 H   0  0  0  0  0  0  0  0  0  0  0  0
   -7.9394    4.4397   -7.1606 H   0  0  0  0  0  0  0  0  0  0  0  0
   -8.3618    3.0303   -6.1618 H   0  0  0  0  0  0  0  0  0  0  0  0
   -6.7477    1.9379  -13.1495 H   0  0  0  0  0  0  0  0  0  0  0  0
   -8.1139    1.7233  -14.0179 H   0  0  0  0  0  0  0  0  0  0  0  0
  1 16  1  0  0  0  0
  1 19  2  0  0  0  0
  1 21  1  0  0  0  0
  2 17  1  0  0  0  0
  2 20  2  0  0  0  0
  2 22  1  0  0  0  0
  3  4  1  0  0  0  0
  3 16  1  0  0  0  0
  4 17  1  0  0  0  0
  5  7  1  0  0  0  0
  5 16  1  0  0  0  0
  6  7  1  0  0  0  0
  6 17  1  0  0  0  0
  7 18  1  0  0  0  0
  8 14  1  0  0  0  0
  9 14  1  0  0  0  0
 10 14  1  0  0  0  0
 11 15  1  0  0  0  0
 12 15  1  0  0  0  0
 13 15  1  0  0  0  0
 14 21  1  0  0  0  0
 15 22  1  0  0  0  0
  3 23  1  0  0  0  0
  3 24  1  0  0  0  0
  4 25  1  0  0  0  0
  4 26  1  0  0  0  0
  5 27  1  0  0  0  0
  5 28  1  0  0  0  0
  6 29  1  0  0  0  0
  6 30  1  0  0  0  0
  7 31  1  0  0  0  0
  8 32  1  0  0  0  0
  8 33  1  0  0  0  0
  8 34  1  0  0  0  0
  9 35  1  0  0  0  0
  9 36  1  0  0  0  0
  9 37  1  0  0  0  0
 10 38  1  0  0  0  0
 10 39  1  0  0  0  0
 10 40  1  0  0  0  0
 11 41  1  0  0  0  0
 11 42  1  0  0  0  0
 11 43  1  0  0  0  0
 12 44  1  0  0  0  0
 12 45  1  0  0  0  0
 12 46  1  0  0  0  0
 13 47  1  0  0  0  0
 13 48  1  0  0  0  0
 13 49  1  0  0  0  0
 18 50  1  0  0  0  0
 18 51  1  0  0  0  0
M  END
> <id>
EN300-1168846

> <smiles>
CC(C)(C)OC(=O)N1CCN(CC(N)C1)C(=O)OC(C)(C)C

> <MDLNUMBER>
MFCD32878324

> <IUPAC Name>
1,4-di-tert-butyl 6-amino-1,4-diazepane-1,4-dicarboxylate

> <CAS>
2387152-15-8

> <URL>
https://www.enaminestore.com/catalog/EN300-1168846

> <ROCS_ShapeQuery>
_x0404_0B

> <ROCS_TanimotoCombo>
0.397 

> <ROCS_ShapeTanimoto>
0.335 

> <ROCS_ColorTanimoto>
0.062 

> <ROCS_RefTversky>
0.298 

> <ROCS_RefColorTversky>
0.067 

> <ROCS_RefTverskyCombo>
0.365 

> <ROCS_FitTversky>
1.587 

> <ROCS_FitColorTversky>
0.461 

> <ROCS_FitTverskyCombo>
2.048 

> <ROCS_ColorScore>
-4.813

> <ROCS_Overlap>
1991.192

> <ROCS_Rank>
137                 

$$$$
untitled-dbase-40365_151
  -OEChem-08212314543D

 45 47  0     0  0  0  0  0  0999 V2000
   -9.0798    5.0262  -17.8534 C   0  0  0  0  0  0  0  0  0  0  0  0
   -7.7177    5.3649  -17.9061 C   0  0  0  0  0  0  0  0  0  0  0  0
   -9.7490    4.9700  -16.6311 C   0  0  0  0  0  0  0  0  0  0  0  0
   -7.0078    5.6534  -16.7360 C   0  0  0  0  0  0  0  0  0  0  0  0
   -9.0189    5.2569  -15.4919 C   0  0  0  0  0  0  0  0  0  0  0  0
   -7.6745    5.5928  -15.5224 C   0  0  0  0  0  0  0  0  0  0  0  0
   -9.4647    5.2632  -14.1075 C   0  0  0  0  0  0  0  0  0  0  0  0
   -8.8652    5.2142   -9.0052 C   0  0  0  0  0  0  0  0  0  0  0  0
   -7.1168    5.8846  -14.1666 C   0  0  0  0  0  0  0  0  0  0  0  0
   -8.5741    6.7648  -12.2707 C   0  0  0  0  0  0  0  0  0  0  0  0
   -7.9396    4.2984  -12.3487 C   0  0  0  0  0  0  0  0  0  0  0  0
   -9.5190    6.4477  -11.1119 C   0  0  0  0  0  0  0  0  0  0  0  0
   -8.9113    4.0526  -11.1962 C   0  0  0  0  0  0  0  0  0  0  0  0
   -8.2807    5.5542  -13.1759 C   0  0  0  0  0  0  0  0  0  0  0  0
  -10.4941    4.2560   -7.3200 C   0  0  0  0  0  0  0  0  0  0  0  0
   -9.7803    2.0228   -8.2212 C   0  0  0  0  0  0  0  0  0  0  0  0
   -8.4956    3.0811   -6.3403 C   0  0  0  0  0  0  0  0  0  0  0  0
   -9.3064    3.3393   -7.6094 C   0  0  0  0  0  0  0  0  0  0  0  0
   -9.0805    5.2549  -10.3862 N   0  0  0  0  0  0  0  0  0  0  0  0
  -10.6197    5.0458  -13.7863 O   0  0  0  0  0  0  0  0  0  0  0  0
   -9.0202    6.1732   -8.2512 O   0  0  0  0  0  0  0  0  0  0  0  0
   -8.4589    3.9808   -8.5694 O   0  0  0  0  0  0  0  0  0  0  0  0
   -9.6147    4.8060  -18.7733 H   0  0  0  0  0  0  0  0  0  0  0  0
   -7.2107    5.4018  -18.8667 H   0  0  0  0  0  0  0  0  0  0  0  0
  -10.8007    4.7115  -16.5867 H   0  0  0  0  0  0  0  0  0  0  0  0
   -5.9566    5.9174  -16.7842 H   0  0  0  0  0  0  0  0  0  0  0  0
   -6.2395    5.2532  -13.9884 H   0  0  0  0  0  0  0  0  0  0  0  0
   -6.8095    6.9340  -14.1045 H   0  0  0  0  0  0  0  0  0  0  0  0
   -9.0006    7.5893  -12.8581 H   0  0  0  0  0  0  0  0  0  0  0  0
   -7.6316    7.1389  -11.8459 H   0  0  0  0  0  0  0  0  0  0  0  0
   -6.9326    4.4058  -11.9277 H   0  0  0  0  0  0  0  0  0  0  0  0
   -7.9222    3.4118  -12.9927 H   0  0  0  0  0  0  0  0  0  0  0  0
   -9.5763    7.3091  -10.4395 H   0  0  0  0  0  0  0  0  0  0  0  0
  -10.5339    6.2548  -11.4740 H   0  0  0  0  0  0  0  0  0  0  0  0
   -9.9013    3.7716  -11.5731 H   0  0  0  0  0  0  0  0  0  0  0  0
   -8.5524    3.2113  -10.5958 H   0  0  0  0  0  0  0  0  0  0  0  0
  -10.1581    5.2022   -6.8808 H   0  0  0  0  0  0  0  0  0  0  0  0
  -11.0637    4.4773   -8.2286 H   0  0  0  0  0  0  0  0  0  0  0  0
  -11.1716    3.7994   -6.5894 H   0  0  0  0  0  0  0  0  0  0  0  0
   -8.9313    1.3619   -8.4305 H   0  0  0  0  0  0  0  0  0  0  0  0
  -10.2805    2.1960   -9.1809 H   0  0  0  0  0  0  0  0  0  0  0  0
  -10.4745    1.4960   -7.5585 H   0  0  0  0  0  0  0  0  0  0  0  0
   -7.6436    2.4235   -6.5476 H   0  0  0  0  0  0  0  0  0  0  0  0
   -8.1161    4.0124   -5.9077 H   0  0  0  0  0  0  0  0  0  0  0  0
   -9.1046    2.5696   -5.5862 H   0  0  0  0  0  0  0  0  0  0  0  0
  1  2  2  0  0  0  0
  1  3  1  0  0  0  0
  2  4  1  0  0  0  0
  3  5  2  0  0  0  0
  4  6  2  0  0  0  0
  5  6  1  0  0  0  0
  5  7  1  0  0  0  0
  6  9  1  0  0  0  0
  7 14  1  0  0  0  0
  7 20  2  0  0  0  0
  8 19  1  0  0  0  0
  8 21  2  0  0  0  0
  8 22  1  0  0  0  0
  9 14  1  0  0  0  0
 10 12  1  0  0  0  0
 10 14  1  0  0  0  0
 11 13  1  0  0  0  0
 11 14  1  0  0  0  0
 12 19  1  0  0  0  0
 13 19  1  0  0  0  0
 15 18  1  0  0  0  0
 16 18  1  0  0  0  0
 17 18  1  0  0  0  0
 18 22  1  0  0  0  0
  1 23  1  0  0  0  0
  2 24  1  0  0  0  0
  3 25  1  0  0  0  0
  4 26  1  0  0  0  0
  9 27  1  0  0  0  0
  9 28  1  0  0  0  0
 10 29  1  0  0  0  0
 10 30  1  0  0  0  0
 11 31  1  0  0  0  0
 11 32  1  0  0  0  0
 12 33  1  0  0  0  0
 12 34  1  0  0  0  0
 13 35  1  0  0  0  0
 13 36  1  0  0  0  0
 15 37  1  0  0  0  0
 15 38  1  0  0  0  0
 15 39  1  0  0  0  0
 16 40  1  0  0  0  0
 16 41  1  0  0  0  0
 16 42  1  0  0  0  0
 17 43  1  0  0  0  0
 17 44  1  0  0  0  0
 17 45  1  0  0  0  0
M  END
> <id>
EN300-7412116

> <smiles>
CC(C)(C)OC(=O)N1CCC2(CC=3C=CC=CC3C2=O)CC1

> <MDLNUMBER>
MFCD22689932

> <IUPAC Name>
tert-butyl 1-oxo-1,3-dihydrospiro[indene-2,4'-piperidine]-1'-carboxylate

> <CAS>
1228079-29-5

> <Purity>
95

> <URL>
https://www.enaminestore.com/catalog/EN300-7412116

> <ROCS_ShapeQuery>
_x0404_0B

> <ROCS_TanimotoCombo>
0.397 

> <ROCS_ShapeTanimoto>
0.349 

> <ROCS_ColorTanimoto>
0.049 

> <ROCS_RefTversky>
0.309 

> <ROCS_RefColorTversky>
0.053 

> <ROCS_RefTverskyCombo>
0.361 

> <ROCS_FitTversky>
1.591 

> <ROCS_FitColorTversky>
0.399 

> <ROCS_FitTverskyCombo>
1.991 

> <ROCS_ColorScore>
-3.791

> <ROCS_Overlap>
2059.592

> <ROCS_Rank>
138                 

$$$$
untitled-dbase-53189_1
  -OEChem-08212314543D

 37 38  0     0  0  0  0  0  0999 V2000
   -9.2991    3.1940  -10.1887 C   0  0  0  0  0  0  0  0  0  0  0  0
   -8.3219    5.4331   -8.8468 C   0  0  0  0  0  0  0  0  0  0  0  0
   -9.0328    4.3675  -10.9090 C   0  0  0  0  0  0  0  0  0  0  0  0
   -8.5545    5.5008  -10.2272 C   0  0  0  0  0  0  0  0  0  0  0  0
   -9.0777    3.1411   -8.8127 C   0  0  0  0  0  0  0  0  0  0  0  0
   -8.5868    4.2589   -8.1429 C   0  0  0  0  0  0  0  0  0  0  0  0
   -8.5679    5.7186  -14.4132 C   0  0  0  0  0  0  0  0  0  0  0  0
   -8.2384    6.7659  -10.9809 C   0  0  0  0  0  0  0  0  0  0  0  0
   -9.2805    4.3871  -12.3975 C   0  0  0  0  0  0  0  0  0  0  0  0
   -9.0504    6.8629  -12.2665 C   0  0  0  0  0  0  0  0  0  0  0  0
   -6.8842    4.9837  -16.6073 C   0  0  0  0  0  0  0  0  0  0  0  0
   -8.4557    3.0503  -16.9258 C   0  0  0  0  0  0  0  0  0  0  0  0
   -9.3019    5.4027  -17.1674 C   0  0  0  0  0  0  0  0  0  0  0  0
   -8.3198    4.4899  -16.4345 C   0  0  0  0  0  0  0  0  0  0  0  0
   -8.9030    5.6435  -13.0569 N   0  0  0  0  0  0  0  0  0  0  0  0
   -8.2480    6.7542  -14.9935 O   0  0  0  0  0  0  0  0  0  0  0  0
   -9.3563    1.9816   -8.1520 O   0  0  0  0  0  0  0  0  0  0  0  0
   -8.6410    4.5016  -15.0388 O   0  0  0  0  0  0  0  0  0  0  0  0
   -8.2698    4.2220   -6.2747 Br  0  0  0  0  0  0  0  0  0  0  0  0
   -9.6846    2.3179  -10.7056 H   0  0  0  0  0  0  0  0  0  0  0  0
   -7.9309    6.3065   -8.3289 H   0  0  0  0  0  0  0  0  0  0  0  0
   -8.4520    7.6254  -10.3338 H   0  0  0  0  0  0  0  0  0  0  0  0
   -7.1726    6.7941  -11.2358 H   0  0  0  0  0  0  0  0  0  0  0  0
   -8.6878    3.5960  -12.8720 H   0  0  0  0  0  0  0  0  0  0  0  0
  -10.3398    4.1831  -12.5872 H   0  0  0  0  0  0  0  0  0  0  0  0
  -10.1026    7.0501  -12.0294 H   0  0  0  0  0  0  0  0  0  0  0  0
   -8.7012    7.6964  -12.8886 H   0  0  0  0  0  0  0  0  0  0  0  0
   -6.7825    6.0167  -16.2557 H   0  0  0  0  0  0  0  0  0  0  0  0
   -6.1734    4.3579  -16.0578 H   0  0  0  0  0  0  0  0  0  0  0  0
   -6.5965    4.9874  -17.6648 H   0  0  0  0  0  0  0  0  0  0  0  0
   -9.4842    2.6918  -16.8038 H   0  0  0  0  0  0  0  0  0  0  0  0
   -7.8220    2.3760  -16.3384 H   0  0  0  0  0  0  0  0  0  0  0  0
   -8.1784    2.9555  -17.9807 H   0  0  0  0  0  0  0  0  0  0  0  0
  -10.3317    5.0487  -17.0436 H   0  0  0  0  0  0  0  0  0  0  0  0
   -9.2444    6.4331  -16.8018 H   0  0  0  0  0  0  0  0  0  0  0  0
   -9.1028    5.4039  -18.2451 H   0  0  0  0  0  0  0  0  0  0  0  0
   -9.1588    2.0794   -7.2077 H   0  0  0  0  0  0  0  0  0  0  0  0
  1  3  2  0  0  0  0
  1  5  1  0  0  0  0
  2  4  2  0  0  0  0
  2  6  1  0  0  0  0
  3  4  1  0  0  0  0
  3  9  1  0  0  0  0
  4  8  1  0  0  0  0
  5  6  2  0  0  0  0
  5 17  1  0  0  0  0
  6 19  1  0  0  0  0
  7 15  1  0  0  0  0
  7 16  2  0  0  0  0
  7 18  1  0  0  0  0
  8 10  1  0  0  0  0
  9 15  1  0  0  0  0
 10 15  1  0  0  0  0
 11 14  1  0  0  0  0
 12 14  1  0  0  0  0
 13 14  1  0  0  0  0
 14 18  1  0  0  0  0
  1 20  1  0  0  0  0
  2 21  1  0  0  0  0
  8 22  1  0  0  0  0
  8 23  1  0  0  0  0
  9 24  1  0  0  0  0
  9 25  1  0  0  0  0
 10 26  1  0  0  0  0
 10 27  1  0  0  0  0
 11 28  1  0  0  0  0
 11 29  1  0  0  0  0
 11 30  1  0  0  0  0
 12 31  1  0  0  0  0
 12 32  1  0  0  0  0
 12 33  1  0  0  0  0
 13 34  1  0  0  0  0
 13 35  1  0  0  0  0
 13 36  1  0  0  0  0
 17 37  1  0  0  0  0
M  END
> <id>
EN300-44827158

> <smiles>
CC(C)(C)OC(=O)N1CCC=2C=C(Br)C(O)=CC2C1

> <IUPAC Name>
tert-butyl 6-bromo-7-hydroxy-1,2,3,4-tetrahydroisoquinoline-2-carboxylate

> <URL>
https://www.enaminestore.com/catalog/EN300-44827158

> <ROCS_ShapeQuery>
_x0404_0B

> <ROCS_TanimotoCombo>
0.397 

> <ROCS_ShapeTanimoto>
0.313 

> <ROCS_ColorTanimoto>
0.084 

> <ROCS_RefTversky>
0.279 

> <ROCS_RefColorTversky>
0.089 

> <ROCS_RefTverskyCombo>
0.368 

> <ROCS_FitTversky>
1.633 

> <ROCS_FitColorTversky>
0.614 

> <ROCS_FitTverskyCombo>
2.247 

> <ROCS_ColorScore>
-6.406

> <ROCS_Overlap>
1861.710

> <ROCS_Rank>
139                 

$$$$
untitled-dbase-50646_2
  -OEChem-08212314543D

 37 38  0     0  0  0  0  0  0999 V2000
   -9.3101    3.1851  -10.2020 C   0  0  0  0  0  0  0  0  0  0  0  0
   -8.5852    4.2365   -8.1537 C   0  0  0  0  0  0  0  0  0  0  0  0
   -9.0388    4.3601  -10.9180 C   0  0  0  0  0  0  0  0  0  0  0  0
   -8.5516    5.4874  -10.2326 C   0  0  0  0  0  0  0  0  0  0  0  0
   -9.0849    3.1248   -8.8269 C   0  0  0  0  0  0  0  0  0  0  0  0
   -8.3152    5.4122   -8.8533 C   0  0  0  0  0  0  0  0  0  0  0  0
   -8.5762    5.7237  -14.4175 C   0  0  0  0  0  0  0  0  0  0  0  0
   -8.2301    6.7539  -10.9817 C   0  0  0  0  0  0  0  0  0  0  0  0
   -9.2909    4.3878  -12.4056 C   0  0  0  0  0  0  0  0  0  0  0  0
   -9.0454    6.8615  -12.2645 C   0  0  0  0  0  0  0  0  0  0  0  0
   -6.9036    4.9883  -16.6200 C   0  0  0  0  0  0  0  0  0  0  0  0
   -8.4878    3.0659  -16.9422 C   0  0  0  0  0  0  0  0  0  0  0  0
   -9.3204    5.4244  -17.1709 C   0  0  0  0  0  0  0  0  0  0  0  0
   -8.3417    4.5024  -16.4450 C   0  0  0  0  0  0  0  0  0  0  0  0
   -8.9077    5.6447  -13.0606 N   0  0  0  0  0  0  0  0  0  0  0  0
   -8.2517    6.7599  -14.9943 O   0  0  0  0  0  0  0  0  0  0  0  0
   -9.3576    1.9804   -8.1428 O   0  0  0  0  0  0  0  0  0  0  0  0
   -8.6586    4.5099  -15.0483 O   0  0  0  0  0  0  0  0  0  0  0  0
   -7.8271    6.4712   -8.1918 F   0  0  0  0  0  0  0  0  0  0  0  0
   -9.7025    2.3130  -10.7206 H   0  0  0  0  0  0  0  0  0  0  0  0
   -8.4051    4.1953   -7.0830 H   0  0  0  0  0  0  0  0  0  0  0  0
   -8.4355    7.6116  -10.3300 H   0  0  0  0  0  0  0  0  0  0  0  0
   -7.1653    6.7767  -11.2418 H   0  0  0  0  0  0  0  0  0  0  0  0
   -8.7047    3.5953  -12.8857 H   0  0  0  0  0  0  0  0  0  0  0  0
  -10.3522    4.1913  -12.5923 H   0  0  0  0  0  0  0  0  0  0  0  0
  -10.0958    7.0543  -12.0239 H   0  0  0  0  0  0  0  0  0  0  0  0
   -8.6929    7.6953  -12.8843 H   0  0  0  0  0  0  0  0  0  0  0  0
   -6.7946    6.0191  -16.2642 H   0  0  0  0  0  0  0  0  0  0  0  0
   -6.1951    4.3557  -16.0754 H   0  0  0  0  0  0  0  0  0  0  0  0
   -6.6191    4.9949  -17.6784 H   0  0  0  0  0  0  0  0  0  0  0  0
   -9.5181    2.7132  -16.8186 H   0  0  0  0  0  0  0  0  0  0  0  0
   -7.8565    2.3852  -16.3597 H   0  0  0  0  0  0  0  0  0  0  0  0
   -8.2143    2.9741  -17.9983 H   0  0  0  0  0  0  0  0  0  0  0  0
  -10.3520    5.0761  -17.0456 H   0  0  0  0  0  0  0  0  0  0  0  0
   -9.2556    6.4528  -16.8010 H   0  0  0  0  0  0  0  0  0  0  0  0
   -9.1245    5.4292  -18.2492 H   0  0  0  0  0  0  0  0  0  0  0  0
   -9.6999    1.3013   -8.7457 H   0  0  0  0  0  0  0  0  0  0  0  0
  1  3  2  0  0  0  0
  1  5  1  0  0  0  0
  2  5  2  0  0  0  0
  2  6  1  0  0  0  0
  3  4  1  0  0  0  0
  3  9  1  0  0  0  0
  4  6  2  0  0  0  0
  4  8  1  0  0  0  0
  5 17  1  0  0  0  0
  6 19  1  0  0  0  0
  7 15  1  0  0  0  0
  7 16  2  0  0  0  0
  7 18  1  0  0  0  0
  8 10  1  0  0  0  0
  9 15  1  0  0  0  0
 10 15  1  0  0  0  0
 11 14  1  0  0  0  0
 12 14  1  0  0  0  0
 13 14  1  0  0  0  0
 14 18  1  0  0  0  0
  1 20  1  0  0  0  0
  2 21  1  0  0  0  0
  8 22  1  0  0  0  0
  8 23  1  0  0  0  0
  9 24  1  0  0  0  0
  9 25  1  0  0  0  0
 10 26  1  0  0  0  0
 10 27  1  0  0  0  0
 11 28  1  0  0  0  0
 11 29  1  0  0  0  0
 11 30  1  0  0  0  0
 12 31  1  0  0  0  0
 12 32  1  0  0  0  0
 12 33  1  0  0  0  0
 13 34  1  0  0  0  0
 13 35  1  0  0  0  0
 13 36  1  0  0  0  0
 17 37  1  0  0  0  0
M  END
> <id>
EN300-39879256

> <smiles>
CC(C)(C)OC(=O)N1CCC=2C(F)=CC(O)=CC2C1

> <IUPAC Name>
tert-butyl 5-fluoro-7-hydroxy-1,2,3,4-tetrahydroisoquinoline-2-carboxylate

> <CAS>
2866322-89-4

> <Purity>
95

> <URL>
https://www.enaminestore.com/catalog/EN300-39879256

> <ROCS_ShapeQuery>
_x0404_0B

> <ROCS_TanimotoCombo>
0.397 

> <ROCS_ShapeTanimoto>
0.312 

> <ROCS_ColorTanimoto>
0.085 

> <ROCS_RefTversky>
0.279 

> <ROCS_RefColorTversky>
0.089 

> <ROCS_RefTverskyCombo>
0.368 

> <ROCS_FitTversky>
1.610 

> <ROCS_FitColorTversky>
0.673 

> <ROCS_FitTverskyCombo>
2.284 

> <ROCS_ColorScore>
-6.385

> <ROCS_Overlap>
1860.667

> <ROCS_Rank>
140                 

$$$$
untitled-dbase-14979_79
  -OEChem-08212314543D

 40 42  0     1  0  0  0  0  0999 V2000
   -9.3307    4.5051   -8.2636 C   0  0  0  0  0  0  0  0  0  0  0  0
   -8.4795    5.8088  -14.4046 C   0  0  0  0  0  0  0  0  0  0  0  0
   -7.4301    3.9495  -11.2510 C   0  0  0  0  0  0  0  0  0  0  0  0
   -7.3597    4.3009  -12.7376 C   0  0  0  0  0  0  0  0  0  0  0  0
   -8.8420    6.5206   -9.5241 C   0  0  0  0  0  0  0  0  0  0  0  0
   -8.4313    6.4277  -12.0023 C   0  0  0  0  0  0  0  0  0  0  0  0
   -9.1629    5.7544  -10.8250 C   0  0  1  0  0  0  0  0  0  0  0  0
   -8.8338    4.2406  -10.7133 C   0  0  2  0  0  0  0  0  0  0  0  0
   -7.8579    5.7762  -17.1972 C   0  0  0  0  0  0  0  0  0  0  0  0
   -9.0441    3.5626  -17.2475 C   0  0  0  0  0  0  0  0  0  0  0  0
  -10.3021    5.6415  -16.6118 C   0  0  0  0  0  0  0  0  0  0  0  0
   -8.9542    4.9235  -16.5603 C   0  0  0  0  0  0  0  0  0  0  0  0
   -9.5524    3.6805   -7.2623 N   0  0  0  0  0  0  0  0  0  0  0  0
   -9.3805    2.4108   -7.7722 N   0  0  0  0  0  0  0  0  0  0  0  0
   -9.0759    2.4501   -9.0638 N   0  0  0  0  0  0  0  0  0  0  0  0
   -9.0333    3.7555   -9.3643 N   0  0  0  0  0  0  0  0  0  0  0  0
   -9.3786    5.8471   -8.3547 N   0  0  0  0  0  0  0  0  0  0  0  0
   -8.1402    5.4934  -13.0851 N   0  0  0  0  0  0  0  0  0  0  0  0
   -8.6381    6.9519  -14.8283 O   0  0  0  0  0  0  0  0  0  0  0  0
   -8.6128    4.6925  -15.1887 O   0  0  0  0  0  0  0  0  0  0  0  0
   -7.1865    2.8968  -11.1171 H   0  0  0  0  0  0  0  0  0  0  0  0
   -6.6796    4.5257  -10.7103 H   0  0  0  0  0  0  0  0  0  0  0  0
   -6.3050    4.4302  -13.0374 H   0  0  0  0  0  0  0  0  0  0  0  0
   -7.7527    3.4667  -13.3467 H   0  0  0  0  0  0  0  0  0  0  0  0
   -7.7563    6.6411   -9.3960 H   0  0  0  0  0  0  0  0  0  0  0  0
   -9.2647    7.5344   -9.5770 H   0  0  0  0  0  0  0  0  0  0  0  0
   -9.0714    7.2153  -12.4269 H   0  0  0  0  0  0  0  0  0  0  0  0
   -7.5236    6.9279  -11.6411 H   0  0  0  0  0  0  0  0  0  0  0  0
  -10.2391    5.8725  -11.0099 H   0  0  0  0  0  0  0  0  0  0  0  0
   -9.5676    3.6956  -11.3577 H   0  0  0  0  0  0  0  0  0  0  0  0
   -7.7903    6.7539  -16.7067 H   0  0  0  0  0  0  0  0  0  0  0  0
   -6.8800    5.2878  -17.1356 H   0  0  0  0  0  0  0  0  0  0  0  0
   -8.0800    5.9743  -18.2521 H   0  0  0  0  0  0  0  0  0  0  0  0
   -9.8294    2.9475  -16.7936 H   0  0  0  0  0  0  0  0  0  0  0  0
   -8.1083    3.0040  -17.1309 H   0  0  0  0  0  0  0  0  0  0  0  0
   -9.2569    3.6632  -18.3167 H   0  0  0  0  0  0  0  0  0  0  0  0
  -11.0886    5.0300  -16.1549 H   0  0  0  0  0  0  0  0  0  0  0  0
  -10.2665    6.6040  -16.0913 H   0  0  0  0  0  0  0  0  0  0  0  0
  -10.6104    5.8175  -17.6487 H   0  0  0  0  0  0  0  0  0  0  0  0
   -9.6952    6.4200   -7.5841 H   0  0  0  0  0  0  0  0  0  0  0  0
  1 13  2  0  0  0  0
  1 16  1  0  0  0  0
  1 17  1  0  0  0  0
  2 18  1  0  0  0  0
  2 19  2  0  0  0  0
  2 20  1  0  0  0  0
  3  4  1  0  0  0  0
  3  8  1  0  0  0  0
  4 18  1  0  0  0  0
  5  7  1  0  0  0  0
  5 17  1  0  0  0  0
  6  7  1  0  0  0  0
  6 18  1  0  0  0  0
  7  8  1  0  0  0  0
  8 16  1  0  0  0  0
  9 12  1  0  0  0  0
 10 12  1  0  0  0  0
 11 12  1  0  0  0  0
 12 20  1  0  0  0  0
 13 14  1  0  0  0  0
 14 15  2  0  0  0  0
 15 16  1  0  0  0  0
  3 21  1  0  0  0  0
  3 22  1  0  0  0  0
  4 23  1  0  0  0  0
  4 24  1  0  0  0  0
  5 25  1  0  0  0  0
  5 26  1  0  0  0  0
  6 27  1  0  0  0  0
  6 28  1  0  0  0  0
  7 29  1  0  0  0  0
  8 30  1  0  0  0  0
  9 31  1  0  0  0  0
  9 32  1  0  0  0  0
  9 33  1  0  0  0  0
 10 34  1  0  0  0  0
 10 35  1  0  0  0  0
 10 36  1  0  0  0  0
 11 37  1  0  0  0  0
 11 38  1  0  0  0  0
 11 39  1  0  0  0  0
 17 40  1  0  0  0  0
M  END
> <id>
EN300-1118515

> <smiles>
CC(C)(C)OC(=O)N1CCC2C(CNC3=NN=NN23)C1

> <IUPAC Name>
tert-butyl 2,3,4,5,7,11-hexaazatricyclo[7.4.0.0,2,6]trideca-3,5-diene-11-carboxylate

> <CAS>
1691652-82-0

> <URL>
https://www.enaminestore.com/catalog/EN300-1118515

> <ROCS_ShapeQuery>
_x0404_0B

> <ROCS_TanimotoCombo>
0.397 

> <ROCS_ShapeTanimoto>
0.320 

> <ROCS_ColorTanimoto>
0.077 

> <ROCS_RefTversky>
0.287 

> <ROCS_RefColorTversky>
0.084 

> <ROCS_RefTverskyCombo>
0.371 

> <ROCS_FitTversky>
1.566 

> <ROCS_FitColorTversky>
0.470 

> <ROCS_FitTverskyCombo>
2.036 

> <ROCS_ColorScore>
-6.101

> <ROCS_Overlap>
1912.928

> <ROCS_Rank>
141                 

$$$$
untitled-dbase-48428_34
  -OEChem-08212314543D

 40 42  0     0  0  0  0  0  0999 V2000
   -7.1476    5.9352  -16.2518 C   0  0  0  0  0  0  0  0  0  0  0  0
   -7.0873    5.2618  -17.4716 C   0  0  0  0  0  0  0  0  0  0  0  0
   -9.3381    4.4362  -17.1393 C   0  0  0  0  0  0  0  0  0  0  0  0
   -9.3987    5.1108  -15.9175 C   0  0  0  0  0  0  0  0  0  0  0  0
   -8.2996    5.8487  -15.4709 C   0  0  0  0  0  0  0  0  0  0  0  0
   -8.1784    4.5115  -17.9123 C   0  0  0  0  0  0  0  0  0  0  0  0
  -10.6338    5.0791  -15.1052 C   0  0  0  0  0  0  0  0  0  0  0  0
   -8.7927    5.1570   -9.9570 C   0  0  0  0  0  0  0  0  0  0  0  0
  -10.6059    5.8592  -13.8154 C   0  0  0  0  0  0  0  0  0  0  0  0
   -8.6525    4.7602  -12.5008 C   0  0  0  0  0  0  0  0  0  0  0  0
   -9.1368    6.7714  -11.9168 C   0  0  0  0  0  0  0  0  0  0  0  0
   -9.1892    6.0036  -13.2603 C   0  0  0  0  0  0  0  0  0  0  0  0
  -10.0657    4.1930   -7.5902 C   0  0  0  0  0  0  0  0  0  0  0  0
   -9.4757    1.9000   -8.4287 C   0  0  0  0  0  0  0  0  0  0  0  0
   -7.6530    3.5415   -7.8886 C   0  0  0  0  0  0  0  0  0  0  0  0
   -9.0765    3.3741   -8.4181 C   0  0  0  0  0  0  0  0  0  0  0  0
   -8.8600    5.5037  -11.2779 N   0  0  0  0  0  0  0  0  0  0  0  0
  -11.6365    4.4912  -15.4939 O   0  0  0  0  0  0  0  0  0  0  0  0
   -8.4787    5.9292   -9.0555 O   0  0  0  0  0  0  0  0  0  0  0  0
   -8.3034    6.5315  -14.2792 O   0  0  0  0  0  0  0  0  0  0  0  0
   -9.1177    3.8418   -9.7708 O   0  0  0  0  0  0  0  0  0  0  0  0
   -8.1152    3.8679  -19.0856 F   0  0  0  0  0  0  0  0  0  0  0  0
   -6.2938    6.5164  -15.9149 H   0  0  0  0  0  0  0  0  0  0  0  0
   -6.1895    5.3210  -18.0800 H   0  0  0  0  0  0  0  0  0  0  0  0
  -10.1794    3.8557  -17.5071 H   0  0  0  0  0  0  0  0  0  0  0  0
  -11.0391    6.8458  -14.0188 H   0  0  0  0  0  0  0  0  0  0  0  0
  -11.2533    5.3485  -13.0926 H   0  0  0  0  0  0  0  0  0  0  0  0
   -9.2588    3.8532  -12.5730 H   0  0  0  0  0  0  0  0  0  0  0  0
   -7.5992    4.5193  -12.6730 H   0  0  0  0  0  0  0  0  0  0  0  0
   -8.3134    7.4845  -11.8135 H   0  0  0  0  0  0  0  0  0  0  0  0
  -10.0715    7.2328  -11.5867 H   0  0  0  0  0  0  0  0  0  0  0  0
   -9.7827    5.2517   -7.5801 H   0  0  0  0  0  0  0  0  0  0  0  0
  -11.0851    4.1093   -7.9808 H   0  0  0  0  0  0  0  0  0  0  0  0
  -10.0675    3.8636   -6.5449 H   0  0  0  0  0  0  0  0  0  0  0  0
   -8.7687    1.3086   -9.0217 H   0  0  0  0  0  0  0  0  0  0  0  0
  -10.4582    1.7651   -8.8952 H   0  0  0  0  0  0  0  0  0  0  0  0
   -9.5123    1.4841   -7.4167 H   0  0  0  0  0  0  0  0  0  0  0  0
   -6.9433    2.9541   -8.4823 H   0  0  0  0  0  0  0  0  0  0  0  0
   -7.3360    4.5892   -7.9082 H   0  0  0  0  0  0  0  0  0  0  0  0
   -7.5744    3.1731   -6.8593 H   0  0  0  0  0  0  0  0  0  0  0  0
  1  2  1  0  0  0  0
  1  5  2  0  0  0  0
  2  6  2  0  0  0  0
  3  4  2  0  0  0  0
  3  6  1  0  0  0  0
  4  5  1  0  0  0  0
  4  7  1  0  0  0  0
  5 20  1  0  0  0  0
  6 22  1  0  0  0  0
  7  9  1  0  0  0  0
  7 18  2  0  0  0  0
  8 17  1  0  0  0  0
  8 19  2  0  0  0  0
  8 21  1  0  0  0  0
  9 12  1  0  0  0  0
 10 12  1  0  0  0  0
 10 17  1  0  0  0  0
 11 12  1  0  0  0  0
 11 17  1  0  0  0  0
 12 20  1  0  0  0  0
 13 16  1  0  0  0  0
 14 16  1  0  0  0  0
 15 16  1  0  0  0  0
 16 21  1  0  0  0  0
  1 23  1  0  0  0  0
  2 24  1  0  0  0  0
  3 25  1  0  0  0  0
  9 26  1  0  0  0  0
  9 27  1  0  0  0  0
 10 28  1  0  0  0  0
 10 29  1  0  0  0  0
 11 30  1  0  0  0  0
 11 31  1  0  0  0  0
 13 32  1  0  0  0  0
 13 33  1  0  0  0  0
 13 34  1  0  0  0  0
 14 35  1  0  0  0  0
 14 36  1  0  0  0  0
 14 37  1  0  0  0  0
 15 38  1  0  0  0  0
 15 39  1  0  0  0  0
 15 40  1  0  0  0  0
M  END
> <id>
EN300-338177

> <smiles>
CC(C)(C)OC(=O)N1CC2(C1)CC(=O)C=3C=C(F)C=CC3O2

> <MDLNUMBER>
MFCD30499650

> <IUPAC Name>
tert-butyl 6'-fluoro-4'-oxo-3',4'-dihydrospiro[azetidine-3,2'-[1]benzopyran]-1-carboxylate

> <CAS>
2060026-72-2

> <URL>
https://www.enaminestore.com/catalog/EN300-338177

> <ROCS_ShapeQuery>
_x0404_0B

> <ROCS_TanimotoCombo>
0.397 

> <ROCS_ShapeTanimoto>
0.351 

> <ROCS_ColorTanimoto>
0.046 

> <ROCS_RefTversky>
0.311 

> <ROCS_RefColorTversky>
0.050 

> <ROCS_RefTverskyCombo>
0.361 

> <ROCS_FitTversky>
1.589 

> <ROCS_FitColorTversky>
0.345 

> <ROCS_FitTverskyCombo>
1.934 

> <ROCS_ColorScore>
-3.600

> <ROCS_Overlap>
2075.003

> <ROCS_Rank>
142                 

$$$$
untitled-dbase-40623_106
  -OEChem-08212314543D

 54 57  0     1  0  0  0  0  0999 V2000
   -9.1660    3.9173  -17.8245 C   0  0  0  0  0  0  0  0  0  0  0  0
   -9.5806    5.2370  -17.6338 C   0  0  0  0  0  0  0  0  0  0  0  0
   -8.2790    3.3223  -16.9265 C   0  0  0  0  0  0  0  0  0  0  0  0
   -9.1152    5.9682  -16.5405 C   0  0  0  0  0  0  0  0  0  0  0  0
   -7.8101    4.0549  -15.8327 C   0  0  0  0  0  0  0  0  0  0  0  0
   -8.2383    5.3714  -15.6323 C   0  0  0  0  0  0  0  0  0  0  0  0
   -8.8435    5.2984  -11.3371 C   0  0  0  0  0  0  0  0  0  0  0  0
   -8.2475    6.0930  -12.2389 C   0  0  0  0  0  0  0  0  0  0  0  0
   -6.8625    3.4361  -14.8849 C   0  0  0  0  0  0  0  0  0  0  0  0
   -7.4012    2.6789  -10.5118 C   0  0  0  0  0  0  0  0  0  0  0  0
   -8.2929    5.0608   -9.9615 C   0  0  0  0  0  0  0  0  0  0  0  0
   -8.7976    6.3602  -13.6066 C   0  0  0  0  0  0  0  0  0  0  0  0
   -4.8719   -0.4397  -13.1591 C   0  0  0  0  0  0  0  0  0  0  0  0
   -5.2381   -0.3033  -11.6830 C   0  0  0  0  0  0  0  0  0  0  0  0
   -5.7564    0.3830  -14.0997 C   0  0  0  0  0  0  0  0  0  0  0  0
   -6.7453   -0.2414  -11.4634 C   0  0  0  0  0  0  0  0  0  0  0  0
   -8.0986    3.3547   -8.0643 C   0  0  0  0  0  0  0  0  0  0  0  0
   -9.7844    3.0395   -9.2305 C   0  0  0  0  0  0  0  0  0  0  0  0
   -6.5282    1.4833  -13.3655 C   0  0  2  0  0  0  0  0  0  0  0  0
   -7.4357    0.8673  -12.2830 C   0  0  2  0  0  0  0  0  0  0  0  0
   -8.3548    3.5655   -9.6003 C   0  0  0  0  0  0  0  0  0  0  0  0
   -7.3163    2.2598  -14.3180 N   0  0  0  0  0  0  0  0  0  0  0  0
   -8.0688    1.8786  -11.4312 N   0  0  0  0  0  0  0  0  0  0  0  0
   -9.1878    2.3601   -8.0647 N   0  0  0  0  0  0  0  0  0  0  0  0
   -5.7943    3.9917  -14.6538 O   0  0  0  0  0  0  0  0  0  0  0  0
   -6.1701    2.6923  -10.3982 O   0  0  0  0  0  0  0  0  0  0  0  0
   -7.7640    6.0712  -14.5557 O   0  0  0  0  0  0  0  0  0  0  0  0
   -9.5429    3.3504  -18.6717 H   0  0  0  0  0  0  0  0  0  0  0  0
  -10.2702    5.6939  -18.3389 H   0  0  0  0  0  0  0  0  0  0  0  0
   -7.9840    2.2952  -17.0925 H   0  0  0  0  0  0  0  0  0  0  0  0
   -9.4501    6.9897  -16.4122 H   0  0  0  0  0  0  0  0  0  0  0  0
   -9.7676    4.7926  -11.5942 H   0  0  0  0  0  0  0  0  0  0  0  0
   -7.3163    6.5916  -11.9809 H   0  0  0  0  0  0  0  0  0  0  0  0
   -7.2568    5.4311   -9.9386 H   0  0  0  0  0  0  0  0  0  0  0  0
   -8.8413    5.6480   -9.2092 H   0  0  0  0  0  0  0  0  0  0  0  0
   -9.6576    5.6985  -13.7673 H   0  0  0  0  0  0  0  0  0  0  0  0
   -9.1294    7.4036  -13.6998 H   0  0  0  0  0  0  0  0  0  0  0  0
   -3.8154   -0.1408  -13.3017 H   0  0  0  0  0  0  0  0  0  0  0  0
   -4.9197   -1.5055  -13.4518 H   0  0  0  0  0  0  0  0  0  0  0  0
   -4.8208   -1.1541  -11.1240 H   0  0  0  0  0  0  0  0  0  0  0  0
   -4.7674    0.6008  -11.2717 H   0  0  0  0  0  0  0  0  0  0  0  0
   -5.1225    0.8206  -14.8850 H   0  0  0  0  0  0  0  0  0  0  0  0
   -6.4606   -0.2950  -14.6068 H   0  0  0  0  0  0  0  0  0  0  0  0
   -7.1787   -1.2240  -11.7136 H   0  0  0  0  0  0  0  0  0  0  0  0
   -6.9456   -0.0843  -10.3887 H   0  0  0  0  0  0  0  0  0  0  0  0
   -7.1288    2.9571   -7.7598 H   0  0  0  0  0  0  0  0  0  0  0  0
   -8.3124    4.2292   -7.4386 H   0  0  0  0  0  0  0  0  0  0  0  0
  -10.5171    3.8087   -8.9543 H   0  0  0  0  0  0  0  0  0  0  0  0
  -10.2578    2.3664   -9.9529 H   0  0  0  0  0  0  0  0  0  0  0  0
   -5.8112    2.1515  -12.8880 H   0  0  0  0  0  0  0  0  0  0  0  0
   -8.3067    0.3612  -12.8280 H   0  0  0  0  0  0  0  0  0  0  0  0
   -8.2426    1.9188  -14.5763 H   0  0  0  0  0  0  0  0  0  0  0  0
   -9.0866    2.0050  -11.5218 H   0  0  0  0  0  0  0  0  0  0  0  0
   -8.8648    1.4154   -8.2765 H   0  0  0  0  0  0  0  0  0  0  0  0
  1  2  2  0  0  0  0
  1  3  1  0  0  0  0
  2  4  1  0  0  0  0
  3  5  2  0  0  0  0
  4  6  2  0  0  0  0
  5  6  1  0  0  0  0
  5  9  1  0  0  0  0
  6 27  1  0  0  0  0
  7  8  2  0  0  0  0
  7 11  1  0  0  0  0
  8 12  1  0  0  0  0
  9 22  1  0  0  0  0
  9 25  2  0  0  0  0
 10 21  1  0  0  0  0
 10 23  1  0  0  0  0
 10 26  2  0  0  0  0
 11 21  1  0  0  0  0
 12 27  1  0  0  0  0
 13 14  1  0  0  0  0
 13 15  1  0  0  0  0
 14 16  1  0  0  0  0
 15 19  1  6  0  0  0
 16 20  1  1  0  0  0
 17 21  1  0  0  0  0
 17 24  1  0  0  0  0
 18 21  1  0  0  0  0
 18 24  1  0  0  0  0
 19 20  1  0  0  0  0
 19 22  1  0  0  0  0
 20 23  1  0  0  0  0
  1 28  1  0  0  0  0
  2 29  1  0  0  0  0
  3 30  1  0  0  0  0
  4 31  1  0  0  0  0
  7 32  1  0  0  0  0
  8 33  1  0  0  0  0
 11 34  1  0  0  0  0
 11 35  1  0  0  0  0
 12 36  1  0  0  0  0
 12 37  1  0  0  0  0
 13 38  1  0  0  0  0
 13 39  1  0  0  0  0
 14 40  1  0  0  0  0
 14 41  1  0  0  0  0
 15 42  1  0  0  0  0
 15 43  1  0  0  0  0
 16 44  1  0  0  0  0
 16 45  1  0  0  0  0
 17 46  1  0  0  0  0
 17 47  1  0  0  0  0
 18 48  1  0  0  0  0
 18 49  1  0  0  0  0
 19 50  1  0  0  0  0
 20 51  1  0  0  0  0
 22 52  1  0  0  0  0
 23 53  1  0  0  0  0
 24 54  1  0  0  0  0
M  END
> <id>
EN300-6486332

> <smiles>
OC(=O)C(F)(F)F.O=C1N[C@@H]2CCCC[C@H]2NC(=O)C3(CNC3)C/C=C/COC=4C=CC=CC14

> <MDLNUMBER>
MFCD31737449

> <IUPAC Name>
(4'R,9'R,14'E)-17'-oxa-3',10'-diazaspiro[azetidine-3,12'-tricyclo[16.4.0.0,4,9]docosane]-1'(18'),14',19',21'-tetraene-2',11'-dione; trifluoroacetic acid

> <CAS>
2648870-19-1

> <URL>
https://www.enaminestore.com/catalog/EN300-6486332

> <Saltdate>
OC(=O)C(F)(F)F

> <ROCS_ShapeQuery>
_x0404_0B

> <ROCS_TanimotoCombo>
0.397 

> <ROCS_ShapeTanimoto>
0.290 

> <ROCS_ColorTanimoto>
0.107 

> <ROCS_RefTversky>
0.275 

> <ROCS_RefColorTversky>
0.114 

> <ROCS_RefTverskyCombo>
0.389 

> <ROCS_FitTversky>
1.233 

> <ROCS_FitColorTversky>
0.621 

> <ROCS_FitTverskyCombo>
1.854 

> <ROCS_ColorScore>
-8.248

> <ROCS_Overlap>
1839.285

> <ROCS_Rank>
143                 

$$$$
untitled-dbase-45851_153
  -OEChem-08212314543D

 45 47  0     0  0  0  0  0  0999 V2000
   -9.2497    2.0038   -8.3572 C   0  0  0  0  0  0  0  0  0  0  0  0
   -8.9906    2.5004   -7.0713 C   0  0  0  0  0  0  0  0  0  0  0  0
   -9.2846    2.8633   -9.4567 C   0  0  0  0  0  0  0  0  0  0  0  0
   -8.7721    3.8645   -6.8665 C   0  0  0  0  0  0  0  0  0  0  0  0
   -9.0703    4.2170   -9.2433 C   0  0  0  0  0  0  0  0  0  0  0  0
   -8.8389    4.7157   -7.9568 C   0  0  0  0  0  0  0  0  0  0  0  0
   -8.7448    5.7650  -14.5889 C   0  0  0  0  0  0  0  0  0  0  0  0
  -10.1987    5.3980  -11.2105 C   0  0  0  0  0  0  0  0  0  0  0  0
   -7.6454    5.2796  -10.9998 C   0  0  0  0  0  0  0  0  0  0  0  0
   -9.8691    4.8287  -12.5876 C   0  0  0  0  0  0  0  0  0  0  0  0
   -7.6869    6.0315  -12.3262 C   0  0  0  0  0  0  0  0  0  0  0  0
   -9.0311    6.5724   -9.2664 C   0  0  0  0  0  0  0  0  0  0  0  0
   -8.9942    5.3499  -10.2458 C   0  0  0  0  0  0  0  0  0  0  0  0
   -7.9835    4.9420  -17.2210 C   0  0  0  0  0  0  0  0  0  0  0  0
  -10.1716    3.7094  -17.2691 C   0  0  0  0  0  0  0  0  0  0  0  0
  -10.1500    6.2112  -17.0479 C   0  0  0  0  0  0  0  0  0  0  0  0
   -9.4209    4.9132  -16.7036 C   0  0  0  0  0  0  0  0  0  0  0  0
   -8.6055    6.0897   -7.9582 N   0  0  0  0  0  0  0  0  0  0  0  0
   -8.7545    5.5468  -13.2074 N   0  0  0  0  0  0  0  0  0  0  0  0
   -8.2157    6.7313  -15.1349 O   0  0  0  0  0  0  0  0  0  0  0  0
   -9.3897    4.7718  -15.2788 O   0  0  0  0  0  0  0  0  0  0  0  0
   -9.4361    0.9421   -8.4955 H   0  0  0  0  0  0  0  0  0  0  0  0
   -8.9672    1.8175   -6.2263 H   0  0  0  0  0  0  0  0  0  0  0  0
   -9.4874    2.4736  -10.4482 H   0  0  0  0  0  0  0  0  0  0  0  0
   -8.5509    4.2403   -5.8731 H   0  0  0  0  0  0  0  0  0  0  0  0
  -10.5652    6.4258  -11.3220 H   0  0  0  0  0  0  0  0  0  0  0  0
  -11.0324    4.8204  -10.7899 H   0  0  0  0  0  0  0  0  0  0  0  0
   -7.3830    4.2323  -11.2022 H   0  0  0  0  0  0  0  0  0  0  0  0
   -6.8344    5.6775  -10.3758 H   0  0  0  0  0  0  0  0  0  0  0  0
   -9.6526    3.7607  -12.4940 H   0  0  0  0  0  0  0  0  0  0  0  0
  -10.7253    4.9206  -13.2651 H   0  0  0  0  0  0  0  0  0  0  0  0
   -7.8654    7.1059  -12.1630 H   0  0  0  0  0  0  0  0  0  0  0  0
   -6.7109    5.9501  -12.8274 H   0  0  0  0  0  0  0  0  0  0  0  0
   -8.3307    7.3544   -9.5864 H   0  0  0  0  0  0  0  0  0  0  0  0
  -10.0216    7.0316   -9.1942 H   0  0  0  0  0  0  0  0  0  0  0  0
   -7.4413    5.8046  -16.8174 H   0  0  0  0  0  0  0  0  0  0  0  0
   -7.4390    4.0314  -16.9504 H   0  0  0  0  0  0  0  0  0  0  0  0
   -7.9625    5.0465  -18.3118 H   0  0  0  0  0  0  0  0  0  0  0  0
  -11.2034    3.6848  -16.9005 H   0  0  0  0  0  0  0  0  0  0  0  0
   -9.7057    2.7717  -16.9453 H   0  0  0  0  0  0  0  0  0  0  0  0
  -10.1946    3.7253  -18.3635 H   0  0  0  0  0  0  0  0  0  0  0  0
  -11.1811    6.1908  -16.6769 H   0  0  0  0  0  0  0  0  0  0  0  0
   -9.6456    7.0831  -16.6189 H   0  0  0  0  0  0  0  0  0  0  0  0
  -10.2147    6.3456  -18.1337 H   0  0  0  0  0  0  0  0  0  0  0  0
   -7.8566    6.5068   -7.4311 H   0  0  0  0  0  0  0  0  0  0  0  0
  1  2  2  0  0  0  0
  1  3  1  0  0  0  0
  2  4  1  0  0  0  0
  3  5  2  0  0  0  0
  4  6  2  0  0  0  0
  5  6  1  0  0  0  0
  5 13  1  0  0  0  0
  6 18  1  0  0  0  0
  7 19  1  0  0  0  0
  7 20  2  0  0  0  0
  7 21  1  0  0  0  0
  8 10  1  0  0  0  0
  8 13  1  0  0  0  0
  9 11  1  0  0  0  0
  9 13  1  0  0  0  0
 10 19  1  0  0  0  0
 11 19  1  0  0  0  0
 12 13  1  0  0  0  0
 12 18  1  0  0  0  0
 14 17  1  0  0  0  0
 15 17  1  0  0  0  0
 16 17  1  0  0  0  0
 17 21  1  0  0  0  0
  1 22  1  0  0  0  0
  2 23  1  0  0  0  0
  3 24  1  0  0  0  0
  4 25  1  0  0  0  0
  8 26  1  0  0  0  0
  8 27  1  0  0  0  0
  9 28  1  0  0  0  0
  9 29  1  0  0  0  0
 10 30  1  0  0  0  0
 10 31  1  0  0  0  0
 11 32  1  0  0  0  0
 11 33  1  0  0  0  0
 12 34  1  0  0  0  0
 12 35  1  0  0  0  0
 14 36  1  0  0  0  0
 14 37  1  0  0  0  0
 14 38  1  0  0  0  0
 15 39  1  0  0  0  0
 15 40  1  0  0  0  0
 15 41  1  0  0  0  0
 16 42  1  0  0  0  0
 16 43  1  0  0  0  0
 16 44  1  0  0  0  0
 18 45  1  0  0  0  0
M  END
> <id>
EN300-268905

> <smiles>
CC(C)(C)OC(=O)N1CCC2(CNC=3C=CC=CC32)CC1

> <MDLNUMBER>
MFCD09953258

> <IUPAC Name>
tert-butyl 1,2-dihydrospiro[indole-3,4'-piperidine]-1'-carboxylate

> <CAS>
180465-84-3

> <Purity>
95

> <URL>
https://www.enaminestore.com/catalog/EN300-268905

> <MP>
173-174

> <ROCS_ShapeQuery>
_x0404_0B

> <ROCS_TanimotoCombo>
0.396 

> <ROCS_ShapeTanimoto>
0.319 

> <ROCS_ColorTanimoto>
0.077 

> <ROCS_RefTversky>
0.287 

> <ROCS_RefColorTversky>
0.081 

> <ROCS_RefTverskyCombo>
0.368 

> <ROCS_FitTversky>
1.534 

> <ROCS_FitColorTversky>
0.615 

> <ROCS_FitTverskyCombo>
2.149 

> <ROCS_ColorScore>
-5.841

> <ROCS_Overlap>
1915.183

> <ROCS_Rank>
144                 

$$$$
untitled-dbase-43392_1753
  -OEChem-08212314543D

 47 48  0     1  0  0  0  0  0999 V2000
   -8.4133    5.6016  -14.7234 C   0  0  0  0  0  0  0  0  0  0  0  0
   -9.5591    4.5539   -8.8066 C   0  0  0  0  0  0  0  0  0  0  0  0
   -8.4673    5.5569   -8.4657 C   0  0  0  0  0  0  0  0  0  0  0  0
   -9.5889    4.4428  -10.3348 C   0  0  0  0  0  0  0  0  0  0  0  0
   -8.1429    6.2378   -9.7846 C   0  0  0  0  0  0  0  0  0  0  0  0
   -7.0833    4.1745  -10.8116 C   0  0  0  0  0  0  0  0  0  0  0  0
   -8.9886    3.6237  -13.3629 C   0  0  0  0  0  0  0  0  0  0  0  0
   -8.4957    5.8374  -12.2297 C   0  0  0  0  0  0  0  0  0  0  0  0
   -6.7240    3.3752  -12.0707 C   0  0  1  0  0  0  0  0  0  0  0  0
   -7.9041    2.7057  -12.7838 C   0  0  2  0  0  0  0  0  0  0  0  0
   -8.3089    5.1330  -10.8651 C   0  0  0  0  0  0  0  0  0  0  0  0
   -7.0130    5.7029  -17.2176 C   0  0  0  0  0  0  0  0  0  0  0  0
   -8.7294    4.0623  -18.0372 C   0  0  0  0  0  0  0  0  0  0  0  0
   -9.4435    6.3524  -17.2929 C   0  0  0  0  0  0  0  0  0  0  0  0
   -8.4522    5.2111  -17.0700 C   0  0  0  0  0  0  0  0  0  0  0  0
   -8.6027    5.0279  -13.4531 N   0  0  0  0  0  0  0  0  0  0  0  0
   -8.0886    6.7716  -14.9176 O   0  0  0  0  0  0  0  0  0  0  0  0
   -6.0089    4.2063  -12.9888 O   0  0  0  0  0  0  0  0  0  0  0  0
   -7.3832    1.9243  -13.8670 O   0  0  0  0  0  0  0  0  0  0  0  0
   -8.6277    4.7078  -15.7407 O   0  0  0  0  0  0  0  0  0  0  0  0
   -9.3384    3.5807   -8.3507 H   0  0  0  0  0  0  0  0  0  0  0  0
  -10.5360    4.8731   -8.4240 H   0  0  0  0  0  0  0  0  0  0  0  0
   -8.7909    6.2745   -7.7096 H   0  0  0  0  0  0  0  0  0  0  0  0
   -7.5883    5.0366   -8.0759 H   0  0  0  0  0  0  0  0  0  0  0  0
   -9.6760    3.3970  -10.6591 H   0  0  0  0  0  0  0  0  0  0  0  0
  -10.4858    4.9637  -10.7047 H   0  0  0  0  0  0  0  0  0  0  0  0
   -8.8616    7.0491   -9.9521 H   0  0  0  0  0  0  0  0  0  0  0  0
   -7.1421    6.6793   -9.7785 H   0  0  0  0  0  0  0  0  0  0  0  0
   -7.2192    3.4551   -9.9756 H   0  0  0  0  0  0  0  0  0  0  0  0
   -6.1905    4.7494  -10.4846 H   0  0  0  0  0  0  0  0  0  0  0  0
   -9.2573    3.2638  -14.3665 H   0  0  0  0  0  0  0  0  0  0  0  0
   -9.9008    3.5591  -12.7530 H   0  0  0  0  0  0  0  0  0  0  0  0
   -9.4070    6.4864  -12.1939 H   0  0  0  0  0  0  0  0  0  0  0  0
   -7.6755    6.5828  -12.3851 H   0  0  0  0  0  0  0  0  0  0  0  0
   -5.9806    2.5640  -11.7780 H   0  0  0  0  0  0  0  0  0  0  0  0
   -8.3780    1.9876  -12.1137 H   0  0  0  0  0  0  0  0  0  0  0  0
   -6.8100    6.5275  -16.5249 H   0  0  0  0  0  0  0  0  0  0  0  0
   -6.2914    4.9020  -17.0258 H   0  0  0  0  0  0  0  0  0  0  0  0
   -6.8352    6.0949  -18.2255 H   0  0  0  0  0  0  0  0  0  0  0  0
   -9.7609    3.7064  -17.9348 H   0  0  0  0  0  0  0  0  0  0  0  0
   -8.0836    3.2040  -17.8192 H   0  0  0  0  0  0  0  0  0  0  0  0
   -8.5679    4.3623  -19.0777 H   0  0  0  0  0  0  0  0  0  0  0  0
  -10.4759    5.9999  -17.1871 H   0  0  0  0  0  0  0  0  0  0  0  0
   -9.2831    7.1703  -16.5831 H   0  0  0  0  0  0  0  0  0  0  0  0
   -9.3558    6.7516  -18.3099 H   0  0  0  0  0  0  0  0  0  0  0  0
   -5.2116    4.4947  -12.5233 H   0  0  0  0  0  0  0  0  0  0  0  0
   -7.0211    2.5542  -14.5075 H   0  0  0  0  0  0  0  0  0  0  0  0
  1 16  1  0  0  0  0
  1 17  2  0  0  0  0
  1 20  1  0  0  0  0
  2  3  1  0  0  0  0
  2  4  1  0  0  0  0
  3  5  1  0  0  0  0
  4 11  1  0  0  0  0
  5 11  1  0  0  0  0
  6  9  1  0  0  0  0
  6 11  1  0  0  0  0
  7 10  1  0  0  0  0
  7 16  1  0  0  0  0
  8 11  1  0  0  0  0
  8 16  1  0  0  0  0
  9 10  1  0  0  0  0
  9 18  1  1  0  0  0
 10 19  1  1  0  0  0
 12 15  1  0  0  0  0
 13 15  1  0  0  0  0
 14 15  1  0  0  0  0
 15 20  1  0  0  0  0
  2 21  1  0  0  0  0
  2 22  1  0  0  0  0
  3 23  1  0  0  0  0
  3 24  1  0  0  0  0
  4 25  1  0  0  0  0
  4 26  1  0  0  0  0
  5 27  1  0  0  0  0
  5 28  1  0  0  0  0
  6 29  1  0  0  0  0
  6 30  1  0  0  0  0
  7 31  1  0  0  0  0
  7 32  1  0  0  0  0
  8 33  1  0  0  0  0
  8 34  1  0  0  0  0
  9 35  1  0  0  0  0
 10 36  1  0  0  0  0
 12 37  1  0  0  0  0
 12 38  1  0  0  0  0
 12 39  1  0  0  0  0
 13 40  1  0  0  0  0
 13 41  1  0  0  0  0
 13 42  1  0  0  0  0
 14 43  1  0  0  0  0
 14 44  1  0  0  0  0
 14 45  1  0  0  0  0
 18 46  1  0  0  0  0
 19 47  1  0  0  0  0
M  END
> <id>
EN300-28229131

> <smiles>
CC(C)(C)OC(=O)N1C[C@@H](O)[C@@H](O)CC2(CCCC2)C1 |&1:9,11,r|

> <IUPAC Name>
rac-tert-butyl (9R,10S)-9,10-dihydroxy-7-azaspiro[4.6]undecane-7-carboxylate

> <CAS>
2639377-87-8

> <URL>
https://www.enaminestore.com/catalog/EN300-28229131

> <ROCS_ShapeQuery>
_x0404_0B

> <ROCS_TanimotoCombo>
0.396 

> <ROCS_ShapeTanimoto>
0.283 

> <ROCS_ColorTanimoto>
0.112 

> <ROCS_RefTversky>
0.260 

> <ROCS_RefColorTversky>
0.117 

> <ROCS_RefTverskyCombo>
0.377 

> <ROCS_FitTversky>
1.477 

> <ROCS_FitColorTversky>
0.742 

> <ROCS_FitTverskyCombo>
2.219 

> <ROCS_ColorScore>
-8.445

> <ROCS_Overlap>
1732.039

> <ROCS_Rank>
145                 

$$$$
untitled-dbase-34190_102
  -OEChem-08212314543D

 45 47  0     0  0  0  0  0  0999 V2000
   -9.1170    1.9080   -8.5284 C   0  0  0  0  0  0  0  0  0  0  0  0
   -8.9232    3.9088   -7.8661 C   0  0  0  0  0  0  0  0  0  0  0  0
   -9.0402    3.9893   -9.2349 C   0  0  0  0  0  0  0  0  0  0  0  0
   -8.6476    5.5748  -14.4247 C   0  0  0  0  0  0  0  0  0  0  0  0
   -8.7767    5.1065   -7.0134 C   0  0  0  0  0  0  0  0  0  0  0  0
   -7.6841    5.3347  -10.8550 C   0  0  0  0  0  0  0  0  0  0  0  0
  -10.2364    5.3166  -11.0099 C   0  0  0  0  0  0  0  0  0  0  0  0
   -8.3486    6.3074   -7.8843 C   0  0  0  0  0  0  0  0  0  0  0  0
   -7.8365    6.1261  -12.1497 C   0  0  0  0  0  0  0  0  0  0  0  0
   -9.9393    4.7925  -12.4137 C   0  0  0  0  0  0  0  0  0  0  0  0
   -9.0104    5.2478  -10.0555 C   0  0  0  0  0  0  0  0  0  0  0  0
   -7.5437    4.5193  -16.8437 C   0  0  0  0  0  0  0  0  0  0  0  0
   -9.6668    3.1880  -17.0145 C   0  0  0  0  0  0  0  0  0  0  0  0
   -9.7567    5.6975  -17.0656 C   0  0  0  0  0  0  0  0  0  0  0  0
   -9.0317    4.4776  -16.4990 C   0  0  0  0  0  0  0  0  0  0  0  0
   -8.9759    2.6169   -7.4268 N   0  0  0  0  0  0  0  0  0  0  0  0
   -9.1591    2.6945   -9.6518 N   0  0  0  0  0  0  0  0  0  0  0  0
   -9.1350    6.4252   -9.1330 N   0  0  0  0  0  0  0  0  0  0  0  0
   -8.8171    5.5017  -13.0385 N   0  0  0  0  0  0  0  0  0  0  0  0
   -8.0886    6.5028  -15.0062 O   0  0  0  0  0  0  0  0  0  0  0  0
   -9.1697    4.4866  -15.0735 O   0  0  0  0  0  0  0  0  0  0  0  0
   -9.1915    0.8313   -8.5851 H   0  0  0  0  0  0  0  0  0  0  0  0
   -9.7371    5.3221   -6.5312 H   0  0  0  0  0  0  0  0  0  0  0  0
   -8.0352    4.9338   -6.2266 H   0  0  0  0  0  0  0  0  0  0  0  0
   -7.3396    4.3226  -11.1050 H   0  0  0  0  0  0  0  0  0  0  0  0
   -6.8853    5.7775  -10.2498 H   0  0  0  0  0  0  0  0  0  0  0  0
  -10.6129    6.3476  -11.0770 H   0  0  0  0  0  0  0  0  0  0  0  0
  -11.0656    4.7261  -10.5925 H   0  0  0  0  0  0  0  0  0  0  0  0
   -8.4694    7.2305   -7.3060 H   0  0  0  0  0  0  0  0  0  0  0  0
   -7.2815    6.2375   -8.1257 H   0  0  0  0  0  0  0  0  0  0  0  0
   -8.1820    7.1463  -11.9499 H   0  0  0  0  0  0  0  0  0  0  0  0
   -6.8654    6.2071  -12.6476 H   0  0  0  0  0  0  0  0  0  0  0  0
   -9.7460    3.7138  -12.3616 H   0  0  0  0  0  0  0  0  0  0  0  0
  -10.8086    4.9213  -13.0743 H   0  0  0  0  0  0  0  0  0  0  0  0
   -7.0841    5.4435  -16.4753 H   0  0  0  0  0  0  0  0  0  0  0  0
   -7.0059    3.6681  -16.4135 H   0  0  0  0  0  0  0  0  0  0  0  0
   -7.3934    4.5108  -17.9293 H   0  0  0  0  0  0  0  0  0  0  0  0
  -10.7345    3.1538  -16.7693 H   0  0  0  0  0  0  0  0  0  0  0  0
   -9.2125    2.3116  -16.5381 H   0  0  0  0  0  0  0  0  0  0  0  0
   -9.5568    3.0890  -18.0992 H   0  0  0  0  0  0  0  0  0  0  0  0
  -10.8240    5.6678  -16.8185 H   0  0  0  0  0  0  0  0  0  0  0  0
   -9.3380    6.6317  -16.6776 H   0  0  0  0  0  0  0  0  0  0  0  0
   -9.6930    5.7152  -18.1597 H   0  0  0  0  0  0  0  0  0  0  0  0
   -9.2566    2.3714  -10.6056 H   0  0  0  0  0  0  0  0  0  0  0  0
  -10.1171    6.5379   -8.8752 H   0  0  0  0  0  0  0  0  0  0  0  0
  1 16  2  0  0  0  0
  1 17  1  0  0  0  0
  2  3  2  0  0  0  0
  2  5  1  0  0  0  0
  2 16  1  0  0  0  0
  3 11  1  0  0  0  0
  3 17  1  0  0  0  0
  4 19  1  0  0  0  0
  4 20  2  0  0  0  0
  4 21  1  0  0  0  0
  5  8  1  0  0  0  0
  6  9  1  0  0  0  0
  6 11  1  0  0  0  0
  7 10  1  0  0  0  0
  7 11  1  0  0  0  0
  8 18  1  0  0  0  0
  9 19  1  0  0  0  0
 10 19  1  0  0  0  0
 11 18  1  0  0  0  0
 12 15  1  0  0  0  0
 13 15  1  0  0  0  0
 14 15  1  0  0  0  0
 15 21  1  0  0  0  0
  1 22  1  0  0  0  0
  5 23  1  0  0  0  0
  5 24  1  0  0  0  0
  6 25  1  0  0  0  0
  6 26  1  0  0  0  0
  7 27  1  0  0  0  0
  7 28  1  0  0  0  0
  8 29  1  0  0  0  0
  8 30  1  0  0  0  0
  9 31  1  0  0  0  0
  9 32  1  0  0  0  0
 10 33  1  0  0  0  0
 10 34  1  0  0  0  0
 12 35  1  0  0  0  0
 12 36  1  0  0  0  0
 12 37  1  0  0  0  0
 13 38  1  0  0  0  0
 13 39  1  0  0  0  0
 13 40  1  0  0  0  0
 14 41  1  0  0  0  0
 14 42  1  0  0  0  0
 14 43  1  0  0  0  0
 17 44  1  0  0  0  0
 18 45  1  0  0  0  0
M  END
> <id>
EN300-264035

> <smiles>
CC(C)(C)OC(=O)N1CCC2(CC1)NCCC=3N=CNC32

> <MDLNUMBER>
MFCD25953522

> <IUPAC Name>
tert-butyl 3,5,6,7-tetrahydrospiro[imidazo[4,5-c]pyridine-4,4'-piperidine]-1'-carboxylate

> <CAS>
1443978-00-4

> <Purity>
95

> <URL>
https://www.enaminestore.com/catalog/EN300-264035

> <ROCS_ShapeQuery>
_x0404_0B

> <ROCS_TanimotoCombo>
0.396 

> <ROCS_ShapeTanimoto>
0.313 

> <ROCS_ColorTanimoto>
0.083 

> <ROCS_RefTversky>
0.283 

> <ROCS_RefColorTversky>
0.090 

> <ROCS_RefTverskyCombo>
0.373 

> <ROCS_FitTversky>
1.508 

> <ROCS_FitColorTversky>
0.491 

> <ROCS_FitTverskyCombo>
1.999 

> <ROCS_ColorScore>
-6.529

> <ROCS_Overlap>
1889.505

> <ROCS_Rank>
146                 

$$$$
untitled-dbase-42763_1000
  -OEChem-08212314543D

 47 49  0     0  0  0  0  0  0999 V2000
   -8.3771    6.3042  -14.7441 C   0  0  0  0  0  0  0  0  0  0  0  0
   -9.6427    6.5016  -11.3388 C   0  0  0  0  0  0  0  0  0  0  0  0
   -7.4751    5.2032  -11.4263 C   0  0  0  0  0  0  0  0  0  0  0  0
   -9.7189    4.0942   -7.5668 C   0  0  0  0  0  0  0  0  0  0  0  0
   -7.8240    3.4045   -8.3559 C   0  0  0  0  0  0  0  0  0  0  0  0
   -8.5071    5.7949   -9.1248 C   0  0  0  0  0  0  0  0  0  0  0  0
   -9.5243    4.1718  -10.1556 C   0  0  0  0  0  0  0  0  0  0  0  0
   -9.9392    6.0594  -12.7697 C   0  0  0  0  0  0  0  0  0  0  0  0
   -7.8066    4.7933  -12.8593 C   0  0  0  0  0  0  0  0  0  0  0  0
   -8.8710    2.8082   -7.3766 C   0  0  0  0  0  0  0  0  0  0  0  0
   -8.7655    5.4605  -10.6334 C   0  0  0  0  0  0  0  0  0  0  0  0
   -8.8943    4.3773   -8.7969 C   0  0  0  0  0  0  0  0  0  0  0  0
   -8.3942    6.2911  -17.6060 C   0  0  0  0  0  0  0  0  0  0  0  0
   -7.1032    4.1445  -17.4194 C   0  0  0  0  0  0  0  0  0  0  0  0
   -9.4321    4.2880  -16.4901 C   0  0  0  0  0  0  0  0  0  0  0  0
   -8.1345    5.0514  -16.7514 C   0  0  0  0  0  0  0  0  0  0  0  0
   -8.6979    5.7644  -13.4946 N   0  0  0  0  0  0  0  0  0  0  0  0
   -8.7526    7.4063  -15.1397 O   0  0  0  0  0  0  0  0  0  0  0  0
   -9.4995    1.5833   -7.8011 O   0  0  0  0  0  0  0  0  0  0  0  0
   -7.5908    5.4702  -15.4943 O   0  0  0  0  0  0  0  0  0  0  0  0
   -9.1580    7.4838  -11.3569 H   0  0  0  0  0  0  0  0  0  0  0  0
  -10.5873    6.6242  -10.7944 H   0  0  0  0  0  0  0  0  0  0  0  0
   -6.8919    4.4086  -10.9430 H   0  0  0  0  0  0  0  0  0  0  0  0
   -6.8405    6.0977  -11.4404 H   0  0  0  0  0  0  0  0  0  0  0  0
  -10.7817    3.8953   -7.7608 H   0  0  0  0  0  0  0  0  0  0  0  0
   -9.6493    4.8186   -6.7469 H   0  0  0  0  0  0  0  0  0  0  0  0
   -6.9382    3.8366   -7.8823 H   0  0  0  0  0  0  0  0  0  0  0  0
   -7.4994    2.7036   -9.1336 H   0  0  0  0  0  0  0  0  0  0  0  0
   -7.4610    6.0403   -8.8935 H   0  0  0  0  0  0  0  0  0  0  0  0
   -9.1355    6.5829   -8.6920 H   0  0  0  0  0  0  0  0  0  0  0  0
  -10.6145    4.2210  -10.1929 H   0  0  0  0  0  0  0  0  0  0  0  0
   -9.2039    3.2519  -10.6544 H   0  0  0  0  0  0  0  0  0  0  0  0
  -10.6086    5.1959  -12.7537 H   0  0  0  0  0  0  0  0  0  0  0  0
  -10.4474    6.8562  -13.3241 H   0  0  0  0  0  0  0  0  0  0  0  0
   -6.8958    4.7474  -13.4689 H   0  0  0  0  0  0  0  0  0  0  0  0
   -8.2545    3.7939  -12.8647 H   0  0  0  0  0  0  0  0  0  0  0  0
   -8.4854    2.7050   -6.3552 H   0  0  0  0  0  0  0  0  0  0  0  0
   -9.1339    6.9446  -17.1299 H   0  0  0  0  0  0  0  0  0  0  0  0
   -7.4774    6.8663  -17.7715 H   0  0  0  0  0  0  0  0  0  0  0  0
   -8.8094    6.0135  -18.5816 H   0  0  0  0  0  0  0  0  0  0  0  0
   -6.9137    3.2537  -16.8096 H   0  0  0  0  0  0  0  0  0  0  0  0
   -6.1405    4.6582  -17.5228 H   0  0  0  0  0  0  0  0  0  0  0  0
   -7.4322    3.8214  -18.4123 H   0  0  0  0  0  0  0  0  0  0  0  0
   -9.2461    3.3987  -15.8771 H   0  0  0  0  0  0  0  0  0  0  0  0
  -10.1712    4.9125  -15.9778 H   0  0  0  0  0  0  0  0  0  0  0  0
   -9.8695    3.9303  -17.4292 H   0  0  0  0  0  0  0  0  0  0  0  0
   -8.8588    0.8823   -7.6222 H   0  0  0  0  0  0  0  0  0  0  0  0
  1 17  1  0  0  0  0
  1 18  2  0  0  0  0
  1 20  1  0  0  0  0
  2  8  1  0  0  0  0
  2 11  1  0  0  0  0
  3  9  1  0  0  0  0
  3 11  1  0  0  0  0
  4 10  1  0  0  0  0
  4 12  1  0  0  0  0
  5 10  1  0  0  0  0
  5 12  1  0  0  0  0
  6 11  1  0  0  0  0
  6 12  1  0  0  0  0
  7 11  1  0  0  0  0
  7 12  1  0  0  0  0
  8 17  1  0  0  0  0
  9 17  1  0  0  0  0
 10 19  1  0  0  0  0
 13 16  1  0  0  0  0
 14 16  1  0  0  0  0
 15 16  1  0  0  0  0
 16 20  1  0  0  0  0
  2 21  1  0  0  0  0
  2 22  1  0  0  0  0
  3 23  1  0  0  0  0
  3 24  1  0  0  0  0
  4 25  1  0  0  0  0
  4 26  1  0  0  0  0
  5 27  1  0  0  0  0
  5 28  1  0  0  0  0
  6 29  1  0  0  0  0
  6 30  1  0  0  0  0
  7 31  1  0  0  0  0
  7 32  1  0  0  0  0
  8 33  1  0  0  0  0
  8 34  1  0  0  0  0
  9 35  1  0  0  0  0
  9 36  1  0  0  0  0
 10 37  1  0  0  0  0
 13 38  1  0  0  0  0
 13 39  1  0  0  0  0
 13 40  1  0  0  0  0
 14 41  1  0  0  0  0
 14 42  1  0  0  0  0
 14 43  1  0  0  0  0
 15 44  1  0  0  0  0
 15 45  1  0  0  0  0
 15 46  1  0  0  0  0
 19 47  1  0  0  0  0
M  END
> <id>
EN300-39844966

> <smiles>
CC(C)(C)OC(=O)N1CCC2(CC3(CC(O)C3)C2)CC1

> <IUPAC Name>
tert-butyl 2-hydroxy-9-azadispiro[3.1.5^{6}.1^{4}]dodecane-9-carboxylate

> <Purity>
95

> <URL>
https://www.enaminestore.com/catalog/EN300-39844966

> <ROCS_ShapeQuery>
_x0404_0B

> <ROCS_TanimotoCombo>
0.396 

> <ROCS_ShapeTanimoto>
0.317 

> <ROCS_ColorTanimoto>
0.079 

> <ROCS_RefTversky>
0.283 

> <ROCS_RefColorTversky>
0.084 

> <ROCS_RefTverskyCombo>
0.367 

> <ROCS_FitTversky>
1.594 

> <ROCS_FitColorTversky>
0.577 

> <ROCS_FitTverskyCombo>
2.172 

> <ROCS_ColorScore>
-6.037

> <ROCS_Overlap>
1889.338

> <ROCS_Rank>
147                 

$$$$
untitled-dbase-34339_76
  -OEChem-08212314543D

 48 50  0     1  0  0  0  0  0999 V2000
   -9.0165    1.7162   -8.8034 C   0  0  0  0  0  0  0  0  0  0  0  0
   -9.4216    3.6533   -8.0540 C   0  0  0  0  0  0  0  0  0  0  0  0
   -8.9812    3.8490   -9.3431 C   0  0  0  0  0  0  0  0  0  0  0  0
   -8.0486    5.7258  -14.3550 C   0  0  0  0  0  0  0  0  0  0  0  0
   -9.8027    4.7733   -7.1703 C   0  0  0  0  0  0  0  0  0  0  0  0
   -7.4275    5.3317  -10.6434 C   0  0  0  0  0  0  0  0  0  0  0  0
   -9.9339    5.2935  -11.1525 C   0  0  0  0  0  0  0  0  0  0  0  0
  -10.0404    6.0406   -8.0178 C   0  0  0  0  0  0  0  0  0  0  0  0
   -7.3311    4.8854  -12.0998 C   0  0  0  0  0  0  0  0  0  0  0  0
   -9.5205    6.1053  -12.3903 C   0  0  1  0  0  0  0  0  0  0  0  0
   -8.8497    5.1734  -10.0478 C   0  0  1  0  0  0  0  0  0  0  0  0
   -9.4370    7.6113  -12.1341 C   0  0  0  0  0  0  0  0  0  0  0  0
   -6.2712    5.9704  -16.5837 C   0  0  0  0  0  0  0  0  0  0  0  0
   -6.3096    3.4598  -16.6538 C   0  0  0  0  0  0  0  0  0  0  0  0
   -8.4298    4.7539  -17.0255 C   0  0  0  0  0  0  0  0  0  0  0  0
   -7.0935    4.7176  -16.2853 C   0  0  0  0  0  0  0  0  0  0  0  0
   -9.4387    2.3300   -7.7170 N   0  0  0  0  0  0  0  0  0  0  0  0
   -8.7280    2.5935   -9.8178 N   0  0  0  0  0  0  0  0  0  0  0  0
   -8.9838    6.2575   -9.0254 N   0  0  0  0  0  0  0  0  0  0  0  0
   -8.2696    5.5961  -12.9762 N   0  0  0  0  0  0  0  0  0  0  0  0
   -8.4384    6.6754  -15.0323 O   0  0  0  0  0  0  0  0  0  0  0  0
   -7.3531    4.6673  -14.8778 O   0  0  0  0  0  0  0  0  0  0  0  0
   -8.8983    0.6487   -8.9237 H   0  0  0  0  0  0  0  0  0  0  0  0
  -10.7067    4.5295   -6.6018 H   0  0  0  0  0  0  0  0  0  0  0  0
   -8.9934    4.9539   -6.4523 H   0  0  0  0  0  0  0  0  0  0  0  0
   -6.7036    4.7471  -10.0561 H   0  0  0  0  0  0  0  0  0  0  0  0
   -7.0966    6.3780  -10.5639 H   0  0  0  0  0  0  0  0  0  0  0  0
  -10.8712    5.6874  -10.7435 H   0  0  0  0  0  0  0  0  0  0  0  0
  -10.1810    4.2799  -11.4992 H   0  0  0  0  0  0  0  0  0  0  0  0
  -11.0202    5.9919   -8.5063 H   0  0  0  0  0  0  0  0  0  0  0  0
  -10.0696    6.9069   -7.3479 H   0  0  0  0  0  0  0  0  0  0  0  0
   -6.3224    5.0482  -12.5018 H   0  0  0  0  0  0  0  0  0  0  0  0
   -7.5114    3.8040  -12.1564 H   0  0  0  0  0  0  0  0  0  0  0  0
  -10.3177    5.9742  -13.0999 H   0  0  0  0  0  0  0  0  0  0  0  0
   -8.6438    7.8181  -11.4187 H   0  0  0  0  0  0  0  0  0  0  0  0
  -10.3833    7.9680  -11.7331 H   0  0  0  0  0  0  0  0  0  0  0  0
   -9.2237    8.1305  -13.0661 H   0  0  0  0  0  0  0  0  0  0  0  0
   -6.8305    6.8754  -16.3205 H   0  0  0  0  0  0  0  0  0  0  0  0
   -5.3256    5.9732  -16.0317 H   0  0  0  0  0  0  0  0  0  0  0  0
   -6.0474    6.0456  -17.6539 H   0  0  0  0  0  0  0  0  0  0  0  0
   -6.8958    2.5585  -16.4414 H   0  0  0  0  0  0  0  0  0  0  0  0
   -5.3946    3.3810  -16.0557 H   0  0  0  0  0  0  0  0  0  0  0  0
   -6.0331    3.4520  -17.7131 H   0  0  0  0  0  0  0  0  0  0  0  0
   -9.0198    3.8554  -16.8116 H   0  0  0  0  0  0  0  0  0  0  0  0
   -9.0222    5.6310  -16.7455 H   0  0  0  0  0  0  0  0  0  0  0  0
   -8.2741    4.7707  -18.1102 H   0  0  0  0  0  0  0  0  0  0  0  0
   -8.3945    2.3510  -10.7419 H   0  0  0  0  0  0  0  0  0  0  0  0
   -9.1084    7.1657   -9.4672 H   0  0  0  0  0  0  0  0  0  0  0  0
  1 17  2  0  0  0  0
  1 18  1  0  0  0  0
  2  3  2  0  0  0  0
  2  5  1  0  0  0  0
  2 17  1  0  0  0  0
  3 11  1  0  0  0  0
  3 18  1  0  0  0  0
  4 20  1  0  0  0  0
  4 21  2  0  0  0  0
  4 22  1  0  0  0  0
  5  8  1  0  0  0  0
  6  9  1  0  0  0  0
  6 11  1  0  0  0  0
  7 10  1  0  0  0  0
  7 11  1  0  0  0  0
  8 19  1  0  0  0  0
  9 20  1  0  0  0  0
 10 12  1  0  0  0  0
 10 20  1  0  0  0  0
 11 19  1  0  0  0  0
 13 16  1  0  0  0  0
 14 16  1  0  0  0  0
 15 16  1  0  0  0  0
 16 22  1  0  0  0  0
  1 23  1  0  0  0  0
  5 24  1  0  0  0  0
  5 25  1  0  0  0  0
  6 26  1  0  0  0  0
  6 27  1  0  0  0  0
  7 28  1  0  0  0  0
  7 29  1  0  0  0  0
  8 30  1  0  0  0  0
  8 31  1  0  0  0  0
  9 32  1  0  0  0  0
  9 33  1  0  0  0  0
 10 34  1  0  0  0  0
 12 35  1  0  0  0  0
 12 36  1  0  0  0  0
 12 37  1  0  0  0  0
 13 38  1  0  0  0  0
 13 39  1  0  0  0  0
 13 40  1  0  0  0  0
 14 41  1  0  0  0  0
 14 42  1  0  0  0  0
 14 43  1  0  0  0  0
 15 44  1  0  0  0  0
 15 45  1  0  0  0  0
 15 46  1  0  0  0  0
 18 47  1  0  0  0  0
 19 48  1  0  0  0  0
M  END
> <id>
EN300-1076175

> <smiles>
CC1CC2(CCN1C(=O)OC(C)(C)C)NCCC=3N=CNC32

> <IUPAC Name>
tert-butyl 6'-methyl-3,5,6,7-tetrahydrospiro[imidazo[4,5-c]pyridine-4,4'-piperidine]-1'-carboxylate

> <CAS>
1999028-45-3

> <URL>
https://www.enaminestore.com/catalog/EN300-1076175

> <ROCS_ShapeQuery>
_x0404_0B

> <ROCS_TanimotoCombo>
0.395 

> <ROCS_ShapeTanimoto>
0.312 

> <ROCS_ColorTanimoto>
0.083 

> <ROCS_RefTversky>
0.284 

> <ROCS_RefColorTversky>
0.091 

> <ROCS_RefTverskyCombo>
0.375 

> <ROCS_FitTversky>
1.466 

> <ROCS_FitColorTversky>
0.495 

> <ROCS_FitTverskyCombo>
1.961 

> <ROCS_ColorScore>
-6.589

> <ROCS_Overlap>
1894.938

> <ROCS_Rank>
148                 

$$$$
untitled-dbase-10087_34
  -OEChem-08212314543D

 43 45  0     0  0  0  0  0  0999 V2000
   -7.0855    5.2653  -17.4709 C   0  0  0  0  0  0  0  0  0  0  0  0
   -7.1477    5.9385  -16.2511 C   0  0  0  0  0  0  0  0  0  0  0  0
   -9.3342    4.4338  -17.1387 C   0  0  0  0  0  0  0  0  0  0  0  0
   -9.3965    5.1082  -15.9168 C   0  0  0  0  0  0  0  0  0  0  0  0
   -8.1747    4.5122  -17.9117 C   0  0  0  0  0  0  0  0  0  0  0  0
   -8.2993    5.8490  -15.4702 C   0  0  0  0  0  0  0  0  0  0  0  0
  -10.6315    5.0732  -15.1045 C   0  0  0  0  0  0  0  0  0  0  0  0
   -8.7906    5.1557   -9.9563 C   0  0  0  0  0  0  0  0  0  0  0  0
  -10.6057    5.8534  -13.8147 C   0  0  0  0  0  0  0  0  0  0  0  0
   -8.6494    4.7594  -12.5001 C   0  0  0  0  0  0  0  0  0  0  0  0
   -9.1389    6.7693  -11.9160 C   0  0  0  0  0  0  0  0  0  0  0  0
   -9.1893    6.0014  -13.2596 C   0  0  0  0  0  0  0  0  0  0  0  0
   -8.1018    3.7952  -19.2181 C   0  0  0  0  0  0  0  0  0  0  0  0
  -10.0611    4.1883   -7.5896 C   0  0  0  0  0  0  0  0  0  0  0  0
   -9.4651    1.8969   -8.4282 C   0  0  0  0  0  0  0  0  0  0  0  0
   -7.6467    3.5431   -7.8880 C   0  0  0  0  0  0  0  0  0  0  0  0
   -9.0698    3.3720   -8.4176 C   0  0  0  0  0  0  0  0  0  0  0  0
   -8.8589    5.5023  -11.2772 N   0  0  0  0  0  0  0  0  0  0  0  0
  -11.6327    4.4828  -15.4932 O   0  0  0  0  0  0  0  0  0  0  0  0
   -8.4786    5.9287   -9.0548 O   0  0  0  0  0  0  0  0  0  0  0  0
   -8.3049    6.5317  -14.2784 O   0  0  0  0  0  0  0  0  0  0  0  0
   -9.1121    3.8397   -9.7702 O   0  0  0  0  0  0  0  0  0  0  0  0
   -6.1828    5.3331  -18.0725 H   0  0  0  0  0  0  0  0  0  0  0  0
   -6.2954    6.5219  -15.9140 H   0  0  0  0  0  0  0  0  0  0  0  0
  -10.1797    3.8534  -17.4991 H   0  0  0  0  0  0  0  0  0  0  0  0
  -11.0412    6.8389  -14.0184 H   0  0  0  0  0  0  0  0  0  0  0  0
  -11.2518    5.3414  -13.0917 H   0  0  0  0  0  0  0  0  0  0  0  0
   -9.2537    3.8510  -12.5727 H   0  0  0  0  0  0  0  0  0  0  0  0
   -7.5955    4.5208  -12.6719 H   0  0  0  0  0  0  0  0  0  0  0  0
   -8.3174    7.4843  -11.8128 H   0  0  0  0  0  0  0  0  0  0  0  0
  -10.0748    7.2285  -11.5862 H   0  0  0  0  0  0  0  0  0  0  0  0
   -7.7029    2.7835  -19.0761 H   0  0  0  0  0  0  0  0  0  0  0  0
   -9.0921    3.7169  -19.6848 H   0  0  0  0  0  0  0  0  0  0  0  0
   -7.4566    4.3277  -19.9287 H   0  0  0  0  0  0  0  0  0  0  0  0
   -9.7808    5.2477   -7.5794 H   0  0  0  0  0  0  0  0  0  0  0  0
  -11.0803    4.1020   -7.9802 H   0  0  0  0  0  0  0  0  0  0  0  0
  -10.0621    3.8588   -6.5442 H   0  0  0  0  0  0  0  0  0  0  0  0
   -8.7565    1.3074   -9.0212 H   0  0  0  0  0  0  0  0  0  0  0  0
  -10.4473    1.7594   -8.8947 H   0  0  0  0  0  0  0  0  0  0  0  0
   -9.5006    1.4808   -7.4162 H   0  0  0  0  0  0  0  0  0  0  0  0
   -6.9355    2.9576   -8.4818 H   0  0  0  0  0  0  0  0  0  0  0  0
   -7.3325    4.5916   -7.9076 H   0  0  0  0  0  0  0  0  0  0  0  0
   -7.5671    3.1749   -6.8588 H   0  0  0  0  0  0  0  0  0  0  0  0
  1  2  1  0  0  0  0
  1  5  2  0  0  0  0
  2  6  2  0  0  0  0
  3  4  2  0  0  0  0
  3  5  1  0  0  0  0
  4  6  1  0  0  0  0
  4  7  1  0  0  0  0
  5 13  1  0  0  0  0
  6 21  1  0  0  0  0
  7  9  1  0  0  0  0
  7 19  2  0  0  0  0
  8 18  1  0  0  0  0
  8 20  2  0  0  0  0
  8 22  1  0  0  0  0
  9 12  1  0  0  0  0
 10 12  1  0  0  0  0
 10 18  1  0  0  0  0
 11 12  1  0  0  0  0
 11 18  1  0  0  0  0
 12 21  1  0  0  0  0
 14 17  1  0  0  0  0
 15 17  1  0  0  0  0
 16 17  1  0  0  0  0
 17 22  1  0  0  0  0
  1 23  1  0  0  0  0
  2 24  1  0  0  0  0
  3 25  1  0  0  0  0
  9 26  1  0  0  0  0
  9 27  1  0  0  0  0
 10 28  1  0  0  0  0
 10 29  1  0  0  0  0
 11 30  1  0  0  0  0
 11 31  1  0  0  0  0
 13 32  1  0  0  0  0
 13 33  1  0  0  0  0
 13 34  1  0  0  0  0
 14 35  1  0  0  0  0
 14 36  1  0  0  0  0
 14 37  1  0  0  0  0
 15 38  1  0  0  0  0
 15 39  1  0  0  0  0
 15 40  1  0  0  0  0
 16 41  1  0  0  0  0
 16 42  1  0  0  0  0
 16 43  1  0  0  0  0
M  END
> <id>
EN300-338195

> <smiles>
CC=1C=CC=2OC3(CN(C3)C(=O)OC(C)(C)C)CC(=O)C2C1

> <MDLNUMBER>
MFCD30499665

> <IUPAC Name>
tert-butyl 6'-methyl-4'-oxo-3',4'-dihydrospiro[azetidine-3,2'-[1]benzopyran]-1-carboxylate

> <CAS>
2059966-45-7

> <URL>
https://www.enaminestore.com/catalog/EN300-338195

> <ROCS_ShapeQuery>
_x0404_0B

> <ROCS_TanimotoCombo>
0.395 

> <ROCS_ShapeTanimoto>
0.350 

> <ROCS_ColorTanimoto>
0.046 

> <ROCS_RefTversky>
0.310 

> <ROCS_RefColorTversky>
0.050 

> <ROCS_RefTverskyCombo>
0.360 

> <ROCS_FitTversky>
1.589 

> <ROCS_FitColorTversky>
0.345 

> <ROCS_FitTverskyCombo>
1.933 

> <ROCS_ColorScore>
-3.600

> <ROCS_Overlap>
2066.909

> <ROCS_Rank>
149                 

$$$$
untitled-dbase-26222_291
  -OEChem-08212314543D

 43 45  0     0  0  0  0  0  0999 V2000
   -9.6099    2.9683   -6.5742 C   0  0  0  0  0  0  0  0  0  0  0  0
   -9.2242    2.0557   -7.5582 C   0  0  0  0  0  0  0  0  0  0  0  0
   -9.4612    4.3405   -6.7882 C   0  0  0  0  0  0  0  0  0  0  0  0
   -8.6935    2.5097   -8.7641 C   0  0  0  0  0  0  0  0  0  0  0  0
   -8.9271    4.8075   -7.9923 C   0  0  0  0  0  0  0  0  0  0  0  0
   -8.5653    3.8795   -8.9788 C   0  0  0  0  0  0  0  0  0  0  0  0
   -8.5562    5.7796  -14.4105 C   0  0  0  0  0  0  0  0  0  0  0  0
   -8.7459    6.2751   -8.2675 C   0  0  0  0  0  0  0  0  0  0  0  0
   -9.9953    5.8834  -10.3735 C   0  0  0  0  0  0  0  0  0  0  0  0
   -9.2351    4.4343  -12.3395 C   0  0  0  0  0  0  0  0  0  0  0  0
   -7.9353    6.0957  -11.9284 C   0  0  0  0  0  0  0  0  0  0  0  0
   -8.8021    5.1639  -11.0360 C   0  0  0  0  0  0  0  0  0  0  0  0
   -7.3608    5.4781  -16.9855 C   0  0  0  0  0  0  0  0  0  0  0  0
   -8.8534    3.4740  -17.2398 C   0  0  0  0  0  0  0  0  0  0  0  0
   -9.8620    5.7566  -16.9562 C   0  0  0  0  0  0  0  0  0  0  0  0
   -8.6929    4.8449  -16.5864 C   0  0  0  0  0  0  0  0  0  0  0  0
   -9.6402    6.8090   -9.2942 N   0  0  0  0  0  0  0  0  0  0  0  0
   -8.5734    5.4881  -13.0747 N   0  0  0  0  0  0  0  0  0  0  0  0
   -8.4297    6.9118  -14.8687 O   0  0  0  0  0  0  0  0  0  0  0  0
   -8.0074    4.3114  -10.1558 O   0  0  0  0  0  0  0  0  0  0  0  0
   -8.6977    4.6499  -15.1678 O   0  0  0  0  0  0  0  0  0  0  0  0
  -10.0377    2.6083   -5.6419 H   0  0  0  0  0  0  0  0  0  0  0  0
   -9.3398    0.9891   -7.3826 H   0  0  0  0  0  0  0  0  0  0  0  0
   -9.7750    5.0292   -6.0135 H   0  0  0  0  0  0  0  0  0  0  0  0
   -8.3764    1.7965   -9.5154 H   0  0  0  0  0  0  0  0  0  0  0  0
   -8.8223    6.8435   -7.3275 H   0  0  0  0  0  0  0  0  0  0  0  0
   -7.7173    6.4446   -8.6200 H   0  0  0  0  0  0  0  0  0  0  0  0
  -10.5279    6.4782  -11.1378 H   0  0  0  0  0  0  0  0  0  0  0  0
  -10.7385    5.1439  -10.0200 H   0  0  0  0  0  0  0  0  0  0  0  0
   -8.7757    3.4538  -12.5070 H   0  0  0  0  0  0  0  0  0  0  0  0
  -10.3109    4.3712  -12.5308 H   0  0  0  0  0  0  0  0  0  0  0  0
   -8.1287    7.1693  -11.8344 H   0  0  0  0  0  0  0  0  0  0  0  0
   -6.8550    5.9146  -11.9158 H   0  0  0  0  0  0  0  0  0  0  0  0
   -7.2417    6.4624  -16.5186 H   0  0  0  0  0  0  0  0  0  0  0  0
   -6.5124    4.8502  -16.6944 H   0  0  0  0  0  0  0  0  0  0  0  0
   -7.3146    5.6421  -18.0682 H   0  0  0  0  0  0  0  0  0  0  0  0
   -9.8078    3.0159  -16.9561 H   0  0  0  0  0  0  0  0  0  0  0  0
   -8.0690    2.7867  -16.9027 H   0  0  0  0  0  0  0  0  0  0  0  0
   -8.8112    3.5394  -18.3318 H   0  0  0  0  0  0  0  0  0  0  0  0
  -10.8176    5.3026  -16.6699 H   0  0  0  0  0  0  0  0  0  0  0  0
   -9.7828    6.7327  -16.4667 H   0  0  0  0  0  0  0  0  0  0  0  0
   -9.9064    5.9131  -18.0400 H   0  0  0  0  0  0  0  0  0  0  0  0
  -10.5183    7.0974   -8.8307 H   0  0  0  0  0  0  0  0  0  0  0  0
  1  2  2  0  0  0  0
  1  3  1  0  0  0  0
  2  4  1  0  0  0  0
  3  5  2  0  0  0  0
  4  6  2  0  0  0  0
  5  6  1  0  0  0  0
  5  8  1  0  0  0  0
  6 20  1  0  0  0  0
  7 18  1  0  0  0  0
  7 19  2  0  0  0  0
  7 21  1  0  0  0  0
  8 17  1  0  0  0  0
  9 12  1  0  0  0  0
  9 17  1  0  0  0  0
 10 12  1  0  0  0  0
 10 18  1  0  0  0  0
 11 12  1  0  0  0  0
 11 18  1  0  0  0  0
 12 20  1  0  0  0  0
 13 16  1  0  0  0  0
 14 16  1  0  0  0  0
 15 16  1  0  0  0  0
 16 21  1  0  0  0  0
  1 22  1  0  0  0  0
  2 23  1  0  0  0  0
  3 24  1  0  0  0  0
  4 25  1  0  0  0  0
  8 26  1  0  0  0  0
  8 27  1  0  0  0  0
  9 28  1  0  0  0  0
  9 29  1  0  0  0  0
 10 30  1  0  0  0  0
 10 31  1  0  0  0  0
 11 32  1  0  0  0  0
 11 33  1  0  0  0  0
 13 34  1  0  0  0  0
 13 35  1  0  0  0  0
 13 36  1  0  0  0  0
 14 37  1  0  0  0  0
 14 38  1  0  0  0  0
 14 39  1  0  0  0  0
 15 40  1  0  0  0  0
 15 41  1  0  0  0  0
 15 42  1  0  0  0  0
 17 43  1  0  0  0  0
M  END
> <id>
EN300-6738553

> <smiles>
CC(C)(C)OC(=O)N1CC2(C1)CNCC=3C=CC=CC3O2

> <MDLNUMBER>
MFCD31794889

> <IUPAC Name>
tert-butyl 4',5'-dihydro-3'H-spiro[azetidine-3,2'-[1,4]benzoxazepine]-1-carboxylate

> <CAS>
2287302-11-6

> <Purity>
95

> <URL>
https://www.enaminestore.com/catalog/EN300-6738553

> <ROCS_ShapeQuery>
_x0404_0B

> <ROCS_TanimotoCombo>
0.395 

> <ROCS_ShapeTanimoto>
0.331 

> <ROCS_ColorTanimoto>
0.064 

> <ROCS_RefTversky>
0.295 

> <ROCS_RefColorTversky>
0.070 

> <ROCS_RefTverskyCombo>
0.365 

> <ROCS_FitTversky>
1.573 

> <ROCS_FitColorTversky>
0.444 

> <ROCS_FitTverskyCombo>
2.018 

> <ROCS_ColorScore>
-5.059

> <ROCS_Overlap>
1969.951

> <ROCS_Rank>
150                 

$$$$
untitled-dbase-30710_152
  -OEChem-08212314543D

 38 39  0     0  0  0  0  0  0999 V2000
   -9.0373    5.4735   -8.8250 C   0  0  0  0  0  0  0  0  0  0  0  0
   -9.2397    4.2817   -8.1337 C   0  0  0  0  0  0  0  0  0  0  0  0
   -8.8555    3.0359  -10.1709 C   0  0  0  0  0  0  0  0  0  0  0  0
   -8.6631    4.2258  -10.8877 C   0  0  0  0  0  0  0  0  0  0  0  0
   -8.7649    5.4415  -10.1942 C   0  0  0  0  0  0  0  0  0  0  0  0
   -9.1502    3.0642   -8.8057 C   0  0  0  0  0  0  0  0  0  0  0  0
   -8.2252    5.5433  -14.4458 C   0  0  0  0  0  0  0  0  0  0  0  0
   -8.2886    4.1538  -12.3495 C   0  0  0  0  0  0  0  0  0  0  0  0
   -9.9733    5.9784  -12.7493 C   0  0  0  0  0  0  0  0  0  0  0  0
   -9.5976    7.0186  -11.6945 C   0  0  0  0  0  0  0  0  0  0  0  0
   -5.9396    5.6870  -16.1609 C   0  0  0  0  0  0  0  0  0  0  0  0
   -6.5133    3.3311  -16.8165 C   0  0  0  0  0  0  0  0  0  0  0  0
   -8.1337    5.1908  -17.2899 C   0  0  0  0  0  0  0  0  0  0  0  0
   -7.0663    4.6686  -16.3293 C   0  0  0  0  0  0  0  0  0  0  0  0
   -8.8002    5.2371  -13.2063 N   0  0  0  0  0  0  0  0  0  0  0  0
   -8.2142    6.6658  -14.9476 O   0  0  0  0  0  0  0  0  0  0  0  0
   -8.5251    6.6332  -10.8239 O   0  0  0  0  0  0  0  0  0  0  0  0
   -9.3399    1.8987   -8.1282 O   0  0  0  0  0  0  0  0  0  0  0  0
   -7.6730    4.4449  -15.0514 O   0  0  0  0  0  0  0  0  0  0  0  0
   -9.1021    6.4202   -8.2969 H   0  0  0  0  0  0  0  0  0  0  0  0
   -9.4649    4.3070   -7.0712 H   0  0  0  0  0  0  0  0  0  0  0  0
   -8.7682    2.0756  -10.6758 H   0  0  0  0  0  0  0  0  0  0  0  0
   -7.1776    4.1333  -12.4440 H   0  0  0  0  0  0  0  0  0  0  0  0
   -8.6074    3.1751  -12.7761 H   0  0  0  0  0  0  0  0  0  0  0  0
  -10.7085    5.2847  -12.3258 H   0  0  0  0  0  0  0  0  0  0  0  0
  -10.4280    6.4580  -13.6249 H   0  0  0  0  0  0  0  0  0  0  0  0
   -9.2495    7.9316  -12.2176 H   0  0  0  0  0  0  0  0  0  0  0  0
  -10.4885    7.3528  -11.1147 H   0  0  0  0  0  0  0  0  0  0  0  0
   -6.3324    6.6485  -15.8113 H   0  0  0  0  0  0  0  0  0  0  0  0
   -5.1851    5.3395  -15.4477 H   0  0  0  0  0  0  0  0  0  0  0  0
   -5.4452    5.8850  -17.1188 H   0  0  0  0  0  0  0  0  0  0  0  0
   -7.3183    2.5974  -16.9387 H   0  0  0  0  0  0  0  0  0  0  0  0
   -5.8172    2.9065  -16.0842 H   0  0  0  0  0  0  0  0  0  0  0  0
   -5.9903    3.4343  -17.7727 H   0  0  0  0  0  0  0  0  0  0  0  0
   -8.9419    4.4605  -17.4108 H   0  0  0  0  0  0  0  0  0  0  0  0
   -8.5681    6.1319  -16.9372 H   0  0  0  0  0  0  0  0  0  0  0  0
   -7.7127    5.3543  -18.2886 H   0  0  0  0  0  0  0  0  0  0  0  0
   -9.5272    2.0801   -7.1935 H   0  0  0  0  0  0  0  0  0  0  0  0
  1  2  1  0  0  0  0
  1  5  2  0  0  0  0
  2  6  2  0  0  0  0
  3  4  2  0  0  0  0
  3  6  1  0  0  0  0
  4  5  1  0  0  0  0
  4  8  1  0  0  0  0
  5 17  1  0  0  0  0
  6 18  1  0  0  0  0
  7 15  1  0  0  0  0
  7 16  2  0  0  0  0
  7 19  1  0  0  0  0
  8 15  1  0  0  0  0
  9 10  1  0  0  0  0
  9 15  1  0  0  0  0
 10 17  1  0  0  0  0
 11 14  1  0  0  0  0
 12 14  1  0  0  0  0
 13 14  1  0  0  0  0
 14 19  1  0  0  0  0
  1 20  1  0  0  0  0
  2 21  1  0  0  0  0
  3 22  1  0  0  0  0
  8 23  1  0  0  0  0
  8 24  1  0  0  0  0
  9 25  1  0  0  0  0
  9 26  1  0  0  0  0
 10 27  1  0  0  0  0
 10 28  1  0  0  0  0
 11 29  1  0  0  0  0
 11 30  1  0  0  0  0
 11 31  1  0  0  0  0
 12 32  1  0  0  0  0
 12 33  1  0  0  0  0
 12 34  1  0  0  0  0
 13 35  1  0  0  0  0
 13 36  1  0  0  0  0
 13 37  1  0  0  0  0
 18 38  1  0  0  0  0
M  END
> <id>
EN300-295266

> <smiles>
CC(C)(C)OC(=O)N1CCOC=2C=CC(O)=CC2C1

> <MDLNUMBER>
MFCD14582642

> <IUPAC Name>
tert-butyl 7-hydroxy-2,3,4,5-tetrahydro-1,4-benzoxazepine-4-carboxylate

> <CAS>
1205748-93-1

> <URL>
https://www.enaminestore.com/catalog/EN300-295266

> <ROCS_ShapeQuery>
_x0404_0B

> <ROCS_TanimotoCombo>
0.395 

> <ROCS_ShapeTanimoto>
0.301 

> <ROCS_ColorTanimoto>
0.094 

> <ROCS_RefTversky>
0.272 

> <ROCS_RefColorTversky>
0.098 

> <ROCS_RefTverskyCombo>
0.370 

> <ROCS_FitTversky>
1.565 

> <ROCS_FitColorTversky>
0.681 

> <ROCS_FitTverskyCombo>
2.246 

> <ROCS_ColorScore>
-7.103

> <ROCS_Overlap>
1810.580

> <ROCS_Rank>
151                 

$$$$
untitled-dbase-14982_84
  -OEChem-08212314543D

 45 47  0     1  0  0  0  0  0999 V2000
   -8.7882    3.7978   -6.9897 C   0  0  0  0  0  0  0  0  0  0  0  0
   -9.1898    2.5599   -7.5310 C   0  0  0  0  0  0  0  0  0  0  0  0
   -8.6917    4.6293   -8.0785 C   0  0  0  0  0  0  0  0  0  0  0  0
   -8.5321    5.6258  -14.3226 C   0  0  0  0  0  0  0  0  0  0  0  0
  -10.3308    4.3075  -11.2365 C   0  0  0  0  0  0  0  0  0  0  0  0
  -10.1592    4.5568  -12.7356 C   0  0  0  0  0  0  0  0  0  0  0  0
   -8.5694    6.6084   -9.4774 C   0  0  0  0  0  0  0  0  0  0  0  0
   -8.6944    6.4261  -11.9798 C   0  0  0  0  0  0  0  0  0  0  0  0
   -8.2812    5.6965  -10.6866 C   0  0  2  0  0  0  0  0  0  0  0  0
   -8.9619    4.3079  -10.5491 C   0  0  1  0  0  0  0  0  0  0  0  0
   -9.4520    1.3067   -6.8027 C   0  0  0  0  0  0  0  0  0  0  0  0
   -6.5747    4.8807  -16.2718 C   0  0  0  0  0  0  0  0  0  0  0  0
   -8.1999    3.0896  -16.9498 C   0  0  0  0  0  0  0  0  0  0  0  0
   -8.8403    5.5081  -17.1708 C   0  0  0  0  0  0  0  0  0  0  0  0
   -8.0490    4.4876  -16.3540 C   0  0  0  0  0  0  0  0  0  0  0  0
   -9.3267    2.5942   -8.8602 N   0  0  0  0  0  0  0  0  0  0  0  0
   -9.0232    3.8707   -9.1648 N   0  0  0  0  0  0  0  0  0  0  0  0
   -8.3396    5.9206   -8.2203 N   0  0  0  0  0  0  0  0  0  0  0  0
   -9.0808    5.5030  -13.0421 N   0  0  0  0  0  0  0  0  0  0  0  0
   -8.0570    6.6635  -14.7796 O   0  0  0  0  0  0  0  0  0  0  0  0
   -8.5856    4.4511  -15.0267 O   0  0  0  0  0  0  0  0  0  0  0  0
   -8.5942    4.0493   -5.9569 H   0  0  0  0  0  0  0  0  0  0  0  0
  -10.9770    5.0774  -10.8157 H   0  0  0  0  0  0  0  0  0  0  0  0
  -10.8282    3.3508  -11.0850 H   0  0  0  0  0  0  0  0  0  0  0  0
   -9.9188    3.6118  -13.2549 H   0  0  0  0  0  0  0  0  0  0  0  0
  -11.1138    4.9089  -13.1635 H   0  0  0  0  0  0  0  0  0  0  0  0
   -7.9242    7.4977   -9.5206 H   0  0  0  0  0  0  0  0  0  0  0  0
   -9.6065    6.9738   -9.4967 H   0  0  0  0  0  0  0  0  0  0  0  0
   -9.4893    7.1511  -11.7616 H   0  0  0  0  0  0  0  0  0  0  0  0
   -7.8408    7.0073  -12.3595 H   0  0  0  0  0  0  0  0  0  0  0  0
   -7.1924    5.5570  -10.7330 H   0  0  0  0  0  0  0  0  0  0  0  0
   -8.3116    3.5710  -11.0825 H   0  0  0  0  0  0  0  0  0  0  0  0
  -10.5089    1.2372   -6.4932 H   0  0  0  0  0  0  0  0  0  0  0  0
   -9.2247    0.4143   -7.4126 H   0  0  0  0  0  0  0  0  0  0  0  0
   -8.8324    1.2162   -5.8926 H   0  0  0  0  0  0  0  0  0  0  0  0
   -6.4621    5.8836  -15.8446 H   0  0  0  0  0  0  0  0  0  0  0  0
   -6.0028    4.1758  -15.6596 H   0  0  0  0  0  0  0  0  0  0  0  0
   -6.1235    4.9175  -17.2699 H   0  0  0  0  0  0  0  0  0  0  0  0
   -9.2561    2.8034  -17.0107 H   0  0  0  0  0  0  0  0  0  0  0  0
   -7.7131    2.3402  -16.3152 H   0  0  0  0  0  0  0  0  0  0  0  0
   -7.7659    3.0290  -17.9531 H   0  0  0  0  0  0  0  0  0  0  0  0
   -9.8978    5.2263  -17.2300 H   0  0  0  0  0  0  0  0  0  0  0  0
   -8.7736    6.5110  -16.7368 H   0  0  0  0  0  0  0  0  0  0  0  0
   -8.4733    5.5501  -18.2027 H   0  0  0  0  0  0  0  0  0  0  0  0
   -7.9959    6.4681   -7.4425 H   0  0  0  0  0  0  0  0  0  0  0  0
  1  2  1  0  0  0  0
  1  3  2  0  0  0  0
  2 11  1  0  0  0  0
  2 16  2  0  0  0  0
  3 17  1  0  0  0  0
  3 18  1  0  0  0  0
  4 19  1  0  0  0  0
  4 20  2  0  0  0  0
  4 21  1  0  0  0  0
  5  6  1  0  0  0  0
  5 10  1  0  0  0  0
  6 19  1  0  0  0  0
  7  9  1  0  0  0  0
  7 18  1  0  0  0  0
  8  9  1  0  0  0  0
  8 19  1  0  0  0  0
  9 10  1  0  0  0  0
 10 17  1  0  0  0  0
 12 15  1  0  0  0  0
 13 15  1  0  0  0  0
 14 15  1  0  0  0  0
 15 21  1  0  0  0  0
 16 17  1  0  0  0  0
  1 22  1  0  0  0  0
  5 23  1  0  0  0  0
  5 24  1  0  0  0  0
  6 25  1  0  0  0  0
  6 26  1  0  0  0  0
  7 27  1  0  0  0  0
  7 28  1  0  0  0  0
  8 29  1  0  0  0  0
  8 30  1  0  0  0  0
  9 31  1  0  0  0  0
 10 32  1  0  0  0  0
 11 33  1  0  0  0  0
 11 34  1  0  0  0  0
 11 35  1  0  0  0  0
 12 36  1  0  0  0  0
 12 37  1  0  0  0  0
 12 38  1  0  0  0  0
 13 39  1  0  0  0  0
 13 40  1  0  0  0  0
 13 41  1  0  0  0  0
 14 42  1  0  0  0  0
 14 43  1  0  0  0  0
 14 44  1  0  0  0  0
 18 45  1  0  0  0  0
M  END
> <id>
EN300-1118519

> <smiles>
CC=1C=C2NCC3CN(CCC3N2N1)C(=O)OC(C)(C)C

> <IUPAC Name>
tert-butyl 4-methyl-2,3,7,11-tetraazatricyclo[7.4.0.0,2,6]trideca-3,5-diene-11-carboxylate

> <CAS>
1695492-14-8

> <URL>
https://www.enaminestore.com/catalog/EN300-1118519

> <ROCS_ShapeQuery>
_x0404_0B

> <ROCS_TanimotoCombo>
0.395 

> <ROCS_ShapeTanimoto>
0.320 

> <ROCS_ColorTanimoto>
0.075 

> <ROCS_RefTversky>
0.288 

> <ROCS_RefColorTversky>
0.080 

> <ROCS_RefTverskyCombo>
0.368 

> <ROCS_FitTversky>
1.527 

> <ROCS_FitColorTversky>
0.553 

> <ROCS_FitTverskyCombo>
2.080 

> <ROCS_ColorScore>
-5.787

> <ROCS_Overlap>
1921.024

> <ROCS_Rank>
152                 

$$$$
untitled-dbase-34205_376
  -OEChem-08212314543D

 47 48  0     0  0  0  0  0  0999 V2000
   -8.4302    5.5894  -14.3365 C   0  0  0  0  0  0  0  0  0  0  0  0
   -9.2323    4.9151   -7.6505 C   0  0  0  0  0  0  0  0  0  0  0  0
   -9.0220    3.6309   -6.8464 C   0  0  0  0  0  0  0  0  0  0  0  0
   -8.3262    4.9808   -8.8817 C   0  0  0  0  0  0  0  0  0  0  0  0
   -9.8142    5.2364  -10.9300 C   0  0  0  0  0  0  0  0  0  0  0  0
   -7.6292    3.9179  -11.0441 C   0  0  0  0  0  0  0  0  0  0  0  0
   -9.5435    2.3524   -7.4993 C   0  0  0  0  0  0  0  0  0  0  0  0
   -9.0945    6.0571  -11.9947 C   0  0  0  0  0  0  0  0  0  0  0  0
   -7.9429    3.9044  -12.5371 C   0  0  0  0  0  0  0  0  0  0  0  0
   -9.6769    2.9900   -9.8296 C   0  0  0  0  0  0  0  0  0  0  0  0
   -8.8626    4.2712  -10.1583 C   0  0  0  0  0  0  0  0  0  0  0  0
   -7.1340    5.6052  -16.8866 C   0  0  0  0  0  0  0  0  0  0  0  0
   -8.4647    3.5305  -17.3701 C   0  0  0  0  0  0  0  0  0  0  0  0
   -9.6487    5.7012  -16.9292 C   0  0  0  0  0  0  0  0  0  0  0  0
   -8.4274    4.8458  -16.5950 C   0  0  0  0  0  0  0  0  0  0  0  0
   -9.0395    2.1027   -8.8523 N   0  0  0  0  0  0  0  0  0  0  0  0
   -8.4755    5.1904  -12.9972 N   0  0  0  0  0  0  0  0  0  0  0  0
   -8.3735    6.7595  -14.7099 O   0  0  0  0  0  0  0  0  0  0  0  0
   -8.4631    4.5255  -15.1996 O   0  0  0  0  0  0  0  0  0  0  0  0
  -10.2854    5.0544   -7.9119 H   0  0  0  0  0  0  0  0  0  0  0  0
   -8.9621    5.7579   -7.0025 H   0  0  0  0  0  0  0  0  0  0  0  0
   -7.9533    3.5156   -6.6037 H   0  0  0  0  0  0  0  0  0  0  0  0
   -9.5302    3.7404   -5.8749 H   0  0  0  0  0  0  0  0  0  0  0  0
   -8.1351    6.0332   -9.0887 H   0  0  0  0  0  0  0  0  0  0  0  0
   -7.3587    4.5484   -8.6149 H   0  0  0  0  0  0  0  0  0  0  0  0
  -10.3177    5.9172  -10.2422 H   0  0  0  0  0  0  0  0  0  0  0  0
  -10.5950    4.6493  -11.4226 H   0  0  0  0  0  0  0  0  0  0  0  0
   -7.2519    2.9251  -10.7691 H   0  0  0  0  0  0  0  0  0  0  0  0
   -6.8121    4.6220  -10.8517 H   0  0  0  0  0  0  0  0  0  0  0  0
   -9.3001    1.5089   -6.8603 H   0  0  0  0  0  0  0  0  0  0  0  0
  -10.6259    2.4101   -7.5666 H   0  0  0  0  0  0  0  0  0  0  0  0
   -9.8052    6.7474  -12.4541 H   0  0  0  0  0  0  0  0  0  0  0  0
   -8.2994    6.6663  -11.5559 H   0  0  0  0  0  0  0  0  0  0  0  0
   -7.0446    3.6929  -13.1313 H   0  0  0  0  0  0  0  0  0  0  0  0
   -8.6558    3.0987  -12.7534 H   0  0  0  0  0  0  0  0  0  0  0  0
  -10.6353    3.2978   -9.3832 H   0  0  0  0  0  0  0  0  0  0  0  0
   -9.9547    2.4434  -10.7440 H   0  0  0  0  0  0  0  0  0  0  0  0
   -7.1034    6.5500  -16.3322 H   0  0  0  0  0  0  0  0  0  0  0  0
   -6.2510    5.0160  -16.6186 H   0  0  0  0  0  0  0  0  0  0  0  0
   -7.0656    5.8677  -17.9486 H   0  0  0  0  0  0  0  0  0  0  0  0
   -9.3910    2.9822  -17.1638 H   0  0  0  0  0  0  0  0  0  0  0  0
   -7.6426    2.8735  -17.0639 H   0  0  0  0  0  0  0  0  0  0  0  0
   -8.3927    3.6956  -18.4499 H   0  0  0  0  0  0  0  0  0  0  0  0
  -10.5766    5.1566  -16.7201 H   0  0  0  0  0  0  0  0  0  0  0  0
   -9.6578    6.6330  -16.3545 H   0  0  0  0  0  0  0  0  0  0  0  0
   -9.6699    5.9500  -17.9964 H   0  0  0  0  0  0  0  0  0  0  0  0
   -8.0474    2.2401   -8.8585 H   0  0  0  0  0  0  0  0  0  0  0  0
  1 17  1  0  0  0  0
  1 18  2  0  0  0  0
  1 19  1  0  0  0  0
  2  3  1  0  0  0  0
  2  4  1  0  0  0  0
  3  7  1  0  0  0  0
  4 11  1  0  0  0  0
  5  8  1  0  0  0  0
  5 11  1  0  0  0  0
  6  9  1  0  0  0  0
  6 11  1  0  0  0  0
  7 16  1  0  0  0  0
  8 17  1  0  0  0  0
  9 17  1  0  0  0  0
 10 11  1  0  0  0  0
 10 16  1  0  0  0  0
 12 15  1  0  0  0  0
 13 15  1  0  0  0  0
 14 15  1  0  0  0  0
 15 19  1  0  0  0  0
  2 20  1  0  0  0  0
  2 21  1  0  0  0  0
  3 22  1  0  0  0  0
  3 23  1  0  0  0  0
  4 24  1  0  0  0  0
  4 25  1  0  0  0  0
  5 26  1  0  0  0  0
  5 27  1  0  0  0  0
  6 28  1  0  0  0  0
  6 29  1  0  0  0  0
  7 30  1  0  0  0  0
  7 31  1  0  0  0  0
  8 32  1  0  0  0  0
  8 33  1  0  0  0  0
  9 34  1  0  0  0  0
  9 35  1  0  0  0  0
 10 36  1  0  0  0  0
 10 37  1  0  0  0  0
 12 38  1  0  0  0  0
 12 39  1  0  0  0  0
 12 40  1  0  0  0  0
 13 41  1  0  0  0  0
 13 42  1  0  0  0  0
 13 43  1  0  0  0  0
 14 44  1  0  0  0  0
 14 45  1  0  0  0  0
 14 46  1  0  0  0  0
 16 47  1  0  0  0  0
M  END
> <id>
EN300-1153656

> <smiles>
CC(C)(C)OC(=O)N1CCC2(CC1)CCCCNC2

> <IUPAC Name>
tert-butyl 3,8-diazaspiro[5.6]dodecane-3-carboxylate

> <CAS>
1784216-68-7

> <URL>
https://www.enaminestore.com/catalog/EN300-1153656

> <ROCS_ShapeQuery>
_x0404_0B

> <ROCS_TanimotoCombo>
0.395 

> <ROCS_ShapeTanimoto>
0.304 

> <ROCS_ColorTanimoto>
0.090 

> <ROCS_RefTversky>
0.273 

> <ROCS_RefColorTversky>
0.094 

> <ROCS_RefTverskyCombo>
0.366 

> <ROCS_FitTversky>
1.620 

> <ROCS_FitColorTversky>
0.713 

> <ROCS_FitTverskyCombo>
2.333 

> <ROCS_ColorScore>
-6.756

> <ROCS_Overlap>
1817.804

> <ROCS_Rank>
153                 

$$$$
untitled-dbase-14984_82
  -OEChem-08212314543D

 44 46  0     1  0  0  0  0  0999 V2000
   -9.1730    2.6245   -7.5253 C   0  0  0  0  0  0  0  0  0  0  0  0
   -8.6955    4.5903   -8.0792 C   0  0  0  0  0  0  0  0  0  0  0  0
   -8.5339    5.6300  -14.3247 C   0  0  0  0  0  0  0  0  0  0  0  0
  -10.3348    4.2869  -11.2510 C   0  0  0  0  0  0  0  0  0  0  0  0
  -10.1607    4.5450  -12.7483 C   0  0  0  0  0  0  0  0  0  0  0  0
   -8.5666    6.5771   -9.4731 C   0  0  0  0  0  0  0  0  0  0  0  0
   -8.7036    6.4134  -11.9768 C   0  0  0  0  0  0  0  0  0  0  0  0
   -8.2859    5.6740  -10.6910 C   0  0  2  0  0  0  0  0  0  0  0  0
   -8.9678    4.2859  -10.5602 C   0  0  1  0  0  0  0  0  0  0  0  0
   -9.4050    1.4498   -6.6769 C   0  0  0  0  0  0  0  0  0  0  0  0
   -6.5673    4.9054  -16.2722 C   0  0  0  0  0  0  0  0  0  0  0  0
   -8.1824    3.1112  -16.9662 C   0  0  0  0  0  0  0  0  0  0  0  0
   -8.8328    5.5281  -17.1744 C   0  0  0  0  0  0  0  0  0  0  0  0
   -8.0395    4.5062  -16.3614 C   0  0  0  0  0  0  0  0  0  0  0  0
   -8.7751    3.8264   -7.0105 N   0  0  0  0  0  0  0  0  0  0  0  0
   -9.3354    2.5844   -8.8495 N   0  0  0  0  0  0  0  0  0  0  0  0
   -9.0334    3.8511   -9.1784 N   0  0  0  0  0  0  0  0  0  0  0  0
   -8.3315    5.8801   -8.2221 N   0  0  0  0  0  0  0  0  0  0  0  0
   -9.0855    5.4973  -13.0467 N   0  0  0  0  0  0  0  0  0  0  0  0
   -8.0620    6.6724  -14.7742 O   0  0  0  0  0  0  0  0  0  0  0  0
   -8.5801    4.4592  -15.0360 O   0  0  0  0  0  0  0  0  0  0  0  0
  -10.9832    5.0535  -10.8278 H   0  0  0  0  0  0  0  0  0  0  0  0
  -10.8309    3.3286  -11.1052 H   0  0  0  0  0  0  0  0  0  0  0  0
   -9.9151    3.6036  -13.2723 H   0  0  0  0  0  0  0  0  0  0  0  0
  -11.1156    4.8953  -13.1770 H   0  0  0  0  0  0  0  0  0  0  0  0
   -7.9204    7.4658   -9.5129 H   0  0  0  0  0  0  0  0  0  0  0  0
   -9.6032    6.9444   -9.4849 H   0  0  0  0  0  0  0  0  0  0  0  0
   -9.5021    7.1319  -11.7516 H   0  0  0  0  0  0  0  0  0  0  0  0
   -7.8532    7.0017  -12.3519 H   0  0  0  0  0  0  0  0  0  0  0  0
   -7.1976    5.5332  -10.7434 H   0  0  0  0  0  0  0  0  0  0  0  0
   -8.3165    3.5486  -11.0922 H   0  0  0  0  0  0  0  0  0  0  0  0
  -10.4529    1.4018   -6.3282 H   0  0  0  0  0  0  0  0  0  0  0  0
   -9.1906    0.4999   -7.2026 H   0  0  0  0  0  0  0  0  0  0  0  0
   -8.7596    1.4443   -5.7779 H   0  0  0  0  0  0  0  0  0  0  0  0
   -6.4605    5.9061  -15.8386 H   0  0  0  0  0  0  0  0  0  0  0  0
   -5.9941    4.1993  -15.6626 H   0  0  0  0  0  0  0  0  0  0  0  0
   -6.1132    4.9502  -17.2687 H   0  0  0  0  0  0  0  0  0  0  0  0
   -9.2371    2.8206  -17.0321 H   0  0  0  0  0  0  0  0  0  0  0  0
   -7.6942    2.3601  -16.3347 H   0  0  0  0  0  0  0  0  0  0  0  0
   -7.7450    3.0586  -17.9685 H   0  0  0  0  0  0  0  0  0  0  0  0
   -9.8889    5.2420  -17.2386 H   0  0  0  0  0  0  0  0  0  0  0  0
   -8.7720    6.5286  -16.7341 H   0  0  0  0  0  0  0  0  0  0  0  0
   -8.4629    5.5781  -18.2049 H   0  0  0  0  0  0  0  0  0  0  0  0
   -7.9770    6.4178   -7.4429 H   0  0  0  0  0  0  0  0  0  0  0  0
  1 10  1  0  0  0  0
  1 15  1  0  0  0  0
  1 16  2  0  0  0  0
  2 15  2  0  0  0  0
  2 17  1  0  0  0  0
  2 18  1  0  0  0  0
  3 19  1  0  0  0  0
  3 20  2  0  0  0  0
  3 21  1  0  0  0  0
  4  5  1  0  0  0  0
  4  9  1  0  0  0  0
  5 19  1  0  0  0  0
  6  8  1  0  0  0  0
  6 18  1  0  0  0  0
  7  8  1  0  0  0  0
  7 19  1  0  0  0  0
  8  9  1  0  0  0  0
  9 17  1  0  0  0  0
 11 14  1  0  0  0  0
 12 14  1  0  0  0  0
 13 14  1  0  0  0  0
 14 21  1  0  0  0  0
 16 17  1  0  0  0  0
  4 22  1  0  0  0  0
  4 23  1  0  0  0  0
  5 24  1  0  0  0  0
  5 25  1  0  0  0  0
  6 26  1  0  0  0  0
  6 27  1  0  0  0  0
  7 28  1  0  0  0  0
  7 29  1  0  0  0  0
  8 30  1  0  0  0  0
  9 31  1  0  0  0  0
 10 32  1  0  0  0  0
 10 33  1  0  0  0  0
 10 34  1  0  0  0  0
 11 35  1  0  0  0  0
 11 36  1  0  0  0  0
 11 37  1  0  0  0  0
 12 38  1  0  0  0  0
 12 39  1  0  0  0  0
 12 40  1  0  0  0  0
 13 41  1  0  0  0  0
 13 42  1  0  0  0  0
 13 43  1  0  0  0  0
 18 44  1  0  0  0  0
M  END
> <id>
EN300-1118522

> <smiles>
CC=1N=C2NCC3CN(CCC3N2N1)C(=O)OC(C)(C)C

> <MDLNUMBER>
MFCD30220882

> <IUPAC Name>
tert-butyl 4-methyl-2,3,5,7,11-pentaazatricyclo[7.4.0.0,2,6]trideca-3,5-diene-11-carboxylate

> <CAS>
1697634-66-4

> <URL>
https://www.enaminestore.com/catalog/EN300-1118522

> <ROCS_ShapeQuery>
_x0404_0B

> <ROCS_TanimotoCombo>
0.395 

> <ROCS_ShapeTanimoto>
0.321 

> <ROCS_ColorTanimoto>
0.074 

> <ROCS_RefTversky>
0.289 

> <ROCS_RefColorTversky>
0.080 

> <ROCS_RefTverskyCombo>
0.369 

> <ROCS_FitTversky>
1.526 

> <ROCS_FitColorTversky>
0.505 

> <ROCS_FitTverskyCombo>
2.031 

> <ROCS_ColorScore>
-5.769

> <ROCS_Overlap>
1926.942

> <ROCS_Rank>
154                 

$$$$
untitled-dbase-5564_77
  -OEChem-08212314543D

 39 40  0     0  0  0  0  0  0999 V2000
   -9.2336    4.3107   -8.1372 C   0  0  0  0  0  0  0  0  0  0  0  0
   -9.0307    5.5003   -8.8323 C   0  0  0  0  0  0  0  0  0  0  0  0
   -8.8540    3.0584  -10.1712 C   0  0  0  0  0  0  0  0  0  0  0  0
   -8.6612    4.2459  -10.8919 C   0  0  0  0  0  0  0  0  0  0  0  0
   -9.1467    3.0911   -8.8058 C   0  0  0  0  0  0  0  0  0  0  0  0
   -8.7602    5.4639  -10.2018 C   0  0  0  0  0  0  0  0  0  0  0  0
   -8.2267    5.5524  -14.4545 C   0  0  0  0  0  0  0  0  0  0  0  0
   -8.2888    4.1691  -12.3540 C   0  0  0  0  0  0  0  0  0  0  0  0
   -9.9718    5.9947  -12.7567 C   0  0  0  0  0  0  0  0  0  0  0  0
   -9.5931    7.0375  -11.7056 C   0  0  0  0  0  0  0  0  0  0  0  0
   -5.9434    5.6879  -16.1734 C   0  0  0  0  0  0  0  0  0  0  0  0
   -6.5212    3.3309  -16.8211 C   0  0  0  0  0  0  0  0  0  0  0  0
   -8.1398    5.1913  -17.2976 C   0  0  0  0  0  0  0  0  0  0  0  0
   -7.0717    4.6706  -16.3370 C   0  0  0  0  0  0  0  0  0  0  0  0
   -8.8003    5.2506  -13.2132 N   0  0  0  0  0  0  0  0  0  0  0  0
   -9.3452    1.8858   -8.1000 N   0  0  0  0  0  0  0  0  0  0  0  0
   -8.2150    6.6734  -14.9596 O   0  0  0  0  0  0  0  0  0  0  0  0
   -8.5199    6.6534  -10.8354 O   0  0  0  0  0  0  0  0  0  0  0  0
   -7.6769    4.4514  -15.0576 O   0  0  0  0  0  0  0  0  0  0  0  0
   -9.4572    4.3450   -7.0742 H   0  0  0  0  0  0  0  0  0  0  0  0
   -9.0932    6.4485   -8.3069 H   0  0  0  0  0  0  0  0  0  0  0  0
   -8.7681    2.0984  -10.6779 H   0  0  0  0  0  0  0  0  0  0  0  0
   -7.1781    4.1467  -12.4499 H   0  0  0  0  0  0  0  0  0  0  0  0
   -8.6096    3.1896  -12.7772 H   0  0  0  0  0  0  0  0  0  0  0  0
  -10.7070    5.3033  -12.3297 H   0  0  0  0  0  0  0  0  0  0  0  0
  -10.4272    6.4722  -13.6330 H   0  0  0  0  0  0  0  0  0  0  0  0
   -9.2443    7.9486  -12.2317 H   0  0  0  0  0  0  0  0  0  0  0  0
  -10.4826    7.3746  -11.1252 H   0  0  0  0  0  0  0  0  0  0  0  0
   -6.3345    6.6509  -15.8260 H   0  0  0  0  0  0  0  0  0  0  0  0
   -5.1883    5.3416  -15.4602 H   0  0  0  0  0  0  0  0  0  0  0  0
   -5.4501    5.8825  -17.1326 H   0  0  0  0  0  0  0  0  0  0  0  0
   -7.3274    2.5979  -16.9400 H   0  0  0  0  0  0  0  0  0  0  0  0
   -5.8246    2.9075  -16.0886 H   0  0  0  0  0  0  0  0  0  0  0  0
   -5.9995    3.4306  -17.7784 H   0  0  0  0  0  0  0  0  0  0  0  0
   -8.9492    4.4618  -17.4152 H   0  0  0  0  0  0  0  0  0  0  0  0
   -8.5724    6.1340  -16.9471 H   0  0  0  0  0  0  0  0  0  0  0  0
   -7.7201    5.3513  -18.2974 H   0  0  0  0  0  0  0  0  0  0  0  0
   -9.3271    1.0199   -8.5993 H   0  0  0  0  0  0  0  0  0  0  0  0
   -9.5937    1.9230   -7.1322 H   0  0  0  0  0  0  0  0  0  0  0  0
  1  2  1  0  0  0  0
  1  5  2  0  0  0  0
  2  6  2  0  0  0  0
  3  4  2  0  0  0  0
  3  5  1  0  0  0  0
  4  6  1  0  0  0  0
  4  8  1  0  0  0  0
  5 16  1  0  0  0  0
  6 18  1  0  0  0  0
  7 15  1  0  0  0  0
  7 17  2  0  0  0  0
  7 19  1  0  0  0  0
  8 15  1  0  0  0  0
  9 10  1  0  0  0  0
  9 15  1  0  0  0  0
 10 18  1  0  0  0  0
 11 14  1  0  0  0  0
 12 14  1  0  0  0  0
 13 14  1  0  0  0  0
 14 19  1  0  0  0  0
  1 20  1  0  0  0  0
  2 21  1  0  0  0  0
  3 22  1  0  0  0  0
  8 23  1  0  0  0  0
  8 24  1  0  0  0  0
  9 25  1  0  0  0  0
  9 26  1  0  0  0  0
 10 27  1  0  0  0  0
 10 28  1  0  0  0  0
 11 29  1  0  0  0  0
 11 30  1  0  0  0  0
 11 31  1  0  0  0  0
 12 32  1  0  0  0  0
 12 33  1  0  0  0  0
 12 34  1  0  0  0  0
 13 35  1  0  0  0  0
 13 36  1  0  0  0  0
 13 37  1  0  0  0  0
 16 38  1  0  0  0  0
 16 39  1  0  0  0  0
M  END
> <id>
EN300-125741

> <smiles>
CC(C)(C)OC(=O)N1CCOC=2C=CC(N)=CC2C1

> <MDLNUMBER>
MFCD14582650

> <IUPAC Name>
tert-butyl 7-amino-2,3,4,5-tetrahydro-1,4-benzoxazepine-4-carboxylate

> <CAS>
1205750-08-8

> <Purity>
95

> <URL>
https://www.enaminestore.com/catalog/EN300-125741

> <ROCS_ShapeQuery>
_x0404_0B

> <ROCS_TanimotoCombo>
0.395 

> <ROCS_ShapeTanimoto>
0.301 

> <ROCS_ColorTanimoto>
0.093 

> <ROCS_RefTversky>
0.272 

> <ROCS_RefColorTversky>
0.098 

> <ROCS_RefTverskyCombo>
0.369 

> <ROCS_FitTversky>
1.568 

> <ROCS_FitColorTversky>
0.675 

> <ROCS_FitTverskyCombo>
2.243 

> <ROCS_ColorScore>
-7.043

> <ROCS_Overlap>
1811.275

> <ROCS_Rank>
155                 

$$$$
untitled-dbase-5510_77
  -OEChem-08212314543D

 39 40  0     0  0  0  0  0  0999 V2000
   -9.2336    4.3107   -8.1372 C   0  0  0  0  0  0  0  0  0  0  0  0
   -9.0307    5.5003   -8.8323 C   0  0  0  0  0  0  0  0  0  0  0  0
   -8.8540    3.0584  -10.1712 C   0  0  0  0  0  0  0  0  0  0  0  0
   -8.6612    4.2459  -10.8919 C   0  0  0  0  0  0  0  0  0  0  0  0
   -9.1467    3.0911   -8.8058 C   0  0  0  0  0  0  0  0  0  0  0  0
   -8.7602    5.4639  -10.2018 C   0  0  0  0  0  0  0  0  0  0  0  0
   -8.2267    5.5524  -14.4545 C   0  0  0  0  0  0  0  0  0  0  0  0
   -8.2888    4.1691  -12.3540 C   0  0  0  0  0  0  0  0  0  0  0  0
   -9.9718    5.9947  -12.7567 C   0  0  0  0  0  0  0  0  0  0  0  0
   -9.5931    7.0375  -11.7056 C   0  0  0  0  0  0  0  0  0  0  0  0
   -5.9434    5.6879  -16.1734 C   0  0  0  0  0  0  0  0  0  0  0  0
   -6.5212    3.3309  -16.8211 C   0  0  0  0  0  0  0  0  0  0  0  0
   -8.1398    5.1913  -17.2976 C   0  0  0  0  0  0  0  0  0  0  0  0
   -7.0717    4.6706  -16.3370 C   0  0  0  0  0  0  0  0  0  0  0  0
   -8.8003    5.2506  -13.2132 N   0  0  0  0  0  0  0  0  0  0  0  0
   -9.3452    1.8858   -8.1000 N   0  0  0  0  0  0  0  0  0  0  0  0
   -8.2150    6.6734  -14.9596 O   0  0  0  0  0  0  0  0  0  0  0  0
   -8.5199    6.6534  -10.8354 O   0  0  0  0  0  0  0  0  0  0  0  0
   -7.6769    4.4514  -15.0576 O   0  0  0  0  0  0  0  0  0  0  0  0
   -9.4572    4.3450   -7.0742 H   0  0  0  0  0  0  0  0  0  0  0  0
   -9.0932    6.4485   -8.3069 H   0  0  0  0  0  0  0  0  0  0  0  0
   -8.7681    2.0984  -10.6779 H   0  0  0  0  0  0  0  0  0  0  0  0
   -7.1781    4.1467  -12.4499 H   0  0  0  0  0  0  0  0  0  0  0  0
   -8.6096    3.1896  -12.7772 H   0  0  0  0  0  0  0  0  0  0  0  0
  -10.7070    5.3033  -12.3297 H   0  0  0  0  0  0  0  0  0  0  0  0
  -10.4272    6.4722  -13.6330 H   0  0  0  0  0  0  0  0  0  0  0  0
   -9.2443    7.9486  -12.2317 H   0  0  0  0  0  0  0  0  0  0  0  0
  -10.4826    7.3746  -11.1252 H   0  0  0  0  0  0  0  0  0  0  0  0
   -6.3345    6.6509  -15.8260 H   0  0  0  0  0  0  0  0  0  0  0  0
   -5.1883    5.3416  -15.4602 H   0  0  0  0  0  0  0  0  0  0  0  0
   -5.4501    5.8825  -17.1326 H   0  0  0  0  0  0  0  0  0  0  0  0
   -7.3274    2.5979  -16.9400 H   0  0  0  0  0  0  0  0  0  0  0  0
   -5.8246    2.9075  -16.0886 H   0  0  0  0  0  0  0  0  0  0  0  0
   -5.9995    3.4306  -17.7784 H   0  0  0  0  0  0  0  0  0  0  0  0
   -8.9492    4.4618  -17.4152 H   0  0  0  0  0  0  0  0  0  0  0  0
   -8.5724    6.1340  -16.9471 H   0  0  0  0  0  0  0  0  0  0  0  0
   -7.7201    5.3513  -18.2974 H   0  0  0  0  0  0  0  0  0  0  0  0
   -9.3271    1.0199   -8.5993 H   0  0  0  0  0  0  0  0  0  0  0  0
   -9.5937    1.9230   -7.1322 H   0  0  0  0  0  0  0  0  0  0  0  0
  1  2  1  0  0  0  0
  1  5  2  0  0  0  0
  2  6  2  0  0  0  0
  3  4  2  0  0  0  0
  3  5  1  0  0  0  0
  4  6  1  0  0  0  0
  4  8  1  0  0  0  0
  5 16  1  0  0  0  0
  6 18  1  0  0  0  0
  7 15  1  0  0  0  0
  7 17  2  0  0  0  0
  7 19  1  0  0  0  0
  8 15  1  0  0  0  0
  9 10  1  0  0  0  0
  9 15  1  0  0  0  0
 10 18  1  0  0  0  0
 11 14  1  0  0  0  0
 12 14  1  0  0  0  0
 13 14  1  0  0  0  0
 14 19  1  0  0  0  0
  1 20  1  0  0  0  0
  2 21  1  0  0  0  0
  3 22  1  0  0  0  0
  8 23  1  0  0  0  0
  8 24  1  0  0  0  0
  9 25  1  0  0  0  0
  9 26  1  0  0  0  0
 10 27  1  0  0  0  0
 10 28  1  0  0  0  0
 11 29  1  0  0  0  0
 11 30  1  0  0  0  0
 11 31  1  0  0  0  0
 12 32  1  0  0  0  0
 12 33  1  0  0  0  0
 12 34  1  0  0  0  0
 13 35  1  0  0  0  0
 13 36  1  0  0  0  0
 13 37  1  0  0  0  0
 16 38  1  0  0  0  0
 16 39  1  0  0  0  0
M  END
> <id>
EN300-219094

> <smiles>
Cl.CC(C)(C)OC(=O)N1CCOC=2C=CC(N)=CC2C1

> <MDLNUMBER>
MFCD28954223

> <IUPAC Name>
tert-butyl 7-amino-2,3,4,5-tetrahydro-1,4-benzoxazepine-4-carboxylate hydrochloride

> <CAS>
1803582-66-2

> <Purity>
95

> <URL>
https://www.enaminestore.com/catalog/EN300-219094

> <Saltdate>
Cl

> <ROCS_ShapeQuery>
_x0404_0B

> <ROCS_TanimotoCombo>
0.395 

> <ROCS_ShapeTanimoto>
0.301 

> <ROCS_ColorTanimoto>
0.093 

> <ROCS_RefTversky>
0.272 

> <ROCS_RefColorTversky>
0.098 

> <ROCS_RefTverskyCombo>
0.369 

> <ROCS_FitTversky>
1.568 

> <ROCS_FitColorTversky>
0.675 

> <ROCS_FitTverskyCombo>
2.243 

> <ROCS_ColorScore>
-7.043

> <ROCS_Overlap>
1811.275

> <ROCS_Rank>
156                 

$$$$
untitled-dbase-9193_7
  -OEChem-08212314543D

 34 35  0     0  0  0  0  0  0999 V2000
   -7.8014    4.2502  -14.4946 C   0  0  0  0  0  0  0  0  0  0  0  0
   -8.4949    5.7432  -12.7650 C   0  0  0  0  0  0  0  0  0  0  0  0
   -8.1877    5.5343  -14.1158 C   0  0  0  0  0  0  0  0  0  0  0  0
   -8.9102    6.8097  -11.9513 C   0  0  0  0  0  0  0  0  0  0  0  0
   -8.3962    4.6667  -11.8954 C   0  0  0  0  0  0  0  0  0  0  0  0
   -7.7419    3.2568  -13.5258 C   0  0  0  0  0  0  0  0  0  0  0  0
   -8.8020    4.4279   -9.4469 C   0  0  0  0  0  0  0  0  0  0  0  0
   -9.1751    8.2030  -12.3520 C   0  0  0  0  0  0  0  0  0  0  0  0
  -10.2774    2.8542   -7.6083 C   0  0  0  0  0  0  0  0  0  0  0  0
   -9.5398    0.8876   -8.9858 C   0  0  0  0  0  0  0  0  0  0  0  0
   -7.8291    2.3110   -7.8216 C   0  0  0  0  0  0  0  0  0  0  0  0
   -9.1865    2.2994   -8.5231 C   0  0  0  0  0  0  0  0  0  0  0  0
   -9.0663    6.4577  -10.6738 N   0  0  0  0  0  0  0  0  0  0  0  0
   -8.0283    3.4092  -12.2118 N   0  0  0  0  0  0  0  0  0  0  0  0
   -8.7486    5.1379  -10.6463 N   0  0  0  0  0  0  0  0  0  0  0  0
   -8.5921    4.9832   -8.3806 O   0  0  0  0  0  0  0  0  0  0  0  0
   -8.2562    6.5352  -15.0429 O   0  0  0  0  0  0  0  0  0  0  0  0
   -7.3594    1.9974  -13.9205 O   0  0  0  0  0  0  0  0  0  0  0  0
   -9.1046    3.1267   -9.6874 O   0  0  0  0  0  0  0  0  0  0  0  0
   -7.5523    4.0324  -15.5291 H   0  0  0  0  0  0  0  0  0  0  0  0
  -10.2292    8.3405  -12.6470 H   0  0  0  0  0  0  0  0  0  0  0  0
   -8.9610    8.9180  -11.5381 H   0  0  0  0  0  0  0  0  0  0  0  0
   -8.5469    8.5174  -13.2041 H   0  0  0  0  0  0  0  0  0  0  0  0
  -10.0275    3.8675   -7.2740 H   0  0  0  0  0  0  0  0  0  0  0  0
  -11.2494    2.8838   -8.1115 H   0  0  0  0  0  0  0  0  0  0  0  0
  -10.3751    2.2451   -6.7023 H   0  0  0  0  0  0  0  0  0  0  0  0
   -8.7598    0.4856   -9.6425 H   0  0  0  0  0  0  0  0  0  0  0  0
  -10.4660    0.8893   -9.5719 H   0  0  0  0  0  0  0  0  0  0  0  0
   -9.6663    0.2048   -8.1395 H   0  0  0  0  0  0  0  0  0  0  0  0
   -7.0465    1.9131   -8.4776 H   0  0  0  0  0  0  0  0  0  0  0  0
   -7.5422    3.3222   -7.5151 H   0  0  0  0  0  0  0  0  0  0  0  0
   -7.8441    1.6690   -6.9334 H   0  0  0  0  0  0  0  0  0  0  0  0
   -8.0072    6.1962  -15.9156 H   0  0  0  0  0  0  0  0  0  0  0  0
   -7.3592    1.4054  -13.1571 H   0  0  0  0  0  0  0  0  0  0  0  0
  1  3  1  0  0  0  0
  1  6  2  0  0  0  0
  2  3  2  0  0  0  0
  2  4  1  0  0  0  0
  2  5  1  0  0  0  0
  3 17  1  0  0  0  0
  4  8  1  0  0  0  0
  4 13  2  0  0  0  0
  5 14  2  0  0  0  0
  5 15  1  0  0  0  0
  6 14  1  0  0  0  0
  6 18  1  0  0  0  0
  7 15  1  0  0  0  0
  7 16  2  0  0  0  0
  7 19  1  0  0  0  0
  9 12  1  0  0  0  0
 10 12  1  0  0  0  0
 11 12  1  0  0  0  0
 12 19  1  0  0  0  0
 13 15  1  0  0  0  0
  1 20  1  0  0  0  0
  8 21  1  0  0  0  0
  8 22  1  0  0  0  0
  8 23  1  0  0  0  0
  9 24  1  0  0  0  0
  9 25  1  0  0  0  0
  9 26  1  0  0  0  0
 10 27  1  0  0  0  0
 10 28  1  0  0  0  0
 10 29  1  0  0  0  0
 11 30  1  0  0  0  0
 11 31  1  0  0  0  0
 11 32  1  0  0  0  0
 17 33  1  0  0  0  0
 18 34  1  0  0  0  0
M  END
> <id>
EN300-319680

> <smiles>
CC1=NN(C(=O)OC(C)(C)C)C=2N=C(O)C=C(O)C12

> <MDLNUMBER>
MFCD30477277

> <IUPAC Name>
tert-butyl 4,6-dihydroxy-3-methyl-1H-pyrazolo[3,4-b]pyridine-1-carboxylate

> <CAS>
2060033-89-6

> <URL>
https://www.enaminestore.com/catalog/EN300-319680

> <ROCS_ShapeQuery>
_x0404_0B

> <ROCS_TanimotoCombo>
0.394 

> <ROCS_ShapeTanimoto>
0.265 

> <ROCS_ColorTanimoto>
0.130 

> <ROCS_RefTversky>
0.247 

> <ROCS_RefColorTversky>
0.136 

> <ROCS_RefTverskyCombo>
0.382 

> <ROCS_FitTversky>
1.388 

> <ROCS_FitColorTversky>
0.738 

> <ROCS_FitTverskyCombo>
2.126 

> <ROCS_ColorScore>
-9.826

> <ROCS_Overlap>
1644.189

> <ROCS_Rank>
157                 

$$$$
untitled-dbase-27343_0
  -OEChem-08212314543D

 26 28  0     0  0  0  0  0  0999 V2000
   -8.5969    4.9843  -13.8333 C   0  0  0  0  0  0  0  0  0  0  0  0
   -8.6973    4.8487  -12.6443 C   0  0  0  0  0  0  0  0  0  0  0  0
   -7.2154    5.2432  -15.8364 C   0  0  0  0  0  0  0  0  0  0  0  0
   -9.6223    5.2119  -16.0435 C   0  0  0  0  0  0  0  0  0  0  0  0
   -7.0986    5.4016  -17.2172 C   0  0  0  0  0  0  0  0  0  0  0  0
   -9.5055    5.3704  -17.4244 C   0  0  0  0  0  0  0  0  0  0  0  0
   -9.1666    4.1593   -7.1619 C   0  0  0  0  0  0  0  0  0  0  0  0
   -9.2953    2.7663   -7.2444 C   0  0  0  0  0  0  0  0  0  0  0  0
   -8.4772    5.1483  -15.2495 C   0  0  0  0  0  0  0  0  0  0  0  0
   -8.2436    5.4652  -18.0113 C   0  0  0  0  0  0  0  0  0  0  0  0
   -9.0316    4.5789   -8.4657 C   0  0  0  0  0  0  0  0  0  0  0  0
   -8.9749    3.5063  -10.6420 C   0  0  0  0  0  0  0  0  0  0  0  0
   -8.7719    5.8534  -10.3115 C   0  0  0  0  0  0  0  0  0  0  0  0
   -8.8156    4.6919  -11.2429 C   0  0  0  0  0  0  0  0  0  0  0  0
   -9.2488    2.3143   -8.4970 N   0  0  0  0  0  0  0  0  0  0  0  0
   -8.8717    5.8154   -9.0169 N   0  0  0  0  0  0  0  0  0  0  0  0
   -9.0846    3.4298   -9.2553 N   0  0  0  0  0  0  0  0  0  0  0  0
   -8.1318    5.6173  -19.3375 F   0  0  0  0  0  0  0  0  0  0  0  0
   -6.3135    5.1935  -15.2311 H   0  0  0  0  0  0  0  0  0  0  0  0
  -10.6128    5.1388  -15.6011 H   0  0  0  0  0  0  0  0  0  0  0  0
   -6.1164    5.4761  -17.6747 H   0  0  0  0  0  0  0  0  0  0  0  0
  -10.3964    5.4194  -18.0432 H   0  0  0  0  0  0  0  0  0  0  0  0
   -9.1688    4.7812   -6.2787 H   0  0  0  0  0  0  0  0  0  0  0  0
   -9.4223    2.0560   -6.4403 H   0  0  0  0  0  0  0  0  0  0  0  0
   -9.0240    2.5688  -11.1851 H   0  0  0  0  0  0  0  0  0  0  0  0
   -8.6403    6.8381  -10.7918 H   0  0  0  0  0  0  0  0  0  0  0  0
  1  2  3  0  0  0  0
  1  9  1  0  0  0  0
  2 14  1  0  0  0  0
  3  5  1  0  0  0  0
  3  9  2  0  0  0  0
  4  6  2  0  0  0  0
  4  9  1  0  0  0  0
  5 10  2  0  0  0  0
  6 10  1  0  0  0  0
  7  8  1  0  0  0  0
  7 11  2  0  0  0  0
  8 15  2  0  0  0  0
 10 18  1  0  0  0  0
 11 16  1  0  0  0  0
 11 17  1  0  0  0  0
 12 14  2  0  0  0  0
 12 17  1  0  0  0  0
 13 14  1  0  0  0  0
 13 16  2  0  0  0  0
 15 17  1  0  0  0  0
  3 19  1  0  0  0  0
  4 20  1  0  0  0  0
  5 21  1  0  0  0  0
  6 22  1  0  0  0  0
  7 23  1  0  0  0  0
  8 24  1  0  0  0  0
 12 25  1  0  0  0  0
 13 26  1  0  0  0  0
M  END
> <id>
EN300-48610

> <smiles>
FC=1C=CC(C#CC=2C=NC3=CC=NN3C2)=CC1

> <MDLNUMBER>
MFCD32198575

> <IUPAC Name>
6-[2-(4-fluorophenyl)ethynyl]pyrazolo[1,5-a]pyrimidine

> <CAS>
1264192-08-6

> <Purity>
95

> <URL>
https://www.enaminestore.com/catalog/EN300-48610

> <ROCS_ShapeQuery>
_x0404_0B

> <ROCS_TanimotoCombo>
0.394 

> <ROCS_ShapeTanimoto>
0.333 

> <ROCS_ColorTanimoto>
0.061 

> <ROCS_RefTversky>
0.293 

> <ROCS_RefColorTversky>
0.064 

> <ROCS_RefTverskyCombo>
0.357 

> <ROCS_FitTversky>
1.705 

> <ROCS_FitColorTversky>
0.543 

> <ROCS_FitTverskyCombo>
2.248 

> <ROCS_ColorScore>
-4.644

> <ROCS_Overlap>
1951.601

> <ROCS_Rank>
158                 

$$$$
untitled-dbase-52324_24
  -OEChem-08212314543D

 51 54  0     1  0  0  0  0  0999 V2000
   -6.2872    2.8986  -17.9119 C   0  0  0  0  0  0  0  0  0  0  0  0
   -6.0487    1.6558  -17.3351 C   0  0  0  0  0  0  0  0  0  0  0  0
   -6.9244    3.9021  -17.1776 C   0  0  0  0  0  0  0  0  0  0  0  0
   -6.4426    1.4170  -16.0215 C   0  0  0  0  0  0  0  0  0  0  0  0
   -7.3321    3.6798  -15.8510 C   0  0  0  0  0  0  0  0  0  0  0  0
   -7.0636    2.4279  -15.2748 C   0  0  0  0  0  0  0  0  0  0  0  0
   -6.9587    2.4019  -10.6362 C   0  0  0  0  0  0  0  0  0  0  0  0
   -6.9760    1.6728  -11.7624 C   0  0  0  0  0  0  0  0  0  0  0  0
   -7.9865    4.8259  -15.1453 C   0  0  0  0  0  0  0  0  0  0  0  0
   -9.6646    3.3397  -10.2807 C   0  0  0  0  0  0  0  0  0  0  0  0
   -7.6391    1.9444   -9.3782 C   0  0  0  0  0  0  0  0  0  0  0  0
   -6.3935    2.1011  -13.0716 C   0  0  0  0  0  0  0  0  0  0  0  0
   -8.3106    6.8617  -11.0407 C   0  0  0  0  0  0  0  0  0  0  0  0
   -7.9790    6.4008  -12.4498 C   0  0  0  0  0  0  0  0  0  0  0  0
   -8.6196    5.6616  -10.1478 C   0  0  0  0  0  0  0  0  0  0  0  0
  -10.1185    5.0486  -12.0290 C   0  0  0  0  0  0  0  0  0  0  0  0
   -9.7702    2.0885   -7.9740 C   0  0  0  0  0  0  0  0  0  0  0  0
   -8.6283    3.7928   -7.7778 C   0  0  0  0  0  0  0  0  0  0  0  0
   -9.1428    5.6120  -13.0766 C   0  0  2  0  0  0  0  0  0  0  0  0
   -8.8505    2.8509   -9.0110 C   0  0  0  0  0  0  0  0  0  0  0  0
   -8.6128    4.5560  -13.9374 N   0  0  0  0  0  0  0  0  0  0  0  0
   -8.9616    2.6656   -6.8871 N   0  0  0  0  0  0  0  0  0  0  0  0
   -9.4383    4.6342  -10.7987 N   0  0  0  0  0  0  0  0  0  0  0  0
   -7.9319    5.9481  -15.6459 O   0  0  0  0  0  0  0  0  0  0  0  0
  -10.4607    2.5593  -10.8328 O   0  0  0  0  0  0  0  0  0  0  0  0
   -7.4805    2.1241  -14.0071 O   0  0  0  0  0  0  0  0  0  0  0  0
   -5.9758    3.0924  -18.9351 H   0  0  0  0  0  0  0  0  0  0  0  0
   -5.5491    0.8797  -17.9040 H   0  0  0  0  0  0  0  0  0  0  0  0
   -7.1091    4.8603  -17.6648 H   0  0  0  0  0  0  0  0  0  0  0  0
   -6.2386    0.4407  -15.5938 H   0  0  0  0  0  0  0  0  0  0  0  0
   -6.3882    3.3237  -10.5964 H   0  0  0  0  0  0  0  0  0  0  0  0
   -7.3862    0.6601  -11.7293 H   0  0  0  0  0  0  0  0  0  0  0  0
   -7.9617    0.8988   -9.5093 H   0  0  0  0  0  0  0  0  0  0  0  0
   -6.9238    1.9173   -8.5423 H   0  0  0  0  0  0  0  0  0  0  0  0
   -5.9737    3.1087  -12.9713 H   0  0  0  0  0  0  0  0  0  0  0  0
   -5.6095    1.4031  -13.3936 H   0  0  0  0  0  0  0  0  0  0  0  0
   -7.4726    7.4230  -10.6268 H   0  0  0  0  0  0  0  0  0  0  0  0
   -9.1724    7.5304  -11.0642 H   0  0  0  0  0  0  0  0  0  0  0  0
   -7.7840    7.2792  -13.0727 H   0  0  0  0  0  0  0  0  0  0  0  0
   -7.0634    5.8049  -12.4506 H   0  0  0  0  0  0  0  0  0  0  0  0
   -7.6769    5.2453   -9.7600 H   0  0  0  0  0  0  0  0  0  0  0  0
   -9.1796    5.9933   -9.2497 H   0  0  0  0  0  0  0  0  0  0  0  0
  -10.8411    5.8258  -11.7458 H   0  0  0  0  0  0  0  0  0  0  0  0
  -10.7032    4.2283  -12.4624 H   0  0  0  0  0  0  0  0  0  0  0  0
  -10.8147    2.4159   -7.9724 H   0  0  0  0  0  0  0  0  0  0  0  0
   -9.7455    0.9989   -8.0082 H   0  0  0  0  0  0  0  0  0  0  0  0
   -7.6166    4.1935   -7.6336 H   0  0  0  0  0  0  0  0  0  0  0  0
   -9.3298    4.6360   -7.6838 H   0  0  0  0  0  0  0  0  0  0  0  0
   -9.6944    6.3003  -13.7392 H   0  0  0  0  0  0  0  0  0  0  0  0
   -8.7064    3.5899  -13.6407 H   0  0  0  0  0  0  0  0  0  0  0  0
   -9.4809    2.9177   -6.0516 H   0  0  0  0  0  0  0  0  0  0  0  0
  1  2  2  0  0  0  0
  1  3  1  0  0  0  0
  2  4  1  0  0  0  0
  3  5  2  0  0  0  0
  4  6  2  0  0  0  0
  5  6  1  0  0  0  0
  5  9  1  0  0  0  0
  6 26  1  0  0  0  0
  7  8  2  3  0  0  0
  7 11  1  0  0  0  0
  8 12  1  0  0  0  0
  9 21  1  0  0  0  0
  9 24  2  0  0  0  0
 10 20  1  0  0  0  0
 10 23  1  0  0  0  0
 10 25  2  0  0  0  0
 11 20  1  0  0  0  0
 12 26  1  0  0  0  0
 13 14  1  0  0  0  0
 13 15  1  0  0  0  0
 14 19  1  6  0  0  0
 15 23  1  0  0  0  0
 16 19  1  0  0  0  0
 16 23  1  0  0  0  0
 17 20  1  0  0  0  0
 17 22  1  0  0  0  0
 18 20  1  0  0  0  0
 18 22  1  0  0  0  0
 19 21  1  0  0  0  0
  1 27  1  0  0  0  0
  2 28  1  0  0  0  0
  3 29  1  0  0  0  0
  4 30  1  0  0  0  0
  7 31  1  0  0  0  0
  8 32  1  0  0  0  0
 11 33  1  0  0  0  0
 11 34  1  0  0  0  0
 12 35  1  0  0  0  0
 12 36  1  0  0  0  0
 13 37  1  0  0  0  0
 13 38  1  0  0  0  0
 14 39  1  0  0  0  0
 14 40  1  0  0  0  0
 15 41  1  0  0  0  0
 15 42  1  0  0  0  0
 16 43  1  0  0  0  0
 16 44  1  0  0  0  0
 17 45  1  0  0  0  0
 17 46  1  0  0  0  0
 18 47  1  0  0  0  0
 18 48  1  0  0  0  0
 19 49  1  0  0  0  0
 21 50  1  0  0  0  0
 22 51  1  0  0  0  0
M  END
> <id>
EN300-6481217

> <smiles>
OC(=O)C(F)(F)F.O=C1N[C@@H]2CCCN(C2)C(=O)C3(CNC3)CC=CCOC=4C=CC=CC14

> <IUPAC Name>
(1'R)-10'-oxa-2',17'-diazaspiro[azetidine-3,15'-tricyclo[15.3.1.0,4,9]henicosane]-4'(9'),5',7',12'-tetraene-3',16'-dione; trifluoroacetic acid

> <CAS>
2648895-39-8

> <URL>
https://www.enaminestore.com/catalog/EN300-6481217

> <Saltdate>
OC(=O)C(F)(F)F

> <ROCS_ShapeQuery>
_x0404_0B

> <ROCS_TanimotoCombo>
0.394 

> <ROCS_ShapeTanimoto>
0.264 

> <ROCS_ColorTanimoto>
0.130 

> <ROCS_RefTversky>
0.254 

> <ROCS_RefColorTversky>
0.135 

> <ROCS_RefTverskyCombo>
0.389 

> <ROCS_FitTversky>
1.166 

> <ROCS_FitColorTversky>
0.790 

> <ROCS_FitTverskyCombo>
1.956 

> <ROCS_ColorScore>
-9.746

> <ROCS_Overlap>
1699.959

> <ROCS_Rank>
159                 

$$$$
untitled-dbase-51859_24
  -OEChem-08212314543D

 51 54  0     1  0  0  0  0  0999 V2000
   -6.2872    2.8986  -17.9119 C   0  0  0  0  0  0  0  0  0  0  0  0
   -6.0487    1.6558  -17.3351 C   0  0  0  0  0  0  0  0  0  0  0  0
   -6.9244    3.9021  -17.1776 C   0  0  0  0  0  0  0  0  0  0  0  0
   -6.4426    1.4170  -16.0215 C   0  0  0  0  0  0  0  0  0  0  0  0
   -7.3321    3.6798  -15.8510 C   0  0  0  0  0  0  0  0  0  0  0  0
   -7.0636    2.4279  -15.2748 C   0  0  0  0  0  0  0  0  0  0  0  0
   -6.9587    2.4019  -10.6362 C   0  0  0  0  0  0  0  0  0  0  0  0
   -6.9760    1.6728  -11.7624 C   0  0  0  0  0  0  0  0  0  0  0  0
   -7.9865    4.8259  -15.1453 C   0  0  0  0  0  0  0  0  0  0  0  0
   -9.6646    3.3397  -10.2807 C   0  0  0  0  0  0  0  0  0  0  0  0
   -7.6391    1.9444   -9.3782 C   0  0  0  0  0  0  0  0  0  0  0  0
   -6.3935    2.1011  -13.0716 C   0  0  0  0  0  0  0  0  0  0  0  0
   -8.3106    6.8617  -11.0407 C   0  0  0  0  0  0  0  0  0  0  0  0
   -7.9790    6.4008  -12.4498 C   0  0  0  0  0  0  0  0  0  0  0  0
   -8.6196    5.6616  -10.1478 C   0  0  0  0  0  0  0  0  0  0  0  0
  -10.1185    5.0486  -12.0290 C   0  0  0  0  0  0  0  0  0  0  0  0
   -9.7702    2.0885   -7.9740 C   0  0  0  0  0  0  0  0  0  0  0  0
   -8.6283    3.7928   -7.7778 C   0  0  0  0  0  0  0  0  0  0  0  0
   -9.1428    5.6120  -13.0766 C   0  0  2  0  0  0  0  0  0  0  0  0
   -8.8505    2.8509   -9.0110 C   0  0  0  0  0  0  0  0  0  0  0  0
   -8.6128    4.5560  -13.9374 N   0  0  0  0  0  0  0  0  0  0  0  0
   -8.9616    2.6656   -6.8871 N   0  0  0  0  0  0  0  0  0  0  0  0
   -9.4383    4.6342  -10.7987 N   0  0  0  0  0  0  0  0  0  0  0  0
   -7.9319    5.9481  -15.6459 O   0  0  0  0  0  0  0  0  0  0  0  0
  -10.4607    2.5593  -10.8328 O   0  0  0  0  0  0  0  0  0  0  0  0
   -7.4805    2.1241  -14.0071 O   0  0  0  0  0  0  0  0  0  0  0  0
   -5.9758    3.0924  -18.9351 H   0  0  0  0  0  0  0  0  0  0  0  0
   -5.5491    0.8797  -17.9040 H   0  0  0  0  0  0  0  0  0  0  0  0
   -7.1091    4.8603  -17.6648 H   0  0  0  0  0  0  0  0  0  0  0  0
   -6.2386    0.4407  -15.5938 H   0  0  0  0  0  0  0  0  0  0  0  0
   -6.3882    3.3237  -10.5964 H   0  0  0  0  0  0  0  0  0  0  0  0
   -7.3862    0.6601  -11.7293 H   0  0  0  0  0  0  0  0  0  0  0  0
   -7.9617    0.8988   -9.5093 H   0  0  0  0  0  0  0  0  0  0  0  0
   -6.9238    1.9173   -8.5423 H   0  0  0  0  0  0  0  0  0  0  0  0
   -5.9737    3.1087  -12.9713 H   0  0  0  0  0  0  0  0  0  0  0  0
   -5.6095    1.4031  -13.3936 H   0  0  0  0  0  0  0  0  0  0  0  0
   -7.4726    7.4230  -10.6268 H   0  0  0  0  0  0  0  0  0  0  0  0
   -9.1724    7.5304  -11.0642 H   0  0  0  0  0  0  0  0  0  0  0  0
   -7.7840    7.2792  -13.0727 H   0  0  0  0  0  0  0  0  0  0  0  0
   -7.0634    5.8049  -12.4506 H   0  0  0  0  0  0  0  0  0  0  0  0
   -7.6769    5.2453   -9.7600 H   0  0  0  0  0  0  0  0  0  0  0  0
   -9.1796    5.9933   -9.2497 H   0  0  0  0  0  0  0  0  0  0  0  0
  -10.8411    5.8258  -11.7458 H   0  0  0  0  0  0  0  0  0  0  0  0
  -10.7032    4.2283  -12.4624 H   0  0  0  0  0  0  0  0  0  0  0  0
  -10.8147    2.4159   -7.9724 H   0  0  0  0  0  0  0  0  0  0  0  0
   -9.7455    0.9989   -8.0082 H   0  0  0  0  0  0  0  0  0  0  0  0
   -7.6166    4.1935   -7.6336 H   0  0  0  0  0  0  0  0  0  0  0  0
   -9.3298    4.6360   -7.6838 H   0  0  0  0  0  0  0  0  0  0  0  0
   -9.6944    6.3003  -13.7392 H   0  0  0  0  0  0  0  0  0  0  0  0
   -8.7064    3.5899  -13.6407 H   0  0  0  0  0  0  0  0  0  0  0  0
   -9.4809    2.9177   -6.0516 H   0  0  0  0  0  0  0  0  0  0  0  0
  1  2  2  0  0  0  0
  1  3  1  0  0  0  0
  2  4  1  0  0  0  0
  3  5  2  0  0  0  0
  4  6  2  0  0  0  0
  5  6  1  0  0  0  0
  5  9  1  0  0  0  0
  6 26  1  0  0  0  0
  7  8  2  3  0  0  0
  7 11  1  0  0  0  0
  8 12  1  0  0  0  0
  9 21  1  0  0  0  0
  9 24  2  0  0  0  0
 10 20  1  0  0  0  0
 10 23  1  0  0  0  0
 10 25  2  0  0  0  0
 11 20  1  0  0  0  0
 12 26  1  0  0  0  0
 13 14  1  0  0  0  0
 13 15  1  0  0  0  0
 14 19  1  6  0  0  0
 15 23  1  0  0  0  0
 16 19  1  0  0  0  0
 16 23  1  0  0  0  0
 17 20  1  0  0  0  0
 17 22  1  0  0  0  0
 18 20  1  0  0  0  0
 18 22  1  0  0  0  0
 19 21  1  0  0  0  0
  1 27  1  0  0  0  0
  2 28  1  0  0  0  0
  3 29  1  0  0  0  0
  4 30  1  0  0  0  0
  7 31  1  0  0  0  0
  8 32  1  0  0  0  0
 11 33  1  0  0  0  0
 11 34  1  0  0  0  0
 12 35  1  0  0  0  0
 12 36  1  0  0  0  0
 13 37  1  0  0  0  0
 13 38  1  0  0  0  0
 14 39  1  0  0  0  0
 14 40  1  0  0  0  0
 15 41  1  0  0  0  0
 15 42  1  0  0  0  0
 16 43  1  0  0  0  0
 16 44  1  0  0  0  0
 17 45  1  0  0  0  0
 17 46  1  0  0  0  0
 18 47  1  0  0  0  0
 18 48  1  0  0  0  0
 19 49  1  0  0  0  0
 21 50  1  0  0  0  0
 22 51  1  0  0  0  0
M  END
> <id>
EN300-6481218

> <smiles>
O=C1N[C@@H]2CCCN(C2)C(=O)C3(CNC3)CC=CCOC=4C=CC=CC14

> <IUPAC Name>
(1'R)-10'-oxa-2',17'-diazaspiro[azetidine-3,15'-tricyclo[15.3.1.0,4,9]henicosane]-4'(9'),5',7',12'-tetraene-3',16'-dione

> <CAS>
2648895-38-7

> <URL>
https://www.enaminestore.com/catalog/EN300-6481218

> <ROCS_ShapeQuery>
_x0404_0B

> <ROCS_TanimotoCombo>
0.394 

> <ROCS_ShapeTanimoto>
0.264 

> <ROCS_ColorTanimoto>
0.130 

> <ROCS_RefTversky>
0.254 

> <ROCS_RefColorTversky>
0.135 

> <ROCS_RefTverskyCombo>
0.389 

> <ROCS_FitTversky>
1.166 

> <ROCS_FitColorTversky>
0.790 

> <ROCS_FitTverskyCombo>
1.956 

> <ROCS_ColorScore>
-9.746

> <ROCS_Overlap>
1699.959

> <ROCS_Rank>
160                 

$$$$
untitled-dbase-14338_29
  -OEChem-08212314543D

 42 44  0     1  0  0  0  0  0999 V2000
   -9.2340    2.6984   -6.6478 C   0  0  0  0  0  0  0  0  0  0  0  0
   -9.4153    2.0772   -7.8612 C   0  0  0  0  0  0  0  0  0  0  0  0
   -8.7512    4.1828   -8.1147 C   0  0  0  0  0  0  0  0  0  0  0  0
   -8.3291    5.6226  -14.3328 C   0  0  0  0  0  0  0  0  0  0  0  0
   -8.4983    6.6743  -10.8431 C   0  0  0  0  0  0  0  0  0  0  0  0
   -9.1233    2.8909  -10.2237 C   0  0  0  0  0  0  0  0  0  0  0  0
   -9.1373    6.6705  -12.2343 C   0  0  0  0  0  0  0  0  0  0  0  0
   -9.0283    4.1781  -12.4037 C   0  0  0  0  0  0  0  0  0  0  0  0
   -9.2678    4.2609  -10.8920 C   0  0  2  0  0  0  0  0  0  0  0  0
   -8.2843    5.2664  -10.2666 C   0  0  2  0  0  0  0  0  0  0  0  0
   -7.3195    5.3576  -16.9967 C   0  0  0  0  0  0  0  0  0  0  0  0
   -7.8536    2.9147  -16.7592 C   0  0  0  0  0  0  0  0  0  0  0  0
   -9.6981    4.6154  -16.6420 C   0  0  0  0  0  0  0  0  0  0  0  0
   -8.2305    4.3300  -16.3267 C   0  0  0  0  0  0  0  0  0  0  0  0
   -8.8247    4.0000   -6.8107 N   0  0  0  0  0  0  0  0  0  0  0  0
   -9.1055    3.0330   -8.7802 N   0  0  0  0  0  0  0  0  0  0  0  0
   -8.4089    5.2907   -8.8134 N   0  0  0  0  0  0  0  0  0  0  0  0
   -8.7795    5.4898  -13.0152 N   0  0  0  0  0  0  0  0  0  0  0  0
   -8.2015    6.6948  -14.9204 O   0  0  0  0  0  0  0  0  0  0  0  0
   -8.0445    4.4118  -14.9091 O   0  0  0  0  0  0  0  0  0  0  0  0
   -9.3784    2.2759   -5.6643 H   0  0  0  0  0  0  0  0  0  0  0  0
   -9.7265    1.0785   -8.1335 H   0  0  0  0  0  0  0  0  0  0  0  0
   -7.5294    7.2083  -10.8944 H   0  0  0  0  0  0  0  0  0  0  0  0
   -9.1333    7.2704  -10.1571 H   0  0  0  0  0  0  0  0  0  0  0  0
   -9.9591    2.2334  -10.4918 H   0  0  0  0  0  0  0  0  0  0  0  0
   -8.1822    2.4002  -10.5027 H   0  0  0  0  0  0  0  0  0  0  0  0
  -10.2284    6.7563  -12.1370 H   0  0  0  0  0  0  0  0  0  0  0  0
   -8.8003    7.5483  -12.8059 H   0  0  0  0  0  0  0  0  0  0  0  0
   -8.1437    3.5512  -12.6244 H   0  0  0  0  0  0  0  0  0  0  0  0
   -9.8840    3.6725  -12.8848 H   0  0  0  0  0  0  0  0  0  0  0  0
  -10.2933    4.6185  -10.7368 H   0  0  0  0  0  0  0  0  0  0  0  0
   -7.2461    4.9593  -10.5043 H   0  0  0  0  0  0  0  0  0  0  0  0
   -7.5868    6.3748  -16.6888 H   0  0  0  0  0  0  0  0  0  0  0  0
   -6.2668    5.1850  -16.7501 H   0  0  0  0  0  0  0  0  0  0  0  0
   -7.4293    5.3257  -18.0867 H   0  0  0  0  0  0  0  0  0  0  0  0
   -8.5047    2.1742  -16.2809 H   0  0  0  0  0  0  0  0  0  0  0  0
   -6.8305    2.6716  -16.4503 H   0  0  0  0  0  0  0  0  0  0  0  0
   -7.9267    2.7910  -17.8445 H   0  0  0  0  0  0  0  0  0  0  0  0
  -10.3518    3.8784  -16.1615 H   0  0  0  0  0  0  0  0  0  0  0  0
   -9.9964    5.6135  -16.3051 H   0  0  0  0  0  0  0  0  0  0  0  0
   -9.8870    4.5405  -17.7191 H   0  0  0  0  0  0  0  0  0  0  0  0
   -8.0836    6.1281   -8.3273 H   0  0  0  0  0  0  0  0  0  0  0  0
  1  2  2  0  0  0  0
  1 15  1  0  0  0  0
  2 16  1  0  0  0  0
  3 15  2  0  0  0  0
  3 16  1  0  0  0  0
  3 17  1  0  0  0  0
  4 18  1  0  0  0  0
  4 19  2  0  0  0  0
  4 20  1  0  0  0  0
  5  7  1  0  0  0  0
  5 10  1  0  0  0  0
  6  9  1  0  0  0  0
  6 16  1  0  0  0  0
  7 18  1  0  0  0  0
  8  9  1  0  0  0  0
  8 18  1  0  0  0  0
  9 10  1  0  0  0  0
 10 17  1  0  0  0  0
 11 14  1  0  0  0  0
 12 14  1  0  0  0  0
 13 14  1  0  0  0  0
 14 20  1  0  0  0  0
  1 21  1  0  0  0  0
  2 22  1  0  0  0  0
  5 23  1  0  0  0  0
  5 24  1  0  0  0  0
  6 25  1  0  0  0  0
  6 26  1  0  0  0  0
  7 27  1  0  0  0  0
  7 28  1  0  0  0  0
  8 29  1  0  0  0  0
  8 30  1  0  0  0  0
  9 31  1  0  0  0  0
 10 32  1  0  0  0  0
 11 33  1  0  0  0  0
 11 34  1  0  0  0  0
 11 35  1  0  0  0  0
 12 36  1  0  0  0  0
 12 37  1  0  0  0  0
 12 38  1  0  0  0  0
 13 39  1  0  0  0  0
 13 40  1  0  0  0  0
 13 41  1  0  0  0  0
 17 42  1  0  0  0  0
M  END
> <id>
EN300-1118513

> <smiles>
CC(C)(C)OC(=O)N1CCC2NC3=NC=CN3CC2C1

> <IUPAC Name>
tert-butyl 2,4,7,11-tetraazatricyclo[7.4.0.0,3,7]trideca-3,5-diene-11-carboxylate

> <CAS>
1690824-72-6

> <URL>
https://www.enaminestore.com/catalog/EN300-1118513

> <ROCS_ShapeQuery>
_x0404_0B

> <ROCS_TanimotoCombo>
0.394 

> <ROCS_ShapeTanimoto>
0.324 

> <ROCS_ColorTanimoto>
0.070 

> <ROCS_RefTversky>
0.290 

> <ROCS_RefColorTversky>
0.075 

> <ROCS_RefTverskyCombo>
0.365 

> <ROCS_FitTversky>
1.588 

> <ROCS_FitColorTversky>
0.477 

> <ROCS_FitTverskyCombo>
2.064 

> <ROCS_ColorScore>
-5.437

> <ROCS_Overlap>
1932.409

> <ROCS_Rank>
161                 

$$$$
untitled-dbase-14072_35
  -OEChem-08212314543D

 51 53  0     1  0  0  0  0  0999 V2000
   -9.0800    2.8226   -9.3702 C   0  0  0  0  0  0  0  0  0  0  0  0
   -9.0921    2.1210   -8.1840 C   0  0  0  0  0  0  0  0  0  0  0  0
   -9.0454    4.2424   -9.1710 C   0  0  0  0  0  0  0  0  0  0  0  0
   -9.0199    4.5370   -7.8198 C   0  0  0  0  0  0  0  0  0  0  0  0
   -8.7044    5.7366  -14.6040 C   0  0  0  0  0  0  0  0  0  0  0  0
   -8.9929    5.9204   -7.2633 C   0  0  0  0  0  0  0  0  0  0  0  0
  -10.1177    5.0923  -11.3127 C   0  0  0  0  0  0  0  0  0  0  0  0
   -7.6096    5.3311  -10.9404 C   0  0  0  0  0  0  0  0  0  0  0  0
   -8.5852    6.9040   -8.3658 C   0  0  0  0  0  0  0  0  0  0  0  0
   -9.5808    4.4884  -12.6073 C   0  0  0  0  0  0  0  0  0  0  0  0
   -9.0053    5.3272  -10.2523 C   0  0  2  0  0  0  0  0  0  0  0  0
   -7.5498    5.9743  -12.3597 C   0  0  0  0  0  0  0  0  0  0  0  0
   -7.7045    7.5037  -12.2545 C   0  0  0  0  0  0  0  0  0  0  0  0
   -6.1470    5.6531  -12.9247 C   0  0  0  0  0  0  0  0  0  0  0  0
   -7.2862    4.4256  -16.7206 C   0  0  0  0  0  0  0  0  0  0  0  0
   -9.5158    3.4699  -17.3725 C   0  0  0  0  0  0  0  0  0  0  0  0
   -9.1546    5.9547  -17.4315 C   0  0  0  0  0  0  0  0  0  0  0  0
   -8.7977    4.6498  -16.7211 C   0  0  0  0  0  0  0  0  0  0  0  0
   -9.3088    6.6429   -9.6183 N   0  0  0  0  0  0  0  0  0  0  0  0
   -8.6153    5.4011  -13.2397 N   0  0  0  0  0  0  0  0  0  0  0  0
   -8.3377    6.8040  -15.0905 O   0  0  0  0  0  0  0  0  0  0  0  0
   -9.2467    4.7321  -15.3634 O   0  0  0  0  0  0  0  0  0  0  0  0
   -9.0560    3.1590   -6.8258 S   0  0  0  0  0  0  0  0  0  0  0  0
   -9.0933    2.3354  -10.3368 H   0  0  0  0  0  0  0  0  0  0  0  0
   -9.1172    1.0483   -8.0531 H   0  0  0  0  0  0  0  0  0  0  0  0
   -9.9926    6.1763   -6.8901 H   0  0  0  0  0  0  0  0  0  0  0  0
   -8.2915    5.9981   -6.4248 H   0  0  0  0  0  0  0  0  0  0  0  0
  -10.6324    6.0339  -11.5383 H   0  0  0  0  0  0  0  0  0  0  0  0
  -10.8851    4.4185  -10.9144 H   0  0  0  0  0  0  0  0  0  0  0  0
   -6.8692    5.7979  -10.2879 H   0  0  0  0  0  0  0  0  0  0  0  0
   -7.2941    4.2862  -11.0312 H   0  0  0  0  0  0  0  0  0  0  0  0
   -8.8048    7.9259   -8.0359 H   0  0  0  0  0  0  0  0  0  0  0  0
   -7.5026    6.8667   -8.5348 H   0  0  0  0  0  0  0  0  0  0  0  0
   -9.1148    3.5490  -12.3675 H   0  0  0  0  0  0  0  0  0  0  0  0
  -10.3739    4.3181  -13.3161 H   0  0  0  0  0  0  0  0  0  0  0  0
   -7.6607    7.9336  -13.2485 H   0  0  0  0  0  0  0  0  0  0  0  0
   -6.8998    7.9002  -11.6462 H   0  0  0  0  0  0  0  0  0  0  0  0
   -8.6597    7.7326  -11.7962 H   0  0  0  0  0  0  0  0  0  0  0  0
   -6.0670    6.0845  -13.9120 H   0  0  0  0  0  0  0  0  0  0  0  0
   -6.0334    4.5798  -12.9729 H   0  0  0  0  0  0  0  0  0  0  0  0
   -5.4050    6.0809  -12.2659 H   0  0  0  0  0  0  0  0  0  0  0  0
   -6.7671    5.2703  -16.2539 H   0  0  0  0  0  0  0  0  0  0  0  0
   -7.0143    3.5108  -16.1839 H   0  0  0  0  0  0  0  0  0  0  0  0
   -6.9012    4.3536  -17.7443 H   0  0  0  0  0  0  0  0  0  0  0  0
  -10.6005    3.6265  -17.3750 H   0  0  0  0  0  0  0  0  0  0  0  0
   -9.3386    2.5462  -16.8097 H   0  0  0  0  0  0  0  0  0  0  0  0
   -9.1853    3.3157  -18.4048 H   0  0  0  0  0  0  0  0  0  0  0  0
  -10.2387    6.1158  -17.4320 H   0  0  0  0  0  0  0  0  0  0  0  0
   -8.6774    6.8170  -16.9549 H   0  0  0  0  0  0  0  0  0  0  0  0
   -8.8463    5.9230  -18.4828 H   0  0  0  0  0  0  0  0  0  0  0  0
  -10.3121    6.7021   -9.4334 H   0  0  0  0  0  0  0  0  0  0  0  0
  1  2  2  0  0  0  0
  1  3  1  0  0  0  0
  2 23  1  0  0  0  0
  3  4  2  0  0  0  0
  3 11  1  0  0  0  0
  4  6  1  0  0  0  0
  4 23  1  0  0  0  0
  5 20  1  0  0  0  0
  5 21  2  0  0  0  0
  5 22  1  0  0  0  0
  6  9  1  0  0  0  0
  7 10  1  0  0  0  0
  7 11  1  0  0  0  0
  8 11  1  0  0  0  0
  8 12  1  0  0  0  0
  9 19  1  0  0  0  0
 10 20  1  0  0  0  0
 11 19  1  0  0  0  0
 12 13  1  0  0  0  0
 12 14  1  0  0  0  0
 12 20  1  0  0  0  0
 15 18  1  0  0  0  0
 16 18  1  0  0  0  0
 17 18  1  0  0  0  0
 18 22  1  0  0  0  0
  1 24  1  0  0  0  0
  2 25  1  0  0  0  0
  6 26  1  0  0  0  0
  6 27  1  0  0  0  0
  7 28  1  0  0  0  0
  7 29  1  0  0  0  0
  8 30  1  0  0  0  0
  8 31  1  0  0  0  0
  9 32  1  0  0  0  0
  9 33  1  0  0  0  0
 10 34  1  0  0  0  0
 10 35  1  0  0  0  0
 13 36  1  0  0  0  0
 13 37  1  0  0  0  0
 13 38  1  0  0  0  0
 14 39  1  0  0  0  0
 14 40  1  0  0  0  0
 14 41  1  0  0  0  0
 15 42  1  0  0  0  0
 15 43  1  0  0  0  0
 15 44  1  0  0  0  0
 16 45  1  0  0  0  0
 16 46  1  0  0  0  0
 16 47  1  0  0  0  0
 17 48  1  0  0  0  0
 17 49  1  0  0  0  0
 17 50  1  0  0  0  0
 19 51  1  0  0  0  0
M  END
> <id>
EN300-1076173

> <smiles>
CC(C)(C)OC(=O)N1CCC2(CC1(C)C)NCCC=3SC=CC32

> <IUPAC Name>
tert-butyl 2,2-dimethyl-6',7'-dihydro-5'H-spiro[piperidine-4,4'-thieno[3,2-c]pyridine]-1-carboxylate

> <CAS>
2029300-26-1

> <URL>
https://www.enaminestore.com/catalog/EN300-1076173

> <ROCS_ShapeQuery>
_x0404_0B

> <ROCS_TanimotoCombo>
0.394 

> <ROCS_ShapeTanimoto>
0.322 

> <ROCS_ColorTanimoto>
0.072 

> <ROCS_RefTversky>
0.291 

> <ROCS_RefColorTversky>
0.078 

> <ROCS_RefTverskyCombo>
0.369 

> <ROCS_FitTversky>
1.485 

> <ROCS_FitColorTversky>
0.494 

> <ROCS_FitTverskyCombo>
1.979 

> <ROCS_ColorScore>
-5.629

> <ROCS_Overlap>
1942.362

> <ROCS_Rank>
162                 

$$$$
untitled-dbase-51864_19
  -OEChem-08212314543D

 37 39  0     0  0  0  0  0  0999 V2000
   -8.9328    4.0121   -9.5118 C   0  0  0  0  0  0  0  0  0  0  0  0
   -8.9394    6.7667   -9.2510 C   0  0  0  0  0  0  0  0  0  0  0  0
   -8.8341    6.2105  -10.5027 C   0  0  0  0  0  0  0  0  0  0  0  0
   -8.8328    4.8328  -10.6108 C   0  0  0  0  0  0  0  0  0  0  0  0
   -9.0347    4.6605   -8.2908 C   0  0  0  0  0  0  0  0  0  0  0  0
   -8.3427    5.0335  -16.1157 C   0  0  0  0  0  0  0  0  0  0  0  0
   -8.7165    6.8552  -11.8329 C   0  0  0  0  0  0  0  0  0  0  0  0
   -9.6015    5.6247  -13.9632 C   0  0  0  0  0  0  0  0  0  0  0  0
   -7.4629    5.6126  -13.7615 C   0  0  0  0  0  0  0  0  0  0  0  0
   -8.6371    5.6166  -12.7523 C   0  0  0  0  0  0  0  0  0  0  0  0
   -8.1121    5.8294  -18.8480 C   0  0  0  0  0  0  0  0  0  0  0  0
   -5.6323    5.8225  -18.4484 C   0  0  0  0  0  0  0  0  0  0  0  0
   -6.9419    3.6917  -18.2192 C   0  0  0  0  0  0  0  0  0  0  0  0
   -6.9709    5.2092  -18.0432 C   0  0  0  0  0  0  0  0  0  0  0  0
   -9.0406    6.0130   -8.1305 N   0  0  0  0  0  0  0  0  0  0  0  0
   -8.4459    5.3661  -14.7935 N   0  0  0  0  0  0  0  0  0  0  0  0
   -9.1888    4.3950  -16.7352 O   0  0  0  0  0  0  0  0  0  0  0  0
   -8.7228    4.4204  -11.9087 O   0  0  0  0  0  0  0  0  0  0  0  0
   -7.1783    5.5035  -16.6573 O   0  0  0  0  0  0  0  0  0  0  0  0
   -9.1665    3.7692   -6.8292 Cl  0  0  0  0  0  0  0  0  0  0  0  0
   -8.9312    2.9330   -9.6023 H   0  0  0  0  0  0  0  0  0  0  0  0
   -8.9468    7.8393   -9.0974 H   0  0  0  0  0  0  0  0  0  0  0  0
   -9.5983    7.4701  -12.0415 H   0  0  0  0  0  0  0  0  0  0  0  0
   -7.8117    7.4697  -11.8849 H   0  0  0  0  0  0  0  0  0  0  0  0
  -10.3306    4.8091  -13.9890 H   0  0  0  0  0  0  0  0  0  0  0  0
  -10.0982    6.5734  -14.1822 H   0  0  0  0  0  0  0  0  0  0  0  0
   -6.9234    6.5548  -13.8861 H   0  0  0  0  0  0  0  0  0  0  0  0
   -6.7512    4.7889  -13.6517 H   0  0  0  0  0  0  0  0  0  0  0  0
   -9.0747    5.3918  -18.5601 H   0  0  0  0  0  0  0  0  0  0  0  0
   -8.1655    6.9133  -18.7029 H   0  0  0  0  0  0  0  0  0  0  0  0
   -7.9894    5.6292  -19.9186 H   0  0  0  0  0  0  0  0  0  0  0  0
   -4.8106    5.3805  -17.8733 H   0  0  0  0  0  0  0  0  0  0  0  0
   -5.6149    6.8974  -18.2351 H   0  0  0  0  0  0  0  0  0  0  0  0
   -5.4273    5.6771  -19.5139 H   0  0  0  0  0  0  0  0  0  0  0  0
   -6.1234    3.2466  -17.6419 H   0  0  0  0  0  0  0  0  0  0  0  0
   -7.8816    3.2304  -17.8985 H   0  0  0  0  0  0  0  0  0  0  0  0
   -6.7625    3.4243  -19.2668 H   0  0  0  0  0  0  0  0  0  0  0  0
  1  4  2  0  0  0  0
  1  5  1  0  0  0  0
  2  3  2  0  0  0  0
  2 15  1  0  0  0  0
  3  4  1  0  0  0  0
  3  7  1  0  0  0  0
  4 18  1  0  0  0  0
  5 15  2  0  0  0  0
  5 20  1  0  0  0  0
  6 16  1  0  0  0  0
  6 17  2  0  0  0  0
  6 19  1  0  0  0  0
  7 10  1  0  0  0  0
  8 10  1  0  0  0  0
  8 16  1  0  0  0  0
  9 10  1  0  0  0  0
  9 16  1  0  0  0  0
 10 18  1  0  0  0  0
 11 14  1  0  0  0  0
 12 14  1  0  0  0  0
 13 14  1  0  0  0  0
 14 19  1  0  0  0  0
  1 21  1  0  0  0  0
  2 22  1  0  0  0  0
  7 23  1  0  0  0  0
  7 24  1  0  0  0  0
  8 25  1  0  0  0  0
  8 26  1  0  0  0  0
  9 27  1  0  0  0  0
  9 28  1  0  0  0  0
 11 29  1  0  0  0  0
 11 30  1  0  0  0  0
 11 31  1  0  0  0  0
 12 32  1  0  0  0  0
 12 33  1  0  0  0  0
 12 34  1  0  0  0  0
 13 35  1  0  0  0  0
 13 36  1  0  0  0  0
 13 37  1  0  0  0  0
M  END
> <id>
EN300-28289542

> <smiles>
CC(C)(C)OC(=O)N1CC2(C1)CC=3C=NC(Cl)=CC3O2

> <IUPAC Name>
tert-butyl 6'-chloro-3'H-spiro[azetidine-3,2'-furo[3,2-c]pyridine]-1-carboxylate

> <CAS>
2680808-86-8

> <URL>
https://www.enaminestore.com/catalog/EN300-28289542

> <ROCS_ShapeQuery>
_x0404_0B

> <ROCS_TanimotoCombo>
0.394 

> <ROCS_ShapeTanimoto>
0.344 

> <ROCS_ColorTanimoto>
0.049 

> <ROCS_RefTversky>
0.303 

> <ROCS_RefColorTversky>
0.054 

> <ROCS_RefTverskyCombo>
0.357 

> <ROCS_FitTversky>
1.665 

> <ROCS_FitColorTversky>
0.372 

> <ROCS_FitTverskyCombo>
2.037 

> <ROCS_ColorScore>
-3.890

> <ROCS_Overlap>
2019.141

> <ROCS_Rank>
163                 

$$$$
untitled-dbase-39446_779
  -OEChem-08212314543D

 54 54  0     0  0  0  0  0  0999 V2000
   -8.6176    5.5060  -14.8303 C   0  0  0  0  0  0  0  0  0  0  0  0
   -8.5932    4.6163   -9.5748 C   0  0  0  0  0  0  0  0  0  0  0  0
   -9.4076    6.1893  -12.5814 C   0  0  0  0  0  0  0  0  0  0  0  0
   -8.3186    6.2084  -11.5154 C   0  0  0  0  0  0  0  0  0  0  0  0
   -9.5170    3.7823  -13.2210 C   0  0  0  0  0  0  0  0  0  0  0  0
   -7.4375    3.8774  -11.6448 C   0  0  0  0  0  0  0  0  0  0  0  0
   -8.3659    3.0076  -12.5293 C   0  0  0  0  0  0  0  0  0  0  0  0
   -8.9794    1.8565  -11.7109 C   0  0  0  0  0  0  0  0  0  0  0  0
   -6.5016    5.2756  -16.7430 C   0  0  0  0  0  0  0  0  0  0  0  0
   -7.8284    3.3723  -17.7054 C   0  0  0  0  0  0  0  0  0  0  0  0
   -8.7979    5.6892  -17.6866 C   0  0  0  0  0  0  0  0  0  0  0  0
  -10.6509    3.7027   -7.8084 C   0  0  0  0  0  0  0  0  0  0  0  0
   -9.6714    1.4150   -8.1493 C   0  0  0  0  0  0  0  0  0  0  0  0
   -8.2879    3.2223   -7.0873 C   0  0  0  0  0  0  0  0  0  0  0  0
   -7.9006    4.6968  -16.9485 C   0  0  0  0  0  0  0  0  0  0  0  0
   -9.3784    2.9133   -8.1121 C   0  0  0  0  0  0  0  0  0  0  0  0
   -9.1845    5.1602  -13.5986 N   0  0  0  0  0  0  0  0  0  0  0  0
   -8.1320    4.9049  -10.8645 N   0  0  0  0  0  0  0  0  0  0  0  0
   -7.5070    2.3738  -13.5458 N   0  0  0  0  0  0  0  0  0  0  0  0
   -8.2782    6.6463  -15.1412 O   0  0  0  0  0  0  0  0  0  0  0  0
   -8.7042    5.4488   -8.6766 O   0  0  0  0  0  0  0  0  0  0  0  0
   -8.4761    4.4292  -15.6648 O   0  0  0  0  0  0  0  0  0  0  0  0
   -8.9054    3.2928   -9.4095 O   0  0  0  0  0  0  0  0  0  0  0  0
  -10.3762    6.0134  -12.0979 H   0  0  0  0  0  0  0  0  0  0  0  0
   -9.4889    7.1654  -13.0754 H   0  0  0  0  0  0  0  0  0  0  0  0
   -7.3717    6.4772  -11.9656 H   0  0  0  0  0  0  0  0  0  0  0  0
   -8.5674    6.9468  -10.7655 H   0  0  0  0  0  0  0  0  0  0  0  0
   -9.8351    3.2674  -14.1406 H   0  0  0  0  0  0  0  0  0  0  0  0
  -10.4009    3.7953  -12.5658 H   0  0  0  0  0  0  0  0  0  0  0  0
   -6.8992    3.2250  -10.9420 H   0  0  0  0  0  0  0  0  0  0  0  0
   -6.6578    4.3686  -12.2443 H   0  0  0  0  0  0  0  0  0  0  0  0
   -8.1856    1.3034  -11.2196 H   0  0  0  0  0  0  0  0  0  0  0  0
   -9.5269    1.1963  -12.3758 H   0  0  0  0  0  0  0  0  0  0  0  0
   -9.6540    2.2662  -10.9662 H   0  0  0  0  0  0  0  0  0  0  0  0
   -6.5491    6.2264  -16.2001 H   0  0  0  0  0  0  0  0  0  0  0  0
   -5.8585    4.5879  -16.1842 H   0  0  0  0  0  0  0  0  0  0  0  0
   -6.0230    5.4926  -17.7049 H   0  0  0  0  0  0  0  0  0  0  0  0
   -8.8301    2.9534  -17.8550 H   0  0  0  0  0  0  0  0  0  0  0  0
   -7.2641    2.6265  -17.1339 H   0  0  0  0  0  0  0  0  0  0  0  0
   -7.3528    3.4918  -18.6842 H   0  0  0  0  0  0  0  0  0  0  0  0
   -9.8015    5.2742  -17.8341 H   0  0  0  0  0  0  0  0  0  0  0  0
   -8.8912    6.6329  -17.1393 H   0  0  0  0  0  0  0  0  0  0  0  0
   -8.4021    5.9038  -18.6859 H   0  0  0  0  0  0  0  0  0  0  0  0
  -10.4448    4.7787   -7.7808 H   0  0  0  0  0  0  0  0  0  0  0  0
  -11.4290    3.5168   -8.5559 H   0  0  0  0  0  0  0  0  0  0  0  0
  -11.0487    3.4388   -6.8218 H   0  0  0  0  0  0  0  0  0  0  0  0
   -8.7611    0.8447   -8.3669 H   0  0  0  0  0  0  0  0  0  0  0  0
  -10.3834    1.1763   -8.9476 H   0  0  0  0  0  0  0  0  0  0  0  0
  -10.0840    1.0603   -7.1993 H   0  0  0  0  0  0  0  0  0  0  0  0
   -7.3750    2.6561   -7.3049 H   0  0  0  0  0  0  0  0  0  0  0  0
   -8.0384    4.2882   -7.0728 H   0  0  0  0  0  0  0  0  0  0  0  0
   -8.6037    2.9248   -6.0807 H   0  0  0  0  0  0  0  0  0  0  0  0
   -8.0735    1.7544  -14.0665 H   0  0  0  0  0  0  0  0  0  0  0  0
   -7.1419    3.0946  -14.1141 H   0  0  0  0  0  0  0  0  0  0  0  0
  1 17  1  0  0  0  0
  1 20  2  0  0  0  0
  1 22  1  0  0  0  0
  2 18  1  0  0  0  0
  2 21  2  0  0  0  0
  2 23  1  0  0  0  0
  3  4  1  0  0  0  0
  3 17  1  0  0  0  0
  4 18  1  0  0  0  0
  5  7  1  0  0  0  0
  5 17  1  0  0  0  0
  6  7  1  0  0  0  0
  6 18  1  0  0  0  0
  7  8  1  0  0  0  0
  7 19  1  0  0  0  0
  9 15  1  0  0  0  0
 10 15  1  0  0  0  0
 11 15  1  0  0  0  0
 12 16  1  0  0  0  0
 13 16  1  0  0  0  0
 14 16  1  0  0  0  0
 15 22  1  0  0  0  0
 16 23  1  0  0  0  0
  3 24  1  0  0  0  0
  3 25  1  0  0  0  0
  4 26  1  0  0  0  0
  4 27  1  0  0  0  0
  5 28  1  0  0  0  0
  5 29  1  0  0  0  0
  6 30  1  0  0  0  0
  6 31  1  0  0  0  0
  8 32  1  0  0  0  0
  8 33  1  0  0  0  0
  8 34  1  0  0  0  0
  9 35  1  0  0  0  0
  9 36  1  0  0  0  0
  9 37  1  0  0  0  0
 10 38  1  0  0  0  0
 10 39  1  0  0  0  0
 10 40  1  0  0  0  0
 11 41  1  0  0  0  0
 11 42  1  0  0  0  0
 11 43  1  0  0  0  0
 12 44  1  0  0  0  0
 12 45  1  0  0  0  0
 12 46  1  0  0  0  0
 13 47  1  0  0  0  0
 13 48  1  0  0  0  0
 13 49  1  0  0  0  0
 14 50  1  0  0  0  0
 14 51  1  0  0  0  0
 14 52  1  0  0  0  0
 19 53  1  0  0  0  0
 19 54  1  0  0  0  0
M  END
> <id>
EN300-1652924

> <smiles>
CC(C)(C)OC(=O)N1CCN(CC(C)(N)C1)C(=O)OC(C)(C)C

> <MDLNUMBER>
MFCD32762007

> <IUPAC Name>
1,4-di-tert-butyl 6-amino-6-methyl-1,4-diazepane-1,4-dicarboxylate

> <CAS>
2171853-85-1

> <URL>
https://www.enaminestore.com/catalog/EN300-1652924

> <ROCS_ShapeQuery>
_x0404_0B

> <ROCS_TanimotoCombo>
0.394 

> <ROCS_ShapeTanimoto>
0.333 

> <ROCS_ColorTanimoto>
0.061 

> <ROCS_RefTversky>
0.298 

> <ROCS_RefColorTversky>
0.066 

> <ROCS_RefTverskyCombo>
0.364 

> <ROCS_FitTversky>
1.535 

> <ROCS_FitColorTversky>
0.454 

> <ROCS_FitTverskyCombo>
1.989 

> <ROCS_ColorScore>
-4.733

> <ROCS_Overlap>
1990.694

> <ROCS_Rank>
164                 

$$$$
untitled-dbase-32007_0
  -OEChem-08212314543D

 39 40  0     0  0  0  0  0  0999 V2000
   -8.5605    5.5061  -10.2179 C   0  0  0  0  0  0  0  0  0  0  0  0
   -9.0854    4.3919  -10.8641 C   0  0  0  0  0  0  0  0  0  0  0  0
   -8.2979    5.3522   -8.8664 C   0  0  0  0  0  0  0  0  0  0  0  0
   -9.0659    3.2172   -8.9024 C   0  0  0  0  0  0  0  0  0  0  0  0
   -8.5843    5.6695  -14.3678 C   0  0  0  0  0  0  0  0  0  0  0  0
   -8.2420    6.7731  -10.9490 C   0  0  0  0  0  0  0  0  0  0  0  0
   -9.4081    4.4270  -12.3345 C   0  0  0  0  0  0  0  0  0  0  0  0
   -9.0280    6.8848  -12.2515 C   0  0  0  0  0  0  0  0  0  0  0  0
   -6.9067    4.7957  -16.5153 C   0  0  0  0  0  0  0  0  0  0  0  0
   -8.5815    2.9499  -16.8275 C   0  0  0  0  0  0  0  0  0  0  0  0
   -9.2856    5.3419  -17.1293 C   0  0  0  0  0  0  0  0  0  0  0  0
   -7.6983    6.4643   -8.0694 C   0  0  0  0  0  0  0  0  0  0  0  0
   -8.3714    4.3888  -16.3608 C   0  0  0  0  0  0  0  0  0  0  0  0
   -9.3546    3.2338  -10.2176 N   0  0  0  0  0  0  0  0  0  0  0  0
   -8.5434    4.2207   -8.1761 N   0  0  0  0  0  0  0  0  0  0  0  0
   -8.9460    5.6419  -13.0167 N   0  0  0  0  0  0  0  0  0  0  0  0
   -9.3397    2.0158   -8.2132 N   0  0  0  0  0  0  0  0  0  0  0  0
   -8.1945    6.6731  -14.9618 O   0  0  0  0  0  0  0  0  0  0  0  0
   -8.7164    4.4467  -14.9719 O   0  0  0  0  0  0  0  0  0  0  0  0
   -7.4550    7.5902   -8.8018 F   0  0  0  0  0  0  0  0  0  0  0  0
   -8.4837    6.8750   -7.0314 F   0  0  0  0  0  0  0  0  0  0  0  0
   -6.5013    6.1217   -7.5124 F   0  0  0  0  0  0  0  0  0  0  0  0
   -8.4806    7.6469  -10.3318 H   0  0  0  0  0  0  0  0  0  0  0  0
   -7.1666    6.7954  -11.1643 H   0  0  0  0  0  0  0  0  0  0  0  0
   -8.9795    3.5417  -12.8148 H   0  0  0  0  0  0  0  0  0  0  0  0
  -10.4964    4.3881  -12.4608 H   0  0  0  0  0  0  0  0  0  0  0  0
  -10.0912    7.0632  -12.0469 H   0  0  0  0  0  0  0  0  0  0  0  0
   -8.6621    7.7334  -12.8383 H   0  0  0  0  0  0  0  0  0  0  0  0
   -6.7517    5.8279  -16.1814 H   0  0  0  0  0  0  0  0  0  0  0  0
   -6.2434    4.1410  -15.9407 H   0  0  0  0  0  0  0  0  0  0  0  0
   -6.6003    4.7618  -17.5671 H   0  0  0  0  0  0  0  0  0  0  0  0
   -9.6310    2.6538  -16.7184 H   0  0  0  0  0  0  0  0  0  0  0  0
   -7.9986    2.2521  -16.2155 H   0  0  0  0  0  0  0  0  0  0  0  0
   -8.2912    2.8184  -17.8748 H   0  0  0  0  0  0  0  0  0  0  0  0
  -10.3363    5.0502  -17.0186 H   0  0  0  0  0  0  0  0  0  0  0  0
   -9.1752    6.3743  -16.7822 H   0  0  0  0  0  0  0  0  0  0  0  0
   -9.0674    5.3102  -18.2029 H   0  0  0  0  0  0  0  0  0  0  0  0
   -9.0972    1.9435   -7.2465 H   0  0  0  0  0  0  0  0  0  0  0  0
   -9.6830    1.2291   -8.7248 H   0  0  0  0  0  0  0  0  0  0  0  0
  1  2  1  0  0  0  0
  1  3  2  0  0  0  0
  1  6  1  0  0  0  0
  2  7  1  0  0  0  0
  2 14  2  0  0  0  0
  3 12  1  0  0  0  0
  3 15  1  0  0  0  0
  4 14  1  0  0  0  0
  4 15  2  0  0  0  0
  4 17  1  0  0  0  0
  5 16  1  0  0  0  0
  5 18  2  0  0  0  0
  5 19  1  0  0  0  0
  6  8  1  0  0  0  0
  7 16  1  0  0  0  0
  8 16  1  0  0  0  0
  9 13  1  0  0  0  0
 10 13  1  0  0  0  0
 11 13  1  0  0  0  0
 12 20  1  0  0  0  0
 12 21  1  0  0  0  0
 12 22  1  0  0  0  0
 13 19  1  0  0  0  0
  6 23  1  0  0  0  0
  6 24  1  0  0  0  0
  7 25  1  0  0  0  0
  7 26  1  0  0  0  0
  8 27  1  0  0  0  0
  8 28  1  0  0  0  0
  9 29  1  0  0  0  0
  9 30  1  0  0  0  0
  9 31  1  0  0  0  0
 10 32  1  0  0  0  0
 10 33  1  0  0  0  0
 10 34  1  0  0  0  0
 11 35  1  0  0  0  0
 11 36  1  0  0  0  0
 11 37  1  0  0  0  0
 17 38  1  0  0  0  0
 17 39  1  0  0  0  0
M  END
> <id>
EN300-7550087

> <smiles>
CC(C)(C)OC(=O)N1CCC=2C(=NC(N)=NC2C1)C(F)(F)F

> <MDLNUMBER>
MFCD32692072

> <IUPAC Name>
tert-butyl 2-amino-4-(trifluoromethyl)-5H,6H,7H,8H-pyrido[3,4-d]pyrimidine-7-carboxylate

> <CAS>
2445793-66-6

> <Purity>
95

> <URL>
https://www.enaminestore.com/catalog/EN300-7550087

> <ROCS_ShapeQuery>
_x0404_0B

> <ROCS_TanimotoCombo>
0.393 

> <ROCS_ShapeTanimoto>
0.309 

> <ROCS_ColorTanimoto>
0.085 

> <ROCS_RefTversky>
0.282 

> <ROCS_RefColorTversky>
0.090 

> <ROCS_RefTverskyCombo>
0.372 

> <ROCS_FitTversky>
1.443 

> <ROCS_FitColorTversky>
0.572 

> <ROCS_FitTverskyCombo>
2.015 

> <ROCS_ColorScore>
-6.523

> <ROCS_Overlap>
1883.076

> <ROCS_Rank>
165                 

$$$$
untitled-dbase-11502_302
  -OEChem-08212314543D

 46 48  0     0  0  0  0  0  0999 V2000
   -8.8771    3.9558   -6.8326 C   0  0  0  0  0  0  0  0  0  0  0  0
   -9.0773    2.5830   -6.9806 C   0  0  0  0  0  0  0  0  0  0  0  0
   -9.2543    2.8276   -9.3947 C   0  0  0  0  0  0  0  0  0  0  0  0
   -8.8825    4.7484   -7.9693 C   0  0  0  0  0  0  0  0  0  0  0  0
   -9.0713    4.1955   -9.2453 C   0  0  0  0  0  0  0  0  0  0  0  0
   -9.2636    2.0229   -8.2527 C   0  0  0  0  0  0  0  0  0  0  0  0
   -8.0509    5.8733  -14.5240 C   0  0  0  0  0  0  0  0  0  0  0  0
   -8.6462    6.2225   -8.0484 C   0  0  0  0  0  0  0  0  0  0  0  0
   -9.2285    6.5276   -9.4340 C   0  0  0  0  0  0  0  0  0  0  0  0
  -10.0737    5.1343  -11.4016 C   0  0  0  0  0  0  0  0  0  0  0  0
   -7.5565    5.2987  -10.9279 C   0  0  0  0  0  0  0  0  0  0  0  0
   -9.7262    5.9278  -12.6565 C   0  0  0  0  0  0  0  0  0  0  0  0
   -7.5226    4.7755  -12.3616 C   0  0  0  0  0  0  0  0  0  0  0  0
   -8.9829    5.2656  -10.3178 C   0  0  0  0  0  0  0  0  0  0  0  0
   -6.9491    6.1332  -17.1513 C   0  0  0  0  0  0  0  0  0  0  0  0
   -6.2846    3.7227  -16.9114 C   0  0  0  0  0  0  0  0  0  0  0  0
   -8.7134    4.3608  -16.8678 C   0  0  0  0  0  0  0  0  0  0  0  0
   -7.2941    4.7933  -16.5028 C   0  0  0  0  0  0  0  0  0  0  0  0
   -8.4316    5.5342  -13.2219 N   0  0  0  0  0  0  0  0  0  0  0  0
   -8.4218    6.8854  -15.1151 O   0  0  0  0  0  0  0  0  0  0  0  0
   -7.2141    4.9414  -15.0807 O   0  0  0  0  0  0  0  0  0  0  0  0
   -9.5186    0.1563   -8.4245 Br  0  0  0  0  0  0  0  0  0  0  0  0
   -8.7205    4.3864   -5.8495 H   0  0  0  0  0  0  0  0  0  0  0  0
   -9.0804    1.9547   -6.0931 H   0  0  0  0  0  0  0  0  0  0  0  0
   -9.3780    2.3937  -10.3820 H   0  0  0  0  0  0  0  0  0  0  0  0
   -9.1722    6.7732   -7.2652 H   0  0  0  0  0  0  0  0  0  0  0  0
   -7.5749    6.4383   -8.0073 H   0  0  0  0  0  0  0  0  0  0  0  0
  -10.3088    6.6991   -9.3226 H   0  0  0  0  0  0  0  0  0  0  0  0
   -8.8082    7.4471   -9.8514 H   0  0  0  0  0  0  0  0  0  0  0  0
  -11.0454    5.4643  -11.0149 H   0  0  0  0  0  0  0  0  0  0  0  0
  -10.2010    4.0818  -11.6843 H   0  0  0  0  0  0  0  0  0  0  0  0
   -6.8861    4.6824  -10.3172 H   0  0  0  0  0  0  0  0  0  0  0  0
   -7.1463    6.3135  -10.9045 H   0  0  0  0  0  0  0  0  0  0  0  0
  -10.5234    5.8031  -13.4043 H   0  0  0  0  0  0  0  0  0  0  0  0
   -9.6699    7.0055  -12.4373 H   0  0  0  0  0  0  0  0  0  0  0  0
   -6.5199    4.8713  -12.7898 H   0  0  0  0  0  0  0  0  0  0  0  0
   -7.7690    3.7111  -12.3622 H   0  0  0  0  0  0  0  0  0  0  0  0
   -7.6714    6.9043  -16.8605 H   0  0  0  0  0  0  0  0  0  0  0  0
   -5.9467    6.4715  -16.8694 H   0  0  0  0  0  0  0  0  0  0  0  0
   -6.9958    6.0622  -18.2440 H   0  0  0  0  0  0  0  0  0  0  0  0
   -6.5283    2.7597  -16.4483 H   0  0  0  0  0  0  0  0  0  0  0  0
   -5.2774    3.9845  -16.5675 H   0  0  0  0  0  0  0  0  0  0  0  0
   -6.2561    3.5879  -17.9974 H   0  0  0  0  0  0  0  0  0  0  0  0
   -8.9612    3.3998  -16.4027 H   0  0  0  0  0  0  0  0  0  0  0  0
   -9.4550    5.1004  -16.5489 H   0  0  0  0  0  0  0  0  0  0  0  0
   -8.8102    4.2148  -17.9497 H   0  0  0  0  0  0  0  0  0  0  0  0
  1  2  1  0  0  0  0
  1  4  2  0  0  0  0
  2  6  2  0  0  0  0
  3  5  2  0  0  0  0
  3  6  1  0  0  0  0
  4  5  1  0  0  0  0
  4  8  1  0  0  0  0
  5 14  1  0  0  0  0
  6 22  1  0  0  0  0
  7 19  1  0  0  0  0
  7 20  2  0  0  0  0
  7 21  1  0  0  0  0
  8  9  1  0  0  0  0
  9 14  1  0  0  0  0
 10 12  1  0  0  0  0
 10 14  1  0  0  0  0
 11 13  1  0  0  0  0
 11 14  1  0  0  0  0
 12 19  1  0  0  0  0
 13 19  1  0  0  0  0
 15 18  1  0  0  0  0
 16 18  1  0  0  0  0
 17 18  1  0  0  0  0
 18 21  1  0  0  0  0
  1 23  1  0  0  0  0
  2 24  1  0  0  0  0
  3 25  1  0  0  0  0
  8 26  1  0  0  0  0
  8 27  1  0  0  0  0
  9 28  1  0  0  0  0
  9 29  1  0  0  0  0
 10 30  1  0  0  0  0
 10 31  1  0  0  0  0
 11 32  1  0  0  0  0
 11 33  1  0  0  0  0
 12 34  1  0  0  0  0
 12 35  1  0  0  0  0
 13 36  1  0  0  0  0
 13 37  1  0  0  0  0
 15 38  1  0  0  0  0
 15 39  1  0  0  0  0
 15 40  1  0  0  0  0
 16 41  1  0  0  0  0
 16 42  1  0  0  0  0
 16 43  1  0  0  0  0
 17 44  1  0  0  0  0
 17 45  1  0  0  0  0
 17 46  1  0  0  0  0
M  END
> <id>
EN300-268989

> <smiles>
CC(C)(C)OC(=O)N1CCC2(CCC=3C=CC(Br)=CC32)CC1

> <MDLNUMBER>
MFCD12198595

> <IUPAC Name>
tert-butyl 6-bromo-2,3-dihydrospiro[indene-1,4'-piperidine]-1'-carboxylate

> <Purity>
95

> <URL>
https://www.enaminestore.com/catalog/EN300-268989

> <ROCS_ShapeQuery>
_x0404_0B

> <ROCS_TanimotoCombo>
0.393 

> <ROCS_ShapeTanimoto>
0.318 

> <ROCS_ColorTanimoto>
0.075 

> <ROCS_RefTversky>
0.287 

> <ROCS_RefColorTversky>
0.079 

> <ROCS_RefTverskyCombo>
0.367 

> <ROCS_FitTversky>
1.505 

> <ROCS_FitColorTversky>
0.603 

> <ROCS_FitTverskyCombo>
2.108 

> <ROCS_ColorScore>
-5.725

> <ROCS_Overlap>
1916.722

> <ROCS_Rank>
166                 

$$$$
untitled-dbase-30813_132
  -OEChem-08212314543D

 40 41  0     0  0  0  0  0  0999 V2000
   -8.6622    5.4751   -8.7426 C   0  0  0  0  0  0  0  0  0  0  0  0
   -8.9606    4.2897   -8.0730 C   0  0  0  0  0  0  0  0  0  0  0  0
   -8.9152    3.1015  -10.1707 C   0  0  0  0  0  0  0  0  0  0  0  0
   -8.4871    5.4879  -10.1358 C   0  0  0  0  0  0  0  0  0  0  0  0
   -8.6292    4.2891  -10.8662 C   0  0  0  0  0  0  0  0  0  0  0  0
   -9.0848    3.1027   -8.7864 C   0  0  0  0  0  0  0  0  0  0  0  0
   -8.3556    5.5886  -14.4635 C   0  0  0  0  0  0  0  0  0  0  0  0
   -8.1712    6.7892  -10.8275 C   0  0  0  0  0  0  0  0  0  0  0  0
   -8.4181    4.2045  -12.3640 C   0  0  0  0  0  0  0  0  0  0  0  0
   -9.3277    7.2837  -11.7006 C   0  0  0  0  0  0  0  0  0  0  0  0
   -9.9048    6.2290  -12.6472 C   0  0  0  0  0  0  0  0  0  0  0  0
   -6.2081    5.4699  -16.3501 C   0  0  0  0  0  0  0  0  0  0  0  0
   -7.1050    3.2016  -16.9498 C   0  0  0  0  0  0  0  0  0  0  0  0
   -8.5258    5.2421  -17.3045 C   0  0  0  0  0  0  0  0  0  0  0  0
   -7.4568    4.5927  -16.4269 C   0  0  0  0  0  0  0  0  0  0  0  0
   -8.8671    5.3476  -13.1802 N   0  0  0  0  0  0  0  0  0  0  0  0
   -8.2504    6.7041  -14.9701 O   0  0  0  0  0  0  0  0  0  0  0  0
   -9.3711    1.9424   -8.1354 O   0  0  0  0  0  0  0  0  0  0  0  0
   -7.9855    4.4357  -15.1053 O   0  0  0  0  0  0  0  0  0  0  0  0
   -8.5663    6.3913   -8.1662 H   0  0  0  0  0  0  0  0  0  0  0  0
   -9.0962    4.2998   -6.9951 H   0  0  0  0  0  0  0  0  0  0  0  0
   -9.0048    2.1619  -10.7143 H   0  0  0  0  0  0  0  0  0  0  0  0
   -7.8941    7.5390  -10.0854 H   0  0  0  0  0  0  0  0  0  0  0  0
   -7.3011    6.6543  -11.4730 H   0  0  0  0  0  0  0  0  0  0  0  0
   -7.3339    4.0243  -12.5835 H   0  0  0  0  0  0  0  0  0  0  0  0
   -8.9074    3.2751  -12.7573 H   0  0  0  0  0  0  0  0  0  0  0  0
  -10.1420    7.6043  -11.0340 H   0  0  0  0  0  0  0  0  0  0  0  0
   -9.0289    8.1766  -12.2699 H   0  0  0  0  0  0  0  0  0  0  0  0
  -10.6505    5.6128  -12.1377 H   0  0  0  0  0  0  0  0  0  0  0  0
  -10.4116    6.7369  -13.4710 H   0  0  0  0  0  0  0  0  0  0  0  0
   -6.4564    6.4693  -15.9751 H   0  0  0  0  0  0  0  0  0  0  0  0
   -5.4472    5.0322  -15.6957 H   0  0  0  0  0  0  0  0  0  0  0  0
   -5.7690    5.6130  -17.3440 H   0  0  0  0  0  0  0  0  0  0  0  0
   -7.9980    2.5688  -17.0066 H   0  0  0  0  0  0  0  0  0  0  0  0
   -6.4096    2.6940  -16.2716 H   0  0  0  0  0  0  0  0  0  0  0  0
   -6.6487    3.2472  -17.9439 H   0  0  0  0  0  0  0  0  0  0  0  0
   -9.4216    4.6131  -17.3598 H   0  0  0  0  0  0  0  0  0  0  0  0
   -8.8175    6.2261  -16.9232 H   0  0  0  0  0  0  0  0  0  0  0  0
   -8.1667    5.3598  -18.3333 H   0  0  0  0  0  0  0  0  0  0  0  0
   -9.4590    2.1039   -7.1823 H   0  0  0  0  0  0  0  0  0  0  0  0
  1  2  1  0  0  0  0
  1  4  2  0  0  0  0
  2  6  2  0  0  0  0
  3  5  2  0  0  0  0
  3  6  1  0  0  0  0
  4  5  1  0  0  0  0
  4  8  1  0  0  0  0
  5  9  1  0  0  0  0
  6 18  1  0  0  0  0
  7 16  1  0  0  0  0
  7 17  2  0  0  0  0
  7 19  1  0  0  0  0
  8 10  1  0  0  0  0
  9 16  1  0  0  0  0
 10 11  1  0  0  0  0
 11 16  1  0  0  0  0
 12 15  1  0  0  0  0
 13 15  1  0  0  0  0
 14 15  1  0  0  0  0
 15 19  1  0  0  0  0
  1 20  1  0  0  0  0
  2 21  1  0  0  0  0
  3 22  1  0  0  0  0
  8 23  1  0  0  0  0
  8 24  1  0  0  0  0
  9 25  1  0  0  0  0
  9 26  1  0  0  0  0
 10 27  1  0  0  0  0
 10 28  1  0  0  0  0
 11 29  1  0  0  0  0
 11 30  1  0  0  0  0
 12 31  1  0  0  0  0
 12 32  1  0  0  0  0
 12 33  1  0  0  0  0
 13 34  1  0  0  0  0
 13 35  1  0  0  0  0
 13 36  1  0  0  0  0
 14 37  1  0  0  0  0
 14 38  1  0  0  0  0
 14 39  1  0  0  0  0
 18 40  1  0  0  0  0
M  END
> <id>
EN300-5251051

> <smiles>
CC(C)(C)OC(=O)N1CCCC=2C=CC(O)=CC2C1

> <MDLNUMBER>
MFCD08275057

> <IUPAC Name>
tert-butyl 8-hydroxy-2,3,4,5-tetrahydro-1H-2-benzazepine-2-carboxylate

> <CAS>
247133-24-0

> <URL>
https://www.enaminestore.com/catalog/EN300-5251051

> <ROCS_ShapeQuery>
_x0404_0B

> <ROCS_TanimotoCombo>
0.393 

> <ROCS_ShapeTanimoto>
0.308 

> <ROCS_ColorTanimoto>
0.085 

> <ROCS_RefTversky>
0.276 

> <ROCS_RefColorTversky>
0.088 

> <ROCS_RefTverskyCombo>
0.365 

> <ROCS_FitTversky>
1.606 

> <ROCS_FitColorTversky>
0.672 

> <ROCS_FitTverskyCombo>
2.278 

> <ROCS_ColorScore>
-6.375

> <ROCS_Overlap>
1841.279

> <ROCS_Rank>
167                 

$$$$
untitled-dbase-17402_155
  -OEChem-08212314543D

 37 38  0     0  0  0  0  0  0999 V2000
   -9.0078    4.1517  -10.1723 C   0  0  0  0  0  0  0  0  0  0  0  0
   -8.8511    5.5038   -9.9515 C   0  0  0  0  0  0  0  0  0  0  0  0
   -9.0928    3.5991   -8.8752 C   0  0  0  0  0  0  0  0  0  0  0  0
   -8.4282    5.6474  -14.4729 C   0  0  0  0  0  0  0  0  0  0  0  0
   -9.0731    3.4636  -11.4874 C   0  0  0  0  0  0  0  0  0  0  0  0
   -8.7042    6.6310  -10.9075 C   0  0  0  0  0  0  0  0  0  0  0  0
   -8.1859    4.1141  -12.5528 C   0  0  0  0  0  0  0  0  0  0  0  0
   -9.3929    6.3495  -12.2468 C   0  0  0  0  0  0  0  0  0  0  0  0
   -6.7402    5.4197  -16.7744 C   0  0  0  0  0  0  0  0  0  0  0  0
   -8.0212    3.3181  -17.2762 C   0  0  0  0  0  0  0  0  0  0  0  0
   -9.2130    5.5284  -17.2303 C   0  0  0  0  0  0  0  0  0  0  0  0
   -8.0798    4.6994  -16.6276 C   0  0  0  0  0  0  0  0  0  0  0  0
   -8.9922    4.5175   -7.9113 N   0  0  0  0  0  0  0  0  0  0  0  0
   -8.8431    5.6641   -8.5947 N   0  0  0  0  0  0  0  0  0  0  0  0
   -8.6833    5.3840  -13.1133 N   0  0  0  0  0  0  0  0  0  0  0  0
   -8.2859    6.7749  -14.9441 O   0  0  0  0  0  0  0  0  0  0  0  0
   -9.2583    2.3172   -8.5204 O   0  0  0  0  0  0  0  0  0  0  0  0
   -8.3451    4.5103  -15.2328 O   0  0  0  0  0  0  0  0  0  0  0  0
   -8.7538    2.4228  -11.3696 H   0  0  0  0  0  0  0  0  0  0  0  0
  -10.1121    3.4356  -11.8313 H   0  0  0  0  0  0  0  0  0  0  0  0
   -9.1086    7.5466  -10.4604 H   0  0  0  0  0  0  0  0  0  0  0  0
   -7.6411    6.8182  -11.1010 H   0  0  0  0  0  0  0  0  0  0  0  0
   -7.1600    4.2914  -12.1644 H   0  0  0  0  0  0  0  0  0  0  0  0
   -8.0591    3.3949  -13.3882 H   0  0  0  0  0  0  0  0  0  0  0  0
  -10.4101    5.9685  -12.0486 H   0  0  0  0  0  0  0  0  0  0  0  0
   -9.5349    7.2820  -12.8243 H   0  0  0  0  0  0  0  0  0  0  0  0
   -6.7781    6.4116  -16.3101 H   0  0  0  0  0  0  0  0  0  0  0  0
   -5.9244    4.8518  -16.3153 H   0  0  0  0  0  0  0  0  0  0  0  0
   -6.4972    5.5819  -17.8308 H   0  0  0  0  0  0  0  0  0  0  0  0
   -8.9803    2.7978  -17.1732 H   0  0  0  0  0  0  0  0  0  0  0  0
   -7.2730    2.6869  -16.7832 H   0  0  0  0  0  0  0  0  0  0  0  0
   -7.7739    3.3818  -18.3408 H   0  0  0  0  0  0  0  0  0  0  0  0
  -10.1740    5.0121  -17.1251 H   0  0  0  0  0  0  0  0  0  0  0  0
   -9.2937    6.5097  -16.7514 H   0  0  0  0  0  0  0  0  0  0  0  0
   -9.0580    5.6772  -18.3051 H   0  0  0  0  0  0  0  0  0  0  0  0
   -8.7404    6.5229   -8.0705 H   0  0  0  0  0  0  0  0  0  0  0  0
   -9.2826    2.2170   -7.5482 H   0  0  0  0  0  0  0  0  0  0  0  0
  1  2  2  0  0  0  0
  1  3  1  0  0  0  0
  1  5  1  0  0  0  0
  2  6  1  0  0  0  0
  2 14  1  0  0  0  0
  3 13  2  0  0  0  0
  3 17  1  0  0  0  0
  4 15  1  0  0  0  0
  4 16  2  0  0  0  0
  4 18  1  0  0  0  0
  5  7  1  0  0  0  0
  6  8  1  0  0  0  0
  7 15  1  0  0  0  0
  8 15  1  0  0  0  0
  9 12  1  0  0  0  0
 10 12  1  0  0  0  0
 11 12  1  0  0  0  0
 12 18  1  0  0  0  0
 13 14  1  0  0  0  0
  5 19  1  0  0  0  0
  5 20  1  0  0  0  0
  6 21  1  0  0  0  0
  6 22  1  0  0  0  0
  7 23  1  0  0  0  0
  7 24  1  0  0  0  0
  8 25  1  0  0  0  0
  8 26  1  0  0  0  0
  9 27  1  0  0  0  0
  9 28  1  0  0  0  0
  9 29  1  0  0  0  0
 10 30  1  0  0  0  0
 10 31  1  0  0  0  0
 10 32  1  0  0  0  0
 11 33  1  0  0  0  0
 11 34  1  0  0  0  0
 11 35  1  0  0  0  0
 14 36  1  0  0  0  0
 17 37  1  0  0  0  0
M  END
> <id>
EN300-749126

> <smiles>
CC(C)(C)OC(=O)N1CCC=2NN=C(O)C2CC1

> <MDLNUMBER>
MFCD28411578

> <IUPAC Name>
tert-butyl 3-hydroxy-1H,4H,5H,6H,7H,8H-pyrazolo[3,4-d]azepine-6-carboxylate

> <CAS>
851376-80-2

> <Purity>
95

> <URL>
https://www.enaminestore.com/catalog/EN300-749126

> <ROCS_ShapeQuery>
_x0404_0B

> <ROCS_TanimotoCombo>
0.393 

> <ROCS_ShapeTanimoto>
0.310 

> <ROCS_ColorTanimoto>
0.083 

> <ROCS_RefTversky>
0.276 

> <ROCS_RefColorTversky>
0.089 

> <ROCS_RefTverskyCombo>
0.365 

> <ROCS_FitTversky>
1.651 

> <ROCS_FitColorTversky>
0.561 

> <ROCS_FitTverskyCombo>
2.212 

> <ROCS_ColorScore>
-6.395

> <ROCS_Overlap>
1840.757

> <ROCS_Rank>
168                 

$$$$
untitled-dbase-30569_1264
  -OEChem-08212314543D

 46 47  0     0  0  0  0  0  0999 V2000
   -8.7490    5.6956  -14.4080 C   0  0  0  0  0  0  0  0  0  0  0  0
  -10.0775    4.3200   -8.1111 C   0  0  0  0  0  0  0  0  0  0  0  0
   -7.6085    3.7161   -8.1987 C   0  0  0  0  0  0  0  0  0  0  0  0
  -10.0739    4.6851   -9.5999 C   0  0  0  0  0  0  0  0  0  0  0  0
   -7.6007    4.9855   -9.0532 C   0  0  0  0  0  0  0  0  0  0  0  0
   -8.2729    3.9184  -11.2511 C   0  0  0  0  0  0  0  0  0  0  0  0
   -8.6385    6.3759  -10.8651 C   0  0  0  0  0  0  0  0  0  0  0  0
   -9.0822    4.0219  -12.5453 C   0  0  0  0  0  0  0  0  0  0  0  0
   -9.4602    6.4351  -12.1510 C   0  0  0  0  0  0  0  0  0  0  0  0
   -9.0121    3.2840   -7.7691 C   0  0  0  0  0  0  0  0  0  0  0  0
   -8.6590    4.9807  -10.1842 C   0  0  0  0  0  0  0  0  0  0  0  0
   -7.3161    5.1477  -16.8243 C   0  0  0  0  0  0  0  0  0  0  0  0
   -9.2862    3.7209  -17.4505 C   0  0  0  0  0  0  0  0  0  0  0  0
   -9.5897    6.1901  -17.1054 C   0  0  0  0  0  0  0  0  0  0  0  0
   -8.8220    4.9448  -16.6639 C   0  0  0  0  0  0  0  0  0  0  0  0
   -9.0571    5.3840  -13.0799 N   0  0  0  0  0  0  0  0  0  0  0  0
   -8.2172    6.7444  -14.7683 O   0  0  0  0  0  0  0  0  0  0  0  0
   -9.3246    2.0487   -8.4124 O   0  0  0  0  0  0  0  0  0  0  0  0
   -9.1044    4.7015  -15.2809 O   0  0  0  0  0  0  0  0  0  0  0  0
   -9.9132    5.2256   -7.5107 H   0  0  0  0  0  0  0  0  0  0  0  0
  -11.0694    3.9559   -7.8095 H   0  0  0  0  0  0  0  0  0  0  0  0
   -7.1100    2.8896   -8.7321 H   0  0  0  0  0  0  0  0  0  0  0  0
   -6.9881    3.8747   -7.3006 H   0  0  0  0  0  0  0  0  0  0  0  0
  -10.5547    3.8744  -10.1663 H   0  0  0  0  0  0  0  0  0  0  0  0
  -10.7137    5.5700   -9.7388 H   0  0  0  0  0  0  0  0  0  0  0  0
   -7.7869    5.8414   -8.3889 H   0  0  0  0  0  0  0  0  0  0  0  0
   -6.5894    5.1302   -9.4495 H   0  0  0  0  0  0  0  0  0  0  0  0
   -8.4308    2.9143  -10.8321 H   0  0  0  0  0  0  0  0  0  0  0  0
   -7.2074    3.9739  -11.5000 H   0  0  0  0  0  0  0  0  0  0  0  0
   -7.6061    6.6750  -11.0853 H   0  0  0  0  0  0  0  0  0  0  0  0
   -9.0336    7.1277  -10.1683 H   0  0  0  0  0  0  0  0  0  0  0  0
   -8.6743    3.3616  -13.3171 H   0  0  0  0  0  0  0  0  0  0  0  0
  -10.1057    3.6906  -12.3529 H   0  0  0  0  0  0  0  0  0  0  0  0
  -10.5228    6.3472  -11.9086 H   0  0  0  0  0  0  0  0  0  0  0  0
   -9.3246    7.3935  -12.6609 H   0  0  0  0  0  0  0  0  0  0  0  0
   -9.0181    3.0952   -6.6839 H   0  0  0  0  0  0  0  0  0  0  0  0
   -6.9790    6.0254  -16.2612 H   0  0  0  0  0  0  0  0  0  0  0  0
   -6.7524    4.2751  -16.4785 H   0  0  0  0  0  0  0  0  0  0  0  0
   -7.0562    5.3345  -17.8726 H   0  0  0  0  0  0  0  0  0  0  0  0
  -10.3661    3.5715  -17.3382 H   0  0  0  0  0  0  0  0  0  0  0  0
   -8.8077    2.8099  -17.0731 H   0  0  0  0  0  0  0  0  0  0  0  0
   -9.0583    3.8158  -18.5171 H   0  0  0  0  0  0  0  0  0  0  0  0
  -10.6699    6.0448  -16.9904 H   0  0  0  0  0  0  0  0  0  0  0  0
   -9.2959    7.0714  -16.5261 H   0  0  0  0  0  0  0  0  0  0  0  0
   -9.4170    6.3981  -18.1675 H   0  0  0  0  0  0  0  0  0  0  0  0
  -10.1933    1.7737   -8.0790 H   0  0  0  0  0  0  0  0  0  0  0  0
  1 16  1  0  0  0  0
  1 17  2  0  0  0  0
  1 19  1  0  0  0  0
  2  4  1  0  0  0  0
  2 10  1  0  0  0  0
  3  5  1  0  0  0  0
  3 10  1  0  0  0  0
  4 11  1  0  0  0  0
  5 11  1  0  0  0  0
  6  8  1  0  0  0  0
  6 11  1  0  0  0  0
  7  9  1  0  0  0  0
  7 11  1  0  0  0  0
  8 16  1  0  0  0  0
  9 16  1  0  0  0  0
 10 18  1  0  0  0  0
 12 15  1  0  0  0  0
 13 15  1  0  0  0  0
 14 15  1  0  0  0  0
 15 19  1  0  0  0  0
  2 20  1  0  0  0  0
  2 21  1  0  0  0  0
  3 22  1  0  0  0  0
  3 23  1  0  0  0  0
  4 24  1  0  0  0  0
  4 25  1  0  0  0  0
  5 26  1  0  0  0  0
  5 27  1  0  0  0  0
  6 28  1  0  0  0  0
  6 29  1  0  0  0  0
  7 30  1  0  0  0  0
  7 31  1  0  0  0  0
  8 32  1  0  0  0  0
  8 33  1  0  0  0  0
  9 34  1  0  0  0  0
  9 35  1  0  0  0  0
 10 36  1  0  0  0  0
 12 37  1  0  0  0  0
 12 38  1  0  0  0  0
 12 39  1  0  0  0  0
 13 40  1  0  0  0  0
 13 41  1  0  0  0  0
 13 42  1  0  0  0  0
 14 43  1  0  0  0  0
 14 44  1  0  0  0  0
 14 45  1  0  0  0  0
 18 46  1  0  0  0  0
M  END
> <id>
EN300-223369

> <smiles>
CC(C)(C)OC(=O)N1CCC2(CCC(O)CC2)CC1

> <MDLNUMBER>
MFCD12755293

> <IUPAC Name>
tert-butyl 9-hydroxy-3-azaspiro[5.5]undecane-3-carboxylate

> <CAS>
918644-73-2

> <Purity>
95

> <URL>
https://www.enaminestore.com/catalog/EN300-223369

> <ROCS_ShapeQuery>
_x0404_0B

> <ROCS_TanimotoCombo>
0.393 

> <ROCS_ShapeTanimoto>
0.305 

> <ROCS_ColorTanimoto>
0.087 

> <ROCS_RefTversky>
0.273 

> <ROCS_RefColorTversky>
0.091 

> <ROCS_RefTverskyCombo>
0.364 

> <ROCS_FitTversky>
1.620 

> <ROCS_FitColorTversky>
0.691 

> <ROCS_FitTverskyCombo>
2.311 

> <ROCS_ColorScore>
-6.553

> <ROCS_Overlap>
1822.673

> <ROCS_Rank>
169                 

$$$$
untitled-dbase-24275_70
  -OEChem-08212314543D

 41 42  0     0  0  0  0  0  0999 V2000
   -8.6652    5.5090   -8.7548 C   0  0  0  0  0  0  0  0  0  0  0  0
   -8.9596    4.3251   -8.0808 C   0  0  0  0  0  0  0  0  0  0  0  0
   -8.9091    3.1291  -10.1741 C   0  0  0  0  0  0  0  0  0  0  0  0
   -8.4897    5.5171  -10.1480 C   0  0  0  0  0  0  0  0  0  0  0  0
   -8.6271    4.3152  -10.8739 C   0  0  0  0  0  0  0  0  0  0  0  0
   -9.0792    3.1350   -8.7898 C   0  0  0  0  0  0  0  0  0  0  0  0
   -8.3570    5.6020  -14.4760 C   0  0  0  0  0  0  0  0  0  0  0  0
   -8.1783    6.8170  -10.8444 C   0  0  0  0  0  0  0  0  0  0  0  0
   -8.4153    4.2257  -12.3713 C   0  0  0  0  0  0  0  0  0  0  0  0
   -9.3362    7.3040  -11.7198 C   0  0  0  0  0  0  0  0  0  0  0  0
   -9.9092    6.2436  -12.6626 C   0  0  0  0  0  0  0  0  0  0  0  0
   -6.2084    5.4840  -16.3614 C   0  0  0  0  0  0  0  0  0  0  0  0
   -7.0969    3.2103  -16.9529 C   0  0  0  0  0  0  0  0  0  0  0  0
   -8.5250    5.2443  -17.3157 C   0  0  0  0  0  0  0  0  0  0  0  0
   -7.4539    4.6020  -16.4353 C   0  0  0  0  0  0  0  0  0  0  0  0
   -8.8681    5.3640  -13.1920 N   0  0  0  0  0  0  0  0  0  0  0  0
   -9.3720    1.9344   -8.1104 N   0  0  0  0  0  0  0  0  0  0  0  0
   -8.2557    6.7160  -14.9867 O   0  0  0  0  0  0  0  0  0  0  0  0
   -7.9825    4.4481  -15.1133 O   0  0  0  0  0  0  0  0  0  0  0  0
   -8.5727    6.4278   -8.1822 H   0  0  0  0  0  0  0  0  0  0  0  0
   -9.0944    4.3439   -7.0025 H   0  0  0  0  0  0  0  0  0  0  0  0
   -8.9939    2.1891  -10.7186 H   0  0  0  0  0  0  0  0  0  0  0  0
   -7.9038    7.5705  -10.1052 H   0  0  0  0  0  0  0  0  0  0  0  0
   -7.3075    6.6827  -11.4895 H   0  0  0  0  0  0  0  0  0  0  0  0
   -7.3302    4.0489  -12.5900 H   0  0  0  0  0  0  0  0  0  0  0  0
   -8.9009    3.2929  -12.7615 H   0  0  0  0  0  0  0  0  0  0  0  0
  -10.1517    7.6247  -11.0549 H   0  0  0  0  0  0  0  0  0  0  0  0
   -9.0401    8.1957  -12.2924 H   0  0  0  0  0  0  0  0  0  0  0  0
  -10.6526    5.6267  -12.1509 H   0  0  0  0  0  0  0  0  0  0  0  0
  -10.4174    6.7467  -13.4885 H   0  0  0  0  0  0  0  0  0  0  0  0
   -6.4605    6.4839  -15.9903 H   0  0  0  0  0  0  0  0  0  0  0  0
   -5.4462    5.0515  -15.7051 H   0  0  0  0  0  0  0  0  0  0  0  0
   -5.7695    5.6250  -17.3557 H   0  0  0  0  0  0  0  0  0  0  0  0
   -7.9876    2.5740  -17.0075 H   0  0  0  0  0  0  0  0  0  0  0  0
   -6.3999    2.7078  -16.2725 H   0  0  0  0  0  0  0  0  0  0  0  0
   -6.6404    3.2538  -17.9470 H   0  0  0  0  0  0  0  0  0  0  0  0
   -9.4185    4.6117  -17.3689 H   0  0  0  0  0  0  0  0  0  0  0  0
   -8.8204    6.2286  -16.9382 H   0  0  0  0  0  0  0  0  0  0  0  0
   -8.1659    5.3593  -18.3448 H   0  0  0  0  0  0  0  0  0  0  0  0
   -9.4449    1.9433   -7.1130 H   0  0  0  0  0  0  0  0  0  0  0  0
   -9.4087    1.0782   -8.6260 H   0  0  0  0  0  0  0  0  0  0  0  0
  1  2  1  0  0  0  0
  1  4  2  0  0  0  0
  2  6  2  0  0  0  0
  3  5  2  0  0  0  0
  3  6  1  0  0  0  0
  4  5  1  0  0  0  0
  4  8  1  0  0  0  0
  5  9  1  0  0  0  0
  6 17  1  0  0  0  0
  7 16  1  0  0  0  0
  7 18  2  0  0  0  0
  7 19  1  0  0  0  0
  8 10  1  0  0  0  0
  9 16  1  0  0  0  0
 10 11  1  0  0  0  0
 11 16  1  0  0  0  0
 12 15  1  0  0  0  0
 13 15  1  0  0  0  0
 14 15  1  0  0  0  0
 15 19  1  0  0  0  0
  1 20  1  0  0  0  0
  2 21  1  0  0  0  0
  3 22  1  0  0  0  0
  8 23  1  0  0  0  0
  8 24  1  0  0  0  0
  9 25  1  0  0  0  0
  9 26  1  0  0  0  0
 10 27  1  0  0  0  0
 10 28  1  0  0  0  0
 11 29  1  0  0  0  0
 11 30  1  0  0  0  0
 12 31  1  0  0  0  0
 12 32  1  0  0  0  0
 12 33  1  0  0  0  0
 13 34  1  0  0  0  0
 13 35  1  0  0  0  0
 13 36  1  0  0  0  0
 14 37  1  0  0  0  0
 14 38  1  0  0  0  0
 14 39  1  0  0  0  0
 17 40  1  0  0  0  0
 17 41  1  0  0  0  0
M  END
> <id>
EN300-794434

> <smiles>
CC(C)(C)OC(=O)N1CCCC=2C=CC(N)=CC2C1

> <MDLNUMBER>
MFCD12408189

> <IUPAC Name>
tert-butyl 8-amino-2,3,4,5-tetrahydro-1H-2-benzazepine-2-carboxylate

> <CAS>
939043-41-1

> <Purity>
95

> <URL>
https://www.enaminestore.com/catalog/EN300-794434

> <ROCS_ShapeQuery>
_x0404_0B

> <ROCS_TanimotoCombo>
0.392 

> <ROCS_ShapeTanimoto>
0.308 

> <ROCS_ColorTanimoto>
0.084 

> <ROCS_RefTversky>
0.276 

> <ROCS_RefColorTversky>
0.088 

> <ROCS_RefTverskyCombo>
0.364 

> <ROCS_FitTversky>
1.608 

> <ROCS_FitColorTversky>
0.667 

> <ROCS_FitTverskyCombo>
2.275 

> <ROCS_ColorScore>
-6.323

> <ROCS_Overlap>
1841.481

> <ROCS_Rank>
170                 

$$$$
untitled-dbase-12003_24
  -OEChem-08212314543D

 37 38  0     0  0  0  0  0  0999 V2000
   -8.0992    2.4947  -11.5006 C   0  0  0  0  0  0  0  0  0  0  0  0
   -7.8564    1.4451  -10.9694 C   0  0  0  0  0  0  0  0  0  0  0  0
   -8.8991    5.3563  -10.1709 C   0  0  0  0  0  0  0  0  0  0  0  0
   -9.2516    6.6741   -9.8730 C   0  0  0  0  0  0  0  0  0  0  0  0
   -9.2762    7.2358  -12.2331 C   0  0  0  0  0  0  0  0  0  0  0  0
   -8.3712    3.9448  -13.4878 C   0  0  0  0  0  0  0  0  0  0  0  0
   -8.3864    3.7396  -12.1309 C   0  0  0  0  0  0  0  0  0  0  0  0
   -8.7314    4.9660  -11.5160 C   0  0  0  0  0  0  0  0  0  0  0  0
   -8.9214    5.9074  -12.5369 C   0  0  0  0  0  0  0  0  0  0  0  0
   -9.4369    7.5997  -10.8922 C   0  0  0  0  0  0  0  0  0  0  0  0
   -8.7803    5.8405  -15.0360 C   0  0  0  0  0  0  0  0  0  0  0  0
   -7.1321    5.1106  -17.2275 C   0  0  0  0  0  0  0  0  0  0  0  0
   -9.1744    3.9692  -18.1416 C   0  0  0  0  0  0  0  0  0  0  0  0
   -9.1861    6.4550  -17.7828 C   0  0  0  0  0  0  0  0  0  0  0  0
   -7.5631    0.1672  -10.3217 C   0  0  0  0  0  0  0  0  0  0  0  0
   -8.6595    5.1145  -17.2725 C   0  0  0  0  0  0  0  0  0  0  0  0
   -8.6955    5.2629  -13.7579 N   0  0  0  0  0  0  0  0  0  0  0  0
   -8.5368    7.0214  -15.2215 O   0  0  0  0  0  0  0  0  0  0  0  0
   -6.3418   -0.3555  -10.8248 O   0  0  0  0  0  0  0  0  0  0  0  0
   -9.1545    4.9055  -15.9464 O   0  0  0  0  0  0  0  0  0  0  0  0
   -9.7737    8.8606  -10.5876 F   0  0  0  0  0  0  0  0  0  0  0  0
   -8.7567    4.6430   -9.3637 H   0  0  0  0  0  0  0  0  0  0  0  0
   -9.3808    6.9763   -8.8376 H   0  0  0  0  0  0  0  0  0  0  0  0
   -9.4272    7.9815  -13.0054 H   0  0  0  0  0  0  0  0  0  0  0  0
   -8.1538    3.2493  -14.2885 H   0  0  0  0  0  0  0  0  0  0  0  0
   -6.7586    5.9312  -16.6046 H   0  0  0  0  0  0  0  0  0  0  0  0
   -6.7427    4.1675  -16.8304 H   0  0  0  0  0  0  0  0  0  0  0  0
   -6.7111    5.2652  -18.2275 H   0  0  0  0  0  0  0  0  0  0  0  0
  -10.2698    3.9681  -18.1767 H   0  0  0  0  0  0  0  0  0  0  0  0
   -8.8780    2.9996  -17.7254 H   0  0  0  0  0  0  0  0  0  0  0  0
   -8.7947    4.0373  -19.1662 H   0  0  0  0  0  0  0  0  0  0  0  0
  -10.2817    6.4580  -17.8152 H   0  0  0  0  0  0  0  0  0  0  0  0
   -8.8569    7.2851  -17.1495 H   0  0  0  0  0  0  0  0  0  0  0  0
   -8.8460    6.6426  -18.8077 H   0  0  0  0  0  0  0  0  0  0  0  0
   -7.4662    0.2949   -9.2393 H   0  0  0  0  0  0  0  0  0  0  0  0
   -8.3583   -0.5581  -10.5189 H   0  0  0  0  0  0  0  0  0  0  0  0
   -6.4602   -0.4751  -11.7812 H   0  0  0  0  0  0  0  0  0  0  0  0
  1  2  3  0  0  0  0
  1  7  1  0  0  0  0
  2 15  1  0  0  0  0
  3  4  1  0  0  0  0
  3  8  2  0  0  0  0
  4 10  2  0  0  0  0
  5  9  2  0  0  0  0
  5 10  1  0  0  0  0
  6  7  2  0  0  0  0
  6 17  1  0  0  0  0
  7  8  1  0  0  0  0
  8  9  1  0  0  0  0
  9 17  1  0  0  0  0
 10 21  1  0  0  0  0
 11 17  1  0  0  0  0
 11 18  2  0  0  0  0
 11 20  1  0  0  0  0
 12 16  1  0  0  0  0
 13 16  1  0  0  0  0
 14 16  1  0  0  0  0
 15 19  1  0  0  0  0
 16 20  1  0  0  0  0
  3 22  1  0  0  0  0
  4 23  1  0  0  0  0
  5 24  1  0  0  0  0
  6 25  1  0  0  0  0
 12 26  1  0  0  0  0
 12 27  1  0  0  0  0
 12 28  1  0  0  0  0
 13 29  1  0  0  0  0
 13 30  1  0  0  0  0
 13 31  1  0  0  0  0
 14 32  1  0  0  0  0
 14 33  1  0  0  0  0
 14 34  1  0  0  0  0
 15 35  1  0  0  0  0
 15 36  1  0  0  0  0
 19 37  1  0  0  0  0
M  END
> <id>
EN300-697693

> <smiles>
CC(C)(C)OC(=O)N1C=C(C#CCO)C=2C=CC(F)=CC12

> <MDLNUMBER>
MFCD31431494

> <IUPAC Name>
tert-butyl 6-fluoro-3-(3-hydroxyprop-1-yn-1-yl)-1H-indole-1-carboxylate

> <CAS>
2138259-96-6

> <URL>
https://www.enaminestore.com/catalog/EN300-697693

> <ROCS_ShapeQuery>
_x0404_0B

> <ROCS_TanimotoCombo>
0.392 

> <ROCS_ShapeTanimoto>
0.277 

> <ROCS_ColorTanimoto>
0.116 

> <ROCS_RefTversky>
0.257 

> <ROCS_RefColorTversky>
0.118 

> <ROCS_RefTverskyCombo>
0.375 

> <ROCS_FitTversky>
1.375 

> <ROCS_FitColorTversky>
0.893 

> <ROCS_FitTverskyCombo>
2.268 

> <ROCS_ColorScore>
-8.475

> <ROCS_Overlap>
1715.508

> <ROCS_Rank>
171                 

$$$$
untitled-dbase-11622_301
  -OEChem-08212314543D

 46 48  0     0  0  0  0  0  0999 V2000
   -9.2563    2.8272   -9.3951 C   0  0  0  0  0  0  0  0  0  0  0  0
   -9.2658    2.0220   -8.2533 C   0  0  0  0  0  0  0  0  0  0  0  0
   -8.8754    3.9538   -6.8328 C   0  0  0  0  0  0  0  0  0  0  0  0
   -9.0712    4.1947   -9.2452 C   0  0  0  0  0  0  0  0  0  0  0  0
   -8.8806    4.7468   -7.9691 C   0  0  0  0  0  0  0  0  0  0  0  0
   -9.0776    2.5813   -6.9812 C   0  0  0  0  0  0  0  0  0  0  0  0
   -8.0531    5.8733  -14.5241 C   0  0  0  0  0  0  0  0  0  0  0  0
   -8.6423    6.2206   -8.0478 C   0  0  0  0  0  0  0  0  0  0  0  0
   -9.2254    6.5272   -9.4328 C   0  0  0  0  0  0  0  0  0  0  0  0
  -10.0742    5.1358  -11.4003 C   0  0  0  0  0  0  0  0  0  0  0  0
   -7.5563    5.2965  -10.9287 C   0  0  0  0  0  0  0  0  0  0  0  0
   -9.7267    5.9294  -12.6552 C   0  0  0  0  0  0  0  0  0  0  0  0
   -7.5245    4.7739  -12.3626 C   0  0  0  0  0  0  0  0  0  0  0  0
   -8.9823    5.2652  -10.3174 C   0  0  0  0  0  0  0  0  0  0  0  0
   -6.9531    6.1327  -17.1523 C   0  0  0  0  0  0  0  0  0  0  0  0
   -6.2918    3.7213  -16.9139 C   0  0  0  0  0  0  0  0  0  0  0  0
   -8.7197    4.3627  -16.8679 C   0  0  0  0  0  0  0  0  0  0  0  0
   -7.2994    4.7931  -16.5040 C   0  0  0  0  0  0  0  0  0  0  0  0
   -8.4331    5.5342  -13.2219 N   0  0  0  0  0  0  0  0  0  0  0  0
   -8.4230    6.8862  -15.1145 O   0  0  0  0  0  0  0  0  0  0  0  0
   -7.2180    4.9405  -15.0819 O   0  0  0  0  0  0  0  0  0  0  0  0
   -9.0892    1.4640   -5.4555 Br  0  0  0  0  0  0  0  0  0  0  0  0
   -9.3845    2.3790  -10.3746 H   0  0  0  0  0  0  0  0  0  0  0  0
   -9.4156    0.9510   -8.3696 H   0  0  0  0  0  0  0  0  0  0  0  0
   -8.7162    4.3998   -5.8561 H   0  0  0  0  0  0  0  0  0  0  0  0
   -9.1670    6.7717   -7.2639 H   0  0  0  0  0  0  0  0  0  0  0  0
   -7.5707    6.4348   -8.0075 H   0  0  0  0  0  0  0  0  0  0  0  0
  -10.3053    6.7002   -9.3204 H   0  0  0  0  0  0  0  0  0  0  0  0
   -8.8041    7.4462   -9.8502 H   0  0  0  0  0  0  0  0  0  0  0  0
  -11.0451    5.4670  -11.0126 H   0  0  0  0  0  0  0  0  0  0  0  0
  -10.2034    4.0836  -11.6833 H   0  0  0  0  0  0  0  0  0  0  0  0
   -6.8863    4.6789  -10.3188 H   0  0  0  0  0  0  0  0  0  0  0  0
   -7.1447    6.3108  -10.9052 H   0  0  0  0  0  0  0  0  0  0  0  0
  -10.5246    5.8063  -13.4024 H   0  0  0  0  0  0  0  0  0  0  0  0
   -9.6688    7.0070  -12.4354 H   0  0  0  0  0  0  0  0  0  0  0  0
   -6.5220    4.8685  -12.7917 H   0  0  0  0  0  0  0  0  0  0  0  0
   -7.7723    3.7098  -12.3634 H   0  0  0  0  0  0  0  0  0  0  0  0
   -7.6741    6.9047  -16.8605 H   0  0  0  0  0  0  0  0  0  0  0  0
   -5.9500    6.4696  -16.8710 H   0  0  0  0  0  0  0  0  0  0  0  0
   -7.0008    6.0623  -18.2450 H   0  0  0  0  0  0  0  0  0  0  0  0
   -6.5364    2.7584  -16.4510 H   0  0  0  0  0  0  0  0  0  0  0  0
   -5.2839    3.9814  -16.5707 H   0  0  0  0  0  0  0  0  0  0  0  0
   -6.2643    3.5868  -18.0000 H   0  0  0  0  0  0  0  0  0  0  0  0
   -8.9683    3.4018  -16.4031 H   0  0  0  0  0  0  0  0  0  0  0  0
   -9.4599    5.1032  -16.5481 H   0  0  0  0  0  0  0  0  0  0  0  0
   -8.8175    4.2172  -17.9499 H   0  0  0  0  0  0  0  0  0  0  0  0
  1  2  1  0  0  0  0
  1  4  2  0  0  0  0
  2  6  2  0  0  0  0
  3  5  2  0  0  0  0
  3  6  1  0  0  0  0
  4  5  1  0  0  0  0
  4 14  1  0  0  0  0
  5  8  1  0  0  0  0
  6 22  1  0  0  0  0
  7 19  1  0  0  0  0
  7 20  2  0  0  0  0
  7 21  1  0  0  0  0
  8  9  1  0  0  0  0
  9 14  1  0  0  0  0
 10 12  1  0  0  0  0
 10 14  1  0  0  0  0
 11 13  1  0  0  0  0
 11 14  1  0  0  0  0
 12 19  1  0  0  0  0
 13 19  1  0  0  0  0
 15 18  1  0  0  0  0
 16 18  1  0  0  0  0
 17 18  1  0  0  0  0
 18 21  1  0  0  0  0
  1 23  1  0  0  0  0
  2 24  1  0  0  0  0
  3 25  1  0  0  0  0
  8 26  1  0  0  0  0
  8 27  1  0  0  0  0
  9 28  1  0  0  0  0
  9 29  1  0  0  0  0
 10 30  1  0  0  0  0
 10 31  1  0  0  0  0
 11 32  1  0  0  0  0
 11 33  1  0  0  0  0
 12 34  1  0  0  0  0
 12 35  1  0  0  0  0
 13 36  1  0  0  0  0
 13 37  1  0  0  0  0
 15 38  1  0  0  0  0
 15 39  1  0  0  0  0
 15 40  1  0  0  0  0
 16 41  1  0  0  0  0
 16 42  1  0  0  0  0
 16 43  1  0  0  0  0
 17 44  1  0  0  0  0
 17 45  1  0  0  0  0
 17 46  1  0  0  0  0
M  END
> <id>
EN300-269029

> <smiles>
CC(C)(C)OC(=O)N1CCC2(CCC=3C=C(Br)C=CC32)CC1

> <MDLNUMBER>
MFCD12198596

> <IUPAC Name>
tert-butyl 5-bromo-2,3-dihydrospiro[indene-1,4'-piperidine]-1'-carboxylate

> <CAS>
1160247-40-4

> <Purity>
95

> <URL>
https://www.enaminestore.com/catalog/EN300-269029

> <ROCS_ShapeQuery>
_x0404_0B

> <ROCS_TanimotoCombo>
0.392 

> <ROCS_ShapeTanimoto>
0.317 

> <ROCS_ColorTanimoto>
0.075 

> <ROCS_RefTversky>
0.287 

> <ROCS_RefColorTversky>
0.079 

> <ROCS_RefTverskyCombo>
0.366 

> <ROCS_FitTversky>
1.502 

> <ROCS_FitColorTversky>
0.603 

> <ROCS_FitTverskyCombo>
2.105 

> <ROCS_ColorScore>
-5.725

> <ROCS_Overlap>
1912.473

> <ROCS_Rank>
172                 

$$$$
untitled-dbase-26525_404
  -OEChem-08212314543D

 47 48  0     0  0  0  0  0  0999 V2000
   -8.6852    5.8229  -14.5282 C   0  0  0  0  0  0  0  0  0  0  0  0
   -7.5719    3.8357   -8.3285 C   0  0  0  0  0  0  0  0  0  0  0  0
  -10.0876    4.2229   -8.3027 C   0  0  0  0  0  0  0  0  0  0  0  0
   -7.6571    5.1217   -9.1519 C   0  0  0  0  0  0  0  0  0  0  0  0
  -10.0675    4.5733   -9.7937 C   0  0  0  0  0  0  0  0  0  0  0  0
   -8.7897    6.4627  -10.9439 C   0  0  0  0  0  0  0  0  0  0  0  0
   -8.1468    4.0761  -11.4087 C   0  0  0  0  0  0  0  0  0  0  0  0
   -9.5702    6.4894  -12.2575 C   0  0  0  0  0  0  0  0  0  0  0  0
   -8.9305    4.1449  -12.7195 C   0  0  0  0  0  0  0  0  0  0  0  0
   -8.9421    3.2945   -7.8928 C   0  0  0  0  0  0  0  0  0  0  0  0
   -8.6770    5.0464  -10.3165 C   0  0  0  0  0  0  0  0  0  0  0  0
   -7.0342    5.4068  -16.8292 C   0  0  0  0  0  0  0  0  0  0  0  0
   -8.7299    3.6809  -17.5041 C   0  0  0  0  0  0  0  0  0  0  0  0
   -9.4128    6.0884  -17.2903 C   0  0  0  0  0  0  0  0  0  0  0  0
   -8.5015    4.9881  -16.7483 C   0  0  0  0  0  0  0  0  0  0  0  0
   -9.0289    5.5167  -13.2076 N   0  0  0  0  0  0  0  0  0  0  0  0
   -9.1521    1.9557   -8.4500 N   0  0  0  0  0  0  0  0  0  0  0  0
   -8.2904    6.9253  -14.9038 O   0  0  0  0  0  0  0  0  0  0  0  0
   -8.8342    4.7561  -15.3746 O   0  0  0  0  0  0  0  0  0  0  0  0
   -7.0220    3.0658   -8.9023 H   0  0  0  0  0  0  0  0  0  0  0  0
   -6.9499    4.0273   -7.4336 H   0  0  0  0  0  0  0  0  0  0  0  0
  -10.0334    5.1586   -7.7203 H   0  0  0  0  0  0  0  0  0  0  0  0
  -11.0605    3.7724   -8.0430 H   0  0  0  0  0  0  0  0  0  0  0  0
   -7.9345    5.9446   -8.4786 H   0  0  0  0  0  0  0  0  0  0  0  0
   -6.6583    5.3659   -9.5361 H   0  0  0  0  0  0  0  0  0  0  0  0
  -10.4305    3.7083  -10.3603 H   0  0  0  0  0  0  0  0  0  0  0  0
  -10.8026    5.3726   -9.9659 H   0  0  0  0  0  0  0  0  0  0  0  0
   -7.7820    6.8586  -11.1341 H   0  0  0  0  0  0  0  0  0  0  0  0
   -9.2599    7.1557  -10.2341 H   0  0  0  0  0  0  0  0  0  0  0  0
   -8.1484    3.0401  -11.0549 H   0  0  0  0  0  0  0  0  0  0  0  0
   -7.0978    4.3188  -11.6266 H   0  0  0  0  0  0  0  0  0  0  0  0
  -10.6217    6.2382  -12.0961 H   0  0  0  0  0  0  0  0  0  0  0  0
   -9.5386    7.4960  -12.6802 H   0  0  0  0  0  0  0  0  0  0  0  0
   -8.4493    3.4945  -13.4556 H   0  0  0  0  0  0  0  0  0  0  0  0
   -9.9511    3.7704  -12.5865 H   0  0  0  0  0  0  0  0  0  0  0  0
   -8.9445    3.1969   -6.7961 H   0  0  0  0  0  0  0  0  0  0  0  0
   -6.8662    6.3447  -16.2879 H   0  0  0  0  0  0  0  0  0  0  0  0
   -6.3726    4.6409  -16.4116 H   0  0  0  0  0  0  0  0  0  0  0  0
   -6.7371    5.5918  -17.8679 H   0  0  0  0  0  0  0  0  0  0  0  0
   -9.7814    3.3768  -17.4486 H   0  0  0  0  0  0  0  0  0  0  0  0
   -8.1489    2.8656  -17.0582 H   0  0  0  0  0  0  0  0  0  0  0  0
   -8.4499    3.7698  -18.5587 H   0  0  0  0  0  0  0  0  0  0  0  0
  -10.4653    5.7884  -17.2324 H   0  0  0  0  0  0  0  0  0  0  0  0
   -9.2891    7.0242  -16.7356 H   0  0  0  0  0  0  0  0  0  0  0  0
   -9.2040    6.2810  -18.3489 H   0  0  0  0  0  0  0  0  0  0  0  0
   -8.4118    1.3729   -8.1401 H   0  0  0  0  0  0  0  0  0  0  0  0
  -10.0259    1.6195   -8.1225 H   0  0  0  0  0  0  0  0  0  0  0  0
  1 16  1  0  0  0  0
  1 18  2  0  0  0  0
  1 19  1  0  0  0  0
  2  4  1  0  0  0  0
  2 10  1  0  0  0  0
  3  5  1  0  0  0  0
  3 10  1  0  0  0  0
  4 11  1  0  0  0  0
  5 11  1  0  0  0  0
  6  8  1  0  0  0  0
  6 11  1  0  0  0  0
  7  9  1  0  0  0  0
  7 11  1  0  0  0  0
  8 16  1  0  0  0  0
  9 16  1  0  0  0  0
 10 17  1  0  0  0  0
 12 15  1  0  0  0  0
 13 15  1  0  0  0  0
 14 15  1  0  0  0  0
 15 19  1  0  0  0  0
  2 20  1  0  0  0  0
  2 21  1  0  0  0  0
  3 22  1  0  0  0  0
  3 23  1  0  0  0  0
  4 24  1  0  0  0  0
  4 25  1  0  0  0  0
  5 26  1  0  0  0  0
  5 27  1  0  0  0  0
  6 28  1  0  0  0  0
  6 29  1  0  0  0  0
  7 30  1  0  0  0  0
  7 31  1  0  0  0  0
  8 32  1  0  0  0  0
  8 33  1  0  0  0  0
  9 34  1  0  0  0  0
  9 35  1  0  0  0  0
 10 36  1  0  0  0  0
 12 37  1  0  0  0  0
 12 38  1  0  0  0  0
 12 39  1  0  0  0  0
 13 40  1  0  0  0  0
 13 41  1  0  0  0  0
 13 42  1  0  0  0  0
 14 43  1  0  0  0  0
 14 44  1  0  0  0  0
 14 45  1  0  0  0  0
 17 46  1  0  0  0  0
 17 47  1  0  0  0  0
M  END
> <id>
EN300-223370

> <smiles>
CC(C)(C)OC(=O)N1CCC2(CCC(N)CC2)CC1

> <MDLNUMBER>
MFCD18711593

> <IUPAC Name>
tert-butyl 9-amino-3-azaspiro[5.5]undecane-3-carboxylate

> <CAS>
1272758-41-4

> <Purity>
95

> <URL>
https://www.enaminestore.com/catalog/EN300-223370

> <ROCS_ShapeQuery>
_x0404_0B

> <ROCS_TanimotoCombo>
0.392 

> <ROCS_ShapeTanimoto>
0.309 

> <ROCS_ColorTanimoto>
0.083 

> <ROCS_RefTversky>
0.276 

> <ROCS_RefColorTversky>
0.087 

> <ROCS_RefTverskyCombo>
0.363 

> <ROCS_FitTversky>
1.637 

> <ROCS_FitColorTversky>
0.661 

> <ROCS_FitTverskyCombo>
2.298 

> <ROCS_ColorScore>
-6.265

> <ROCS_Overlap>
1838.761

> <ROCS_Rank>
173                 

$$$$
untitled-dbase-28742_86
  -OEChem-08212314543D

 45 47  0     1  0  0  0  0  0999 V2000
   -9.1897    2.5582   -7.5314 C   0  0  0  0  0  0  0  0  0  0  0  0
   -8.7904    3.7967   -6.9897 C   0  0  0  0  0  0  0  0  0  0  0  0
   -8.6940    4.6283   -8.0784 C   0  0  0  0  0  0  0  0  0  0  0  0
   -8.5305    5.6252  -14.3223 C   0  0  0  0  0  0  0  0  0  0  0  0
  -10.3300    4.3043  -11.2378 C   0  0  0  0  0  0  0  0  0  0  0  0
  -10.1574    4.5539  -12.7367 C   0  0  0  0  0  0  0  0  0  0  0  0
   -8.5734    6.6076   -9.4772 C   0  0  0  0  0  0  0  0  0  0  0  0
   -8.6960    6.4252  -11.9797 C   0  0  0  0  0  0  0  0  0  0  0  0
   -8.2829    5.6961  -10.6861 C   0  0  2  0  0  0  0  0  0  0  0  0
   -8.9617    4.3066  -10.5492 C   0  0  1  0  0  0  0  0  0  0  0  0
   -8.5334    4.1178   -5.5759 C   0  0  0  0  0  0  0  0  0  0  0  0
   -6.5704    4.8830  -16.2698 C   0  0  0  0  0  0  0  0  0  0  0  0
   -8.1924    3.0895  -16.9493 C   0  0  0  0  0  0  0  0  0  0  0  0
   -8.8361    5.5072  -17.1708 C   0  0  0  0  0  0  0  0  0  0  0  0
   -8.0440    4.4877  -16.3533 C   0  0  0  0  0  0  0  0  0  0  0  0
   -9.3255    2.5923   -8.8606 N   0  0  0  0  0  0  0  0  0  0  0  0
   -9.0236    3.8693   -9.1650 N   0  0  0  0  0  0  0  0  0  0  0  0
   -8.3437    5.9202   -8.2199 N   0  0  0  0  0  0  0  0  0  0  0  0
   -9.0801    5.5016  -13.0423 N   0  0  0  0  0  0  0  0  0  0  0  0
   -8.0565    6.6636  -14.7789 O   0  0  0  0  0  0  0  0  0  0  0  0
   -8.5817    4.4505  -15.0265 O   0  0  0  0  0  0  0  0  0  0  0  0
   -9.3853    1.6293   -7.0144 H   0  0  0  0  0  0  0  0  0  0  0  0
  -10.9774    5.0734  -10.8177 H   0  0  0  0  0  0  0  0  0  0  0  0
  -10.8265    3.3470  -11.0869 H   0  0  0  0  0  0  0  0  0  0  0  0
   -9.9154    3.6090  -13.2559 H   0  0  0  0  0  0  0  0  0  0  0  0
  -11.1122    4.9045  -13.1655 H   0  0  0  0  0  0  0  0  0  0  0  0
   -7.9293    7.4978   -9.5201 H   0  0  0  0  0  0  0  0  0  0  0  0
   -9.6109    6.9717   -9.4976 H   0  0  0  0  0  0  0  0  0  0  0  0
   -9.4921    7.1490  -11.7618 H   0  0  0  0  0  0  0  0  0  0  0  0
   -7.8431    7.0077  -12.3589 H   0  0  0  0  0  0  0  0  0  0  0  0
   -7.1940    5.5584  -10.7318 H   0  0  0  0  0  0  0  0  0  0  0  0
   -8.3103    3.5704  -11.0824 H   0  0  0  0  0  0  0  0  0  0  0  0
   -7.4774    3.9392   -5.3097 H   0  0  0  0  0  0  0  0  0  0  0  0
   -8.7617    5.1726   -5.3395 H   0  0  0  0  0  0  0  0  0  0  0  0
   -9.1554    3.5140   -4.8908 H   0  0  0  0  0  0  0  0  0  0  0  0
   -6.4596    5.8860  -15.8425 H   0  0  0  0  0  0  0  0  0  0  0  0
   -5.9980    4.1789  -15.6572 H   0  0  0  0  0  0  0  0  0  0  0  0
   -6.1184    4.9204  -17.2676 H   0  0  0  0  0  0  0  0  0  0  0  0
   -9.2482    2.8018  -17.0111 H   0  0  0  0  0  0  0  0  0  0  0  0
   -7.7052    2.3408  -16.3143 H   0  0  0  0  0  0  0  0  0  0  0  0
   -7.7575    3.0296  -17.9522 H   0  0  0  0  0  0  0  0  0  0  0  0
   -9.8931    5.2239  -17.2309 H   0  0  0  0  0  0  0  0  0  0  0  0
   -8.7712    6.5102  -16.7367 H   0  0  0  0  0  0  0  0  0  0  0  0
   -8.4683    5.5497  -18.2024 H   0  0  0  0  0  0  0  0  0  0  0  0
   -8.0003    6.4685   -7.4423 H   0  0  0  0  0  0  0  0  0  0  0  0
  1  2  1  0  0  0  0
  1 16  2  0  0  0  0
  2  3  2  0  0  0  0
  2 11  1  0  0  0  0
  3 17  1  0  0  0  0
  3 18  1  0  0  0  0
  4 19  1  0  0  0  0
  4 20  2  0  0  0  0
  4 21  1  0  0  0  0
  5  6  1  0  0  0  0
  5 10  1  0  0  0  0
  6 19  1  0  0  0  0
  7  9  1  0  0  0  0
  7 18  1  0  0  0  0
  8  9  1  0  0  0  0
  8 19  1  0  0  0  0
  9 10  1  0  0  0  0
 10 17  1  0  0  0  0
 12 15  1  0  0  0  0
 13 15  1  0  0  0  0
 14 15  1  0  0  0  0
 15 21  1  0  0  0  0
 16 17  1  0  0  0  0
  1 22  1  0  0  0  0
  5 23  1  0  0  0  0
  5 24  1  0  0  0  0
  6 25  1  0  0  0  0
  6 26  1  0  0  0  0
  7 27  1  0  0  0  0
  7 28  1  0  0  0  0
  8 29  1  0  0  0  0
  8 30  1  0  0  0  0
  9 31  1  0  0  0  0
 10 32  1  0  0  0  0
 11 33  1  0  0  0  0
 11 34  1  0  0  0  0
 11 35  1  0  0  0  0
 12 36  1  0  0  0  0
 12 37  1  0  0  0  0
 12 38  1  0  0  0  0
 13 39  1  0  0  0  0
 13 40  1  0  0  0  0
 13 41  1  0  0  0  0
 14 42  1  0  0  0  0
 14 43  1  0  0  0  0
 14 44  1  0  0  0  0
 18 45  1  0  0  0  0
M  END
> <id>
EN300-1118520

> <smiles>
CC=1C=NN2C3CCN(CC3CNC12)C(=O)OC(C)(C)C

> <MDLNUMBER>
MFCD30220927

> <IUPAC Name>
tert-butyl 5-methyl-2,3,7,11-tetraazatricyclo[7.4.0.0,2,6]trideca-3,5-diene-11-carboxylate

> <CAS>
1690708-68-9

> <URL>
https://www.enaminestore.com/catalog/EN300-1118520

> <ROCS_ShapeQuery>
_x0404_0B

> <ROCS_TanimotoCombo>
0.392 

> <ROCS_ShapeTanimoto>
0.317 

> <ROCS_ColorTanimoto>
0.075 

> <ROCS_RefTversky>
0.286 

> <ROCS_RefColorTversky>
0.080 

> <ROCS_RefTverskyCombo>
0.366 

> <ROCS_FitTversky>
1.517 

> <ROCS_FitColorTversky>
0.553 

> <ROCS_FitTverskyCombo>
2.070 

> <ROCS_ColorScore>
-5.787

> <ROCS_Overlap>
1908.376

> <ROCS_Rank>
174                 

$$$$
untitled-dbase-12004_57
  -OEChem-08212314543D

 40 41  0     0  0  0  0  0  0999 V2000
   -8.0904    2.5171  -11.4663 C   0  0  0  0  0  0  0  0  0  0  0  0
   -7.8444    1.4670  -10.9375 C   0  0  0  0  0  0  0  0  0  0  0  0
   -9.3380    7.6428  -10.8425 C   0  0  0  0  0  0  0  0  0  0  0  0
   -9.2263    7.2700  -12.1860 C   0  0  0  0  0  0  0  0  0  0  0  0
   -8.8077    5.3959  -10.1270 C   0  0  0  0  0  0  0  0  0  0  0  0
   -8.4078    3.9606  -13.4515 C   0  0  0  0  0  0  0  0  0  0  0  0
   -8.3815    3.7624  -12.0938 C   0  0  0  0  0  0  0  0  0  0  0  0
   -8.6895    4.9965  -11.4747 C   0  0  0  0  0  0  0  0  0  0  0  0
   -9.1323    6.7199   -9.8250 C   0  0  0  0  0  0  0  0  0  0  0  0
   -8.8997    5.9354  -12.4939 C   0  0  0  0  0  0  0  0  0  0  0  0
   -8.8413    5.8540  -14.9960 C   0  0  0  0  0  0  0  0  0  0  0  0
   -9.2578    7.1440   -8.3999 C   0  0  0  0  0  0  0  0  0  0  0  0
   -6.9345    4.9333  -16.5010 C   0  0  0  0  0  0  0  0  0  0  0  0
   -8.5360    3.2200  -17.4005 C   0  0  0  0  0  0  0  0  0  0  0  0
   -8.7301    5.6164  -18.1269 C   0  0  0  0  0  0  0  0  0  0  0  0
   -7.5472    0.1887  -10.2927 C   0  0  0  0  0  0  0  0  0  0  0  0
   -8.3632    4.6775  -16.9786 C   0  0  0  0  0  0  0  0  0  0  0  0
   -8.7228    5.2817  -13.7181 N   0  0  0  0  0  0  0  0  0  0  0  0
   -8.5879    7.0305  -15.1957 O   0  0  0  0  0  0  0  0  0  0  0  0
   -6.3497   -0.3529  -10.8320 O   0  0  0  0  0  0  0  0  0  0  0  0
   -9.2579    4.9197  -15.8886 O   0  0  0  0  0  0  0  0  0  0  0  0
   -9.5904    8.6735  -10.6029 H   0  0  0  0  0  0  0  0  0  0  0  0
   -9.3929    8.0136  -12.9573 H   0  0  0  0  0  0  0  0  0  0  0  0
   -8.6463    4.6773   -9.3270 H   0  0  0  0  0  0  0  0  0  0  0  0
   -8.2249    3.2586  -14.2551 H   0  0  0  0  0  0  0  0  0  0  0  0
  -10.2893    7.0115   -8.0521 H   0  0  0  0  0  0  0  0  0  0  0  0
   -8.5934    6.5594   -7.7509 H   0  0  0  0  0  0  0  0  0  0  0  0
   -8.9798    8.1982   -8.2727 H   0  0  0  0  0  0  0  0  0  0  0  0
   -6.8064    5.9784  -16.1973 H   0  0  0  0  0  0  0  0  0  0  0  0
   -6.6709    4.2905  -15.6548 H   0  0  0  0  0  0  0  0  0  0  0  0
   -6.2147    4.7555  -17.3082 H   0  0  0  0  0  0  0  0  0  0  0  0
   -9.5597    3.0320  -17.7439 H   0  0  0  0  0  0  0  0  0  0  0  0
   -8.3659    2.5457  -16.5534 H   0  0  0  0  0  0  0  0  0  0  0  0
   -7.8450    2.9476  -18.2048 H   0  0  0  0  0  0  0  0  0  0  0  0
   -9.7549    5.4332  -18.4697 H   0  0  0  0  0  0  0  0  0  0  0  0
   -8.6475    6.6672  -17.8308 H   0  0  0  0  0  0  0  0  0  0  0  0
   -8.0795    5.4463  -18.9924 H   0  0  0  0  0  0  0  0  0  0  0  0
   -7.4135    0.3205   -9.2147 H   0  0  0  0  0  0  0  0  0  0  0  0
   -8.3578   -0.5270  -10.4601 H   0  0  0  0  0  0  0  0  0  0  0  0
   -6.5006   -0.4756  -11.7834 H   0  0  0  0  0  0  0  0  0  0  0  0
  1  2  3  0  0  0  0
  1  7  1  0  0  0  0
  2 16  1  0  0  0  0
  3  4  1  0  0  0  0
  3  9  2  0  0  0  0
  4 10  2  0  0  0  0
  5  8  2  0  0  0  0
  5  9  1  0  0  0  0
  6  7  2  0  0  0  0
  6 18  1  0  0  0  0
  7  8  1  0  0  0  0
  8 10  1  0  0  0  0
  9 12  1  0  0  0  0
 10 18  1  0  0  0  0
 11 18  1  0  0  0  0
 11 19  2  0  0  0  0
 11 21  1  0  0  0  0
 13 17  1  0  0  0  0
 14 17  1  0  0  0  0
 15 17  1  0  0  0  0
 16 20  1  0  0  0  0
 17 21  1  0  0  0  0
  3 22  1  0  0  0  0
  4 23  1  0  0  0  0
  5 24  1  0  0  0  0
  6 25  1  0  0  0  0
 12 26  1  0  0  0  0
 12 27  1  0  0  0  0
 12 28  1  0  0  0  0
 13 29  1  0  0  0  0
 13 30  1  0  0  0  0
 13 31  1  0  0  0  0
 14 32  1  0  0  0  0
 14 33  1  0  0  0  0
 14 34  1  0  0  0  0
 15 35  1  0  0  0  0
 15 36  1  0  0  0  0
 15 37  1  0  0  0  0
 16 38  1  0  0  0  0
 16 39  1  0  0  0  0
 20 40  1  0  0  0  0
M  END
> <id>
EN300-697696

> <smiles>
CC=1C=CC=2N(C=C(C#CCO)C2C1)C(=O)OC(C)(C)C

> <MDLNUMBER>
MFCD31431497

> <IUPAC Name>
tert-butyl 3-(3-hydroxyprop-1-yn-1-yl)-5-methyl-1H-indole-1-carboxylate

> <CAS>
2137691-95-1

> <URL>
https://www.enaminestore.com/catalog/EN300-697696

> <ROCS_ShapeQuery>
_x0404_0B

> <ROCS_TanimotoCombo>
0.392 

> <ROCS_ShapeTanimoto>
0.276 

> <ROCS_ColorTanimoto>
0.116 

> <ROCS_RefTversky>
0.257 

> <ROCS_RefColorTversky>
0.118 

> <ROCS_RefTverskyCombo>
0.374 

> <ROCS_FitTversky>
1.378 

> <ROCS_FitColorTversky>
0.893 

> <ROCS_FitTverskyCombo>
2.272 

> <ROCS_ColorScore>
-8.484

> <ROCS_Overlap>
1712.338

> <ROCS_Rank>
175                 

$$$$
untitled-dbase-14983_89
  -OEChem-08212314543D

 44 46  0     1  0  0  0  0  0999 V2000
   -9.2017    2.5364   -7.5496 C   0  0  0  0  0  0  0  0  0  0  0  0
   -8.7818    3.7657   -7.0026 C   0  0  0  0  0  0  0  0  0  0  0  0
   -8.6808    4.6030   -8.0865 C   0  0  0  0  0  0  0  0  0  0  0  0
   -8.5425    5.6380  -14.3248 C   0  0  0  0  0  0  0  0  0  0  0  0
  -10.3408    4.3221  -11.2374 C   0  0  0  0  0  0  0  0  0  0  0  0
  -10.1742    4.5790  -12.7358 C   0  0  0  0  0  0  0  0  0  0  0  0
   -8.5414    6.5895   -9.4733 C   0  0  0  0  0  0  0  0  0  0  0  0
   -8.6822    6.4250  -11.9761 C   0  0  0  0  0  0  0  0  0  0  0  0
   -8.2712    5.6819  -10.6899 C   0  0  2  0  0  0  0  0  0  0  0  0
   -8.9683    4.3010  -10.5576 C   0  0  1  0  0  0  0  0  0  0  0  0
   -6.6051    4.8814  -16.2894 C   0  0  0  0  0  0  0  0  0  0  0  0
   -8.2561    3.1149  -16.9701 C   0  0  0  0  0  0  0  0  0  0  0  0
   -8.8675    5.5426  -17.1720 C   0  0  0  0  0  0  0  0  0  0  0  0
   -8.0845    4.5071  -16.3661 C   0  0  0  0  0  0  0  0  0  0  0  0
   -9.3453    2.5810   -8.8777 N   0  0  0  0  0  0  0  0  0  0  0  0
   -9.0276    3.8557   -9.1758 N   0  0  0  0  0  0  0  0  0  0  0  0
   -8.3135    5.8908   -8.2219 N   0  0  0  0  0  0  0  0  0  0  0  0
   -9.0858    5.5137  -13.0422 N   0  0  0  0  0  0  0  0  0  0  0  0
   -8.5322    4.0518   -5.7099 N   0  0  0  0  0  0  0  0  0  0  0  0
   -8.0570    6.6726  -14.7778 O   0  0  0  0  0  0  0  0  0  0  0  0
   -8.6144    4.4687  -15.0362 O   0  0  0  0  0  0  0  0  0  0  0  0
   -9.4076    1.6068   -7.0377 H   0  0  0  0  0  0  0  0  0  0  0  0
  -10.9750    5.0972  -10.8083 H   0  0  0  0  0  0  0  0  0  0  0  0
  -10.8493    3.3706  -11.0894 H   0  0  0  0  0  0  0  0  0  0  0  0
   -9.9486    3.6344  -13.2628 H   0  0  0  0  0  0  0  0  0  0  0  0
  -11.1268    4.9457  -13.1562 H   0  0  0  0  0  0  0  0  0  0  0  0
   -7.8855    7.4710   -9.5144 H   0  0  0  0  0  0  0  0  0  0  0  0
   -9.5741    6.9677   -9.4847 H   0  0  0  0  0  0  0  0  0  0  0  0
   -9.4664    7.1589  -11.7491 H   0  0  0  0  0  0  0  0  0  0  0  0
   -7.8234    6.9978  -12.3567 H   0  0  0  0  0  0  0  0  0  0  0  0
   -7.1845    5.5292  -10.7432 H   0  0  0  0  0  0  0  0  0  0  0  0
   -8.3302    3.5594  -11.0995 H   0  0  0  0  0  0  0  0  0  0  0  0
   -6.4777    5.8800  -15.8564 H   0  0  0  0  0  0  0  0  0  0  0  0
   -6.0387    4.1654  -15.6849 H   0  0  0  0  0  0  0  0  0  0  0  0
   -6.1589    4.9190  -17.2898 H   0  0  0  0  0  0  0  0  0  0  0  0
   -9.3161    2.8423  -17.0270 H   0  0  0  0  0  0  0  0  0  0  0  0
   -7.7752    2.3555  -16.3430 H   0  0  0  0  0  0  0  0  0  0  0  0
   -7.8283    3.0555  -17.9761 H   0  0  0  0  0  0  0  0  0  0  0  0
   -9.9287    5.2743  -17.2272 H   0  0  0  0  0  0  0  0  0  0  0  0
   -8.7860    6.5418  -16.7319 H   0  0  0  0  0  0  0  0  0  0  0  0
   -8.5056    5.5868  -18.2056 H   0  0  0  0  0  0  0  0  0  0  0  0
   -7.9590    6.4289   -7.4424 H   0  0  0  0  0  0  0  0  0  0  0  0
   -8.6788    3.3634   -4.9548 H   0  0  0  0  0  0  0  0  0  0  0  0
   -8.2721    5.0002   -5.3960 H   0  0  0  0  0  0  0  0  0  0  0  0
  1  2  1  0  0  0  0
  1 15  2  0  0  0  0
  2  3  2  0  0  0  0
  2 19  1  0  0  0  0
  3 16  1  0  0  0  0
  3 17  1  0  0  0  0
  4 18  1  0  0  0  0
  4 20  2  0  0  0  0
  4 21  1  0  0  0  0
  5  6  1  0  0  0  0
  5 10  1  0  0  0  0
  6 18  1  0  0  0  0
  7  9  1  0  0  0  0
  7 17  1  0  0  0  0
  8  9  1  0  0  0  0
  8 18  1  0  0  0  0
  9 10  1  0  0  0  0
 10 16  1  0  0  0  0
 11 14  1  0  0  0  0
 12 14  1  0  0  0  0
 13 14  1  0  0  0  0
 14 21  1  0  0  0  0
 15 16  1  0  0  0  0
  1 22  1  0  0  0  0
  5 23  1  0  0  0  0
  5 24  1  0  0  0  0
  6 25  1  0  0  0  0
  6 26  1  0  0  0  0
  7 27  1  0  0  0  0
  7 28  1  0  0  0  0
  8 29  1  0  0  0  0
  8 30  1  0  0  0  0
  9 31  1  0  0  0  0
 10 32  1  0  0  0  0
 11 33  1  0  0  0  0
 11 34  1  0  0  0  0
 11 35  1  0  0  0  0
 12 36  1  0  0  0  0
 12 37  1  0  0  0  0
 12 38  1  0  0  0  0
 13 39  1  0  0  0  0
 13 40  1  0  0  0  0
 13 41  1  0  0  0  0
 17 42  1  0  0  0  0
 19 43  1  0  0  0  0
 19 44  1  0  0  0  0
M  END
> <id>
EN300-1118521

> <smiles>
CC(C)(C)OC(=O)N1CCC2C(CNC3=C(N)C=NN23)C1

> <IUPAC Name>
tert-butyl 5-amino-2,3,7,11-tetraazatricyclo[7.4.0.0,2,6]trideca-3,5-diene-11-carboxylate

> <CAS>
1698459-00-5

> <URL>
https://www.enaminestore.com/catalog/EN300-1118521

> <ROCS_ShapeQuery>
_x0404_0B

> <ROCS_TanimotoCombo>
0.392 

> <ROCS_ShapeTanimoto>
0.318 

> <ROCS_ColorTanimoto>
0.074 

> <ROCS_RefTversky>
0.287 

> <ROCS_RefColorTversky>
0.080 

> <ROCS_RefTverskyCombo>
0.367 

> <ROCS_FitTversky>
1.518 

> <ROCS_FitColorTversky>
0.470 

> <ROCS_FitTverskyCombo>
1.988 

> <ROCS_ColorScore>
-5.809

> <ROCS_Overlap>
1915.367

> <ROCS_Rank>
176                 

$$$$
untitled-dbase-15244_803
  -OEChem-08212314543D

 44 45  0     1  0  0  0  0  0999 V2000
   -8.4312    5.6467  -14.3666 C   0  0  0  0  0  0  0  0  0  0  0  0
   -9.3271    3.7630  -11.2371 C   0  0  0  0  0  0  0  0  0  0  0  0
   -8.0370    5.8886  -10.6803 C   0  0  0  0  0  0  0  0  0  0  0  0
   -9.3084    4.1307   -7.2073 C   0  0  0  0  0  0  0  0  0  0  0  0
   -7.7745    3.8509   -9.1943 C   0  0  0  0  0  0  0  0  0  0  0  0
   -8.5684    3.9086  -12.5517 C   0  0  0  0  0  0  0  0  0  0  0  0
   -8.6489    6.3446  -12.0011 C   0  0  0  0  0  0  0  0  0  0  0  0
   -9.6441    5.3979   -7.9867 C   0  0  0  0  0  0  0  0  0  0  0  0
   -8.4686    3.1492   -8.0270 C   0  0  2  0  0  0  0  0  0  0  0  0
   -8.7574    4.6466  -10.0970 C   0  0  0  0  0  0  0  0  0  0  0  0
   -6.9204    5.6539  -16.7957 C   0  0  0  0  0  0  0  0  0  0  0  0
   -8.0699    3.4784  -17.3008 C   0  0  0  0  0  0  0  0  0  0  0  0
   -9.4227    5.5803  -17.0557 C   0  0  0  0  0  0  0  0  0  0  0  0
   -8.1838    4.8213  -16.5826 C   0  0  0  0  0  0  0  0  0  0  0  0
   -8.5535    5.2983  -13.0182 N   0  0  0  0  0  0  0  0  0  0  0  0
   -8.4161    6.8034  -14.7837 O   0  0  0  0  0  0  0  0  0  0  0  0
   -9.9097    5.0887   -9.3494 O   0  0  0  0  0  0  0  0  0  0  0  0
   -9.3030    2.1093   -8.5299 O   0  0  0  0  0  0  0  0  0  0  0  0
   -8.3211    4.5517  -15.1828 O   0  0  0  0  0  0  0  0  0  0  0  0
  -10.3800    4.0290  -11.4191 H   0  0  0  0  0  0  0  0  0  0  0  0
   -9.3158    2.7053  -10.9293 H   0  0  0  0  0  0  0  0  0  0  0  0
   -6.9752    5.6553  -10.8399 H   0  0  0  0  0  0  0  0  0  0  0  0
   -8.0654    6.7317   -9.9817 H   0  0  0  0  0  0  0  0  0  0  0  0
   -8.7913    4.3806   -6.2675 H   0  0  0  0  0  0  0  0  0  0  0  0
  -10.2435    3.6297   -6.9042 H   0  0  0  0  0  0  0  0  0  0  0  0
   -6.9727    4.5031   -8.8210 H   0  0  0  0  0  0  0  0  0  0  0  0
   -7.2676    3.0831   -9.7986 H   0  0  0  0  0  0  0  0  0  0  0  0
   -7.5512    3.5201  -12.4293 H   0  0  0  0  0  0  0  0  0  0  0  0
   -9.0424    3.3116  -13.3426 H   0  0  0  0  0  0  0  0  0  0  0  0
   -9.7122    6.5813  -11.8770 H   0  0  0  0  0  0  0  0  0  0  0  0
   -8.1516    7.2583  -12.3427 H   0  0  0  0  0  0  0  0  0  0  0  0
  -10.5443    5.8513   -7.5697 H   0  0  0  0  0  0  0  0  0  0  0  0
   -8.8449    6.1351   -7.9116 H   0  0  0  0  0  0  0  0  0  0  0  0
   -7.7182    2.6698   -7.3728 H   0  0  0  0  0  0  0  0  0  0  0  0
   -6.9982    6.6187  -16.2818 H   0  0  0  0  0  0  0  0  0  0  0  0
   -6.0288    5.1352  -16.4286 H   0  0  0  0  0  0  0  0  0  0  0  0
   -6.7760    5.8805  -17.8583 H   0  0  0  0  0  0  0  0  0  0  0  0
   -8.9742    2.8777  -17.1506 H   0  0  0  0  0  0  0  0  0  0  0  0
   -7.2378    2.8897  -16.8979 H   0  0  0  0  0  0  0  0  0  0  0  0
   -7.9142    3.6076  -18.3767 H   0  0  0  0  0  0  0  0  0  0  0  0
  -10.3291    4.9833  -16.9029 H   0  0  0  0  0  0  0  0  0  0  0  0
   -9.5410    6.5303  -16.5245 H   0  0  0  0  0  0  0  0  0  0  0  0
   -9.3662    5.7871  -18.1305 H   0  0  0  0  0  0  0  0  0  0  0  0
   -9.6933    1.6680   -7.7588 H   0  0  0  0  0  0  0  0  0  0  0  0
  1 15  1  0  0  0  0
  1 16  2  0  0  0  0
  1 19  1  0  0  0  0
  2  6  1  0  0  0  0
  2 10  1  0  0  0  0
  3  7  1  0  0  0  0
  3 10  1  0  0  0  0
  4  8  1  0  0  0  0
  4  9  1  0  0  0  0
  5  9  1  0  0  0  0
  5 10  1  0  0  0  0
  6 15  1  0  0  0  0
  7 15  1  0  0  0  0
  8 17  1  0  0  0  0
  9 18  1  0  0  0  0
 10 17  1  0  0  0  0
 11 14  1  0  0  0  0
 12 14  1  0  0  0  0
 13 14  1  0  0  0  0
 14 19  1  0  0  0  0
  2 20  1  0  0  0  0
  2 21  1  0  0  0  0
  3 22  1  0  0  0  0
  3 23  1  0  0  0  0
  4 24  1  0  0  0  0
  4 25  1  0  0  0  0
  5 26  1  0  0  0  0
  5 27  1  0  0  0  0
  6 28  1  0  0  0  0
  6 29  1  0  0  0  0
  7 30  1  0  0  0  0
  7 31  1  0  0  0  0
  8 32  1  0  0  0  0
  8 33  1  0  0  0  0
  9 34  1  0  0  0  0
 11 35  1  0  0  0  0
 11 36  1  0  0  0  0
 11 37  1  0  0  0  0
 12 38  1  0  0  0  0
 12 39  1  0  0  0  0
 12 40  1  0  0  0  0
 13 41  1  0  0  0  0
 13 42  1  0  0  0  0
 13 43  1  0  0  0  0
 18 44  1  0  0  0  0
M  END
> <id>
EN300-378306

> <smiles>
CC(C)(C)OC(=O)N1CCC2(CC1)CC(O)CCO2

> <MDLNUMBER>
MFCD19103494

> <IUPAC Name>
tert-butyl 4-hydroxy-1-oxa-9-azaspiro[5.5]undecane-9-carboxylate

> <CAS>
374796-29-9

> <Purity>
95

> <URL>
https://www.enaminestore.com/catalog/EN300-378306

> <ROCS_ShapeQuery>
_x0404_0B

> <ROCS_TanimotoCombo>
0.392 

> <ROCS_ShapeTanimoto>
0.308 

> <ROCS_ColorTanimoto>
0.083 

> <ROCS_RefTversky>
0.276 

> <ROCS_RefColorTversky>
0.088 

> <ROCS_RefTverskyCombo>
0.364 

> <ROCS_FitTversky>
1.619 

> <ROCS_FitColorTversky>
0.610 

> <ROCS_FitTverskyCombo>
2.229 

> <ROCS_ColorScore>
-6.364

> <ROCS_Overlap>
1838.489

> <ROCS_Rank>
177                 

$$$$
untitled-dbase-19858_88
  -OEChem-08212314543D

 45 46  0     1  0  0  0  0  0999 V2000
   -8.7435    5.8106  -14.3736 C   0  0  0  0  0  0  0  0  0  0  0  0
   -9.5994    4.3079  -11.0251 C   0  0  0  0  0  0  0  0  0  0  0  0
   -7.6436    5.9250  -10.8419 C   0  0  0  0  0  0  0  0  0  0  0  0
   -9.0347    4.0883   -7.3012 C   0  0  0  0  0  0  0  0  0  0  0  0
   -7.6322    3.8948   -9.3723 C   0  0  0  0  0  0  0  0  0  0  0  0
   -9.1153    4.2119  -12.4678 C   0  0  0  0  0  0  0  0  0  0  0  0
   -8.3465    6.5502  -12.0422 C   0  0  0  0  0  0  0  0  0  0  0  0
   -9.9687    4.9771   -8.1078 C   0  0  0  0  0  0  0  0  0  0  0  0
   -8.2621    3.1246   -8.2019 C   0  0  2  0  0  0  0  0  0  0  0  0
   -8.5527    4.9314  -10.0686 C   0  0  0  0  0  0  0  0  0  0  0  0
   -7.7200    5.3281  -17.0011 C   0  0  0  0  0  0  0  0  0  0  0  0
   -9.5510    3.6203  -17.2008 C   0  0  0  0  0  0  0  0  0  0  0  0
  -10.1300    6.0421  -16.8723 C   0  0  0  0  0  0  0  0  0  0  0  0
   -9.1264    4.9355  -16.5511 C   0  0  0  0  0  0  0  0  0  0  0  0
   -8.7474    5.5252  -13.0051 N   0  0  0  0  0  0  0  0  0  0  0  0
   -9.1355    2.0497   -8.6683 N   0  0  0  0  0  0  0  0  0  0  0  0
   -8.4400    6.9015  -14.8529 O   0  0  0  0  0  0  0  0  0  0  0  0
   -9.2353    5.7226   -9.0762 O   0  0  0  0  0  0  0  0  0  0  0  0
   -9.1110    4.7313  -15.1337 O   0  0  0  0  0  0  0  0  0  0  0  0
  -10.5193    4.9132  -11.0139 H   0  0  0  0  0  0  0  0  0  0  0  0
   -9.8774    3.3025  -10.6705 H   0  0  0  0  0  0  0  0  0  0  0  0
   -6.7418    5.4001  -11.1885 H   0  0  0  0  0  0  0  0  0  0  0  0
   -7.2955    6.7349  -10.1909 H   0  0  0  0  0  0  0  0  0  0  0  0
   -8.3435    4.7105   -6.7126 H   0  0  0  0  0  0  0  0  0  0  0  0
   -9.6352    3.5104   -6.5796 H   0  0  0  0  0  0  0  0  0  0  0  0
   -6.6921    4.3887   -9.0392 H   0  0  0  0  0  0  0  0  0  0  0  0
   -7.3053    3.1517  -10.1347 H   0  0  0  0  0  0  0  0  0  0  0  0
   -8.2656    3.5223  -12.5285 H   0  0  0  0  0  0  0  0  0  0  0  0
   -9.9022    3.8085  -13.1180 H   0  0  0  0  0  0  0  0  0  0  0  0
   -9.2566    7.0755  -11.7297 H   0  0  0  0  0  0  0  0  0  0  0  0
   -7.6878    7.2925  -12.5017 H   0  0  0  0  0  0  0  0  0  0  0  0
  -10.6857    4.3570   -8.6482 H   0  0  0  0  0  0  0  0  0  0  0  0
  -10.5402    5.6478   -7.4661 H   0  0  0  0  0  0  0  0  0  0  0  0
   -7.4533    2.6588   -7.6025 H   0  0  0  0  0  0  0  0  0  0  0  0
   -7.4115    6.2717  -16.5369 H   0  0  0  0  0  0  0  0  0  0  0  0
   -6.9849    4.5581  -16.7452 H   0  0  0  0  0  0  0  0  0  0  0  0
   -7.6873    5.4914  -18.0844 H   0  0  0  0  0  0  0  0  0  0  0  0
  -10.5596    3.3348  -16.8808 H   0  0  0  0  0  0  0  0  0  0  0  0
   -8.8876    2.8027  -16.8966 H   0  0  0  0  0  0  0  0  0  0  0  0
   -9.5400    3.6874  -18.2935 H   0  0  0  0  0  0  0  0  0  0  0  0
  -11.1390    5.7607  -16.5496 H   0  0  0  0  0  0  0  0  0  0  0  0
   -9.8613    6.9844  -16.3841 H   0  0  0  0  0  0  0  0  0  0  0  0
  -10.1878    6.2140  -17.9532 H   0  0  0  0  0  0  0  0  0  0  0  0
   -8.5939    1.4282   -9.2205 H   0  0  0  0  0  0  0  0  0  0  0  0
   -9.5036    1.5837   -7.8734 H   0  0  0  0  0  0  0  0  0  0  0  0
  1 15  1  0  0  0  0
  1 17  2  0  0  0  0
  1 19  1  0  0  0  0
  2  6  1  0  0  0  0
  2 10  1  0  0  0  0
  3  7  1  0  0  0  0
  3 10  1  0  0  0  0
  4  8  1  0  0  0  0
  4  9  1  0  0  0  0
  5  9  1  0  0  0  0
  5 10  1  0  0  0  0
  6 15  1  0  0  0  0
  7 15  1  0  0  0  0
  8 18  1  0  0  0  0
  9 16  1  0  0  0  0
 10 18  1  0  0  0  0
 11 14  1  0  0  0  0
 12 14  1  0  0  0  0
 13 14  1  0  0  0  0
 14 19  1  0  0  0  0
  2 20  1  0  0  0  0
  2 21  1  0  0  0  0
  3 22  1  0  0  0  0
  3 23  1  0  0  0  0
  4 24  1  0  0  0  0
  4 25  1  0  0  0  0
  5 26  1  0  0  0  0
  5 27  1  0  0  0  0
  6 28  1  0  0  0  0
  6 29  1  0  0  0  0
  7 30  1  0  0  0  0
  7 31  1  0  0  0  0
  8 32  1  0  0  0  0
  8 33  1  0  0  0  0
  9 34  1  0  0  0  0
 11 35  1  0  0  0  0
 11 36  1  0  0  0  0
 11 37  1  0  0  0  0
 12 38  1  0  0  0  0
 12 39  1  0  0  0  0
 12 40  1  0  0  0  0
 13 41  1  0  0  0  0
 13 42  1  0  0  0  0
 13 43  1  0  0  0  0
 16 44  1  0  0  0  0
 16 45  1  0  0  0  0
M  END
> <id>
EN300-1681879

> <smiles>
CC(C)(C)OC(=O)N1CCC2(CC1)CC(N)CCO2

> <MDLNUMBER>
MFCD18792449

> <IUPAC Name>
tert-butyl 4-amino-1-oxa-9-azaspiro[5.5]undecane-9-carboxylate

> <CAS>
1250994-52-5

> <Purity>
95

> <URL>
https://www.enaminestore.com/catalog/EN300-1681879

> <ROCS_ShapeQuery>
_x0404_0B

> <ROCS_TanimotoCombo>
0.392 

> <ROCS_ShapeTanimoto>
0.299 

> <ROCS_ColorTanimoto>
0.092 

> <ROCS_RefTversky>
0.270 

> <ROCS_RefColorTversky>
0.097 

> <ROCS_RefTverskyCombo>
0.366 

> <ROCS_FitTversky>
1.585 

> <ROCS_FitColorTversky>
0.669 

> <ROCS_FitTverskyCombo>
2.254 

> <ROCS_ColorScore>
-6.979

> <ROCS_Overlap>
1797.304

> <ROCS_Rank>
178                 

$$$$
untitled-dbase-49241_507
  -OEChem-08212314543D

 48 50  0     1  0  0  0  0  0999 V2000
   -8.9430    2.6200   -9.2804 C   0  0  0  0  0  0  0  0  0  0  0  0
   -9.1060    2.2577   -7.9605 C   0  0  0  0  0  0  0  0  0  0  0  0
   -8.9622    4.0408   -9.4725 C   0  0  0  0  0  0  0  0  0  0  0  0
   -9.1022    4.6822   -8.2544 C   0  0  0  0  0  0  0  0  0  0  0  0
   -8.2125    5.4275  -14.8812 C   0  0  0  0  0  0  0  0  0  0  0  0
   -9.1279    6.1627   -8.0852 C   0  0  0  0  0  0  0  0  0  0  0  0
   -9.6067    3.1573  -12.7148 C   0  0  0  0  0  0  0  0  0  0  0  0
   -9.8899    4.3732  -11.8202 C   0  0  0  0  0  0  0  0  0  0  0  0
   -7.3415    4.6318  -11.3105 C   0  0  0  0  0  0  0  0  0  0  0  0
   -8.5299    6.8230   -9.3303 C   0  0  0  0  0  0  0  0  0  0  0  0
   -8.3711    3.2579  -13.6140 C   0  0  0  0  0  0  0  0  0  0  0  0
   -7.0482    5.1800  -12.7115 C   0  0  0  0  0  0  0  0  0  0  0  0
   -8.7965    4.8038  -10.7927 C   0  0  2  0  0  0  0  0  0  0  0  0
   -6.6192    5.7198  -17.2396 C   0  0  0  0  0  0  0  0  0  0  0  0
   -8.3854    4.3451  -18.3799 C   0  0  0  0  0  0  0  0  0  0  0  0
   -8.9807    6.5768  -17.3933 C   0  0  0  0  0  0  0  0  0  0  0  0
   -8.0984    5.3370  -17.2547 C   0  0  0  0  0  0  0  0  0  0  0  0
   -9.1003    6.2479  -10.5512 N   0  0  0  0  0  0  0  0  0  0  0  0
   -7.8959    4.6334  -13.7720 N   0  0  0  0  0  0  0  0  0  0  0  0
   -8.3128    6.6527  -14.8489 O   0  0  0  0  0  0  0  0  0  0  0  0
   -8.4140    4.6888  -16.0172 O   0  0  0  0  0  0  0  0  0  0  0  0
   -9.2623    3.6184   -6.9389 S   0  0  0  0  0  0  0  0  0  0  0  0
   -8.8135    1.8928  -10.0738 H   0  0  0  0  0  0  0  0  0  0  0  0
   -9.1354    1.2580   -7.5507 H   0  0  0  0  0  0  0  0  0  0  0  0
  -10.1660    6.4908   -7.9531 H   0  0  0  0  0  0  0  0  0  0  0  0
   -8.5620    6.4710   -7.1997 H   0  0  0  0  0  0  0  0  0  0  0  0
   -9.4741    2.2830  -12.0544 H   0  0  0  0  0  0  0  0  0  0  0  0
  -10.4975    2.9197  -13.3216 H   0  0  0  0  0  0  0  0  0  0  0  0
  -10.1206    5.2204  -12.4831 H   0  0  0  0  0  0  0  0  0  0  0  0
  -10.8272    4.1677  -11.2841 H   0  0  0  0  0  0  0  0  0  0  0  0
   -7.0773    3.5728  -11.2884 H   0  0  0  0  0  0  0  0  0  0  0  0
   -6.6426    5.1233  -10.6298 H   0  0  0  0  0  0  0  0  0  0  0  0
   -8.7409    7.8981   -9.3075 H   0  0  0  0  0  0  0  0  0  0  0  0
   -7.4380    6.7242   -9.3343 H   0  0  0  0  0  0  0  0  0  0  0  0
   -7.5466    2.6293  -13.2405 H   0  0  0  0  0  0  0  0  0  0  0  0
   -8.6264    2.8530  -14.6058 H   0  0  0  0  0  0  0  0  0  0  0  0
   -7.1435    6.2641  -12.6983 H   0  0  0  0  0  0  0  0  0  0  0  0
   -6.0172    4.9513  -12.9803 H   0  0  0  0  0  0  0  0  0  0  0  0
   -6.4091    6.4316  -16.4333 H   0  0  0  0  0  0  0  0  0  0  0  0
   -5.9770    4.8432  -17.1057 H   0  0  0  0  0  0  0  0  0  0  0  0
   -6.3347    6.2178  -18.1736 H   0  0  0  0  0  0  0  0  0  0  0  0
   -9.4456    4.0677  -18.3944 H   0  0  0  0  0  0  0  0  0  0  0  0
   -7.8249    3.4149  -18.2325 H   0  0  0  0  0  0  0  0  0  0  0  0
   -8.1215    4.7575  -19.3591 H   0  0  0  0  0  0  0  0  0  0  0  0
  -10.0418    6.3025  -17.4041 H   0  0  0  0  0  0  0  0  0  0  0  0
   -8.8148    7.2835  -16.5737 H   0  0  0  0  0  0  0  0  0  0  0  0
   -8.7845    7.0907  -18.3413 H   0  0  0  0  0  0  0  0  0  0  0  0
  -10.1170    6.3775  -10.5338 H   0  0  0  0  0  0  0  0  0  0  0  0
  1  2  2  0  0  0  0
  1  3  1  0  0  0  0
  2 22  1  0  0  0  0
  3  4  2  0  0  0  0
  3 13  1  0  0  0  0
  4  6  1  0  0  0  0
  4 22  1  0  0  0  0
  5 19  1  0  0  0  0
  5 20  2  0  0  0  0
  5 21  1  0  0  0  0
  6 10  1  0  0  0  0
  7  8  1  0  0  0  0
  7 11  1  0  0  0  0
  8 13  1  0  0  0  0
  9 12  1  0  0  0  0
  9 13  1  0  0  0  0
 10 18  1  0  0  0  0
 11 19  1  0  0  0  0
 12 19  1  0  0  0  0
 13 18  1  0  0  0  0
 14 17  1  0  0  0  0
 15 17  1  0  0  0  0
 16 17  1  0  0  0  0
 17 21  1  0  0  0  0
  1 23  1  0  0  0  0
  2 24  1  0  0  0  0
  6 25  1  0  0  0  0
  6 26  1  0  0  0  0
  7 27  1  0  0  0  0
  7 28  1  0  0  0  0
  8 29  1  0  0  0  0
  8 30  1  0  0  0  0
  9 31  1  0  0  0  0
  9 32  1  0  0  0  0
 10 33  1  0  0  0  0
 10 34  1  0  0  0  0
 11 35  1  0  0  0  0
 11 36  1  0  0  0  0
 12 37  1  0  0  0  0
 12 38  1  0  0  0  0
 14 39  1  0  0  0  0
 14 40  1  0  0  0  0
 14 41  1  0  0  0  0
 15 42  1  0  0  0  0
 15 43  1  0  0  0  0
 15 44  1  0  0  0  0
 16 45  1  0  0  0  0
 16 46  1  0  0  0  0
 16 47  1  0  0  0  0
 18 48  1  0  0  0  0
M  END
> <id>
EN300-1076904

> <smiles>
CC(C)(C)OC(=O)N1CCCC2(CC1)NCCC=3SC=CC32

> <IUPAC Name>
tert-butyl 6',7'-dihydro-5'H-spiro[azepane-4,4'-thieno[3,2-c]pyridine]-1-carboxylate

> <CAS>
2137663-13-7

> <URL>
https://www.enaminestore.com/catalog/EN300-1076904

> <ROCS_ShapeQuery>
_x0404_0B

> <ROCS_TanimotoCombo>
0.392 

> <ROCS_ShapeTanimoto>
0.333 

> <ROCS_ColorTanimoto>
0.058 

> <ROCS_RefTversky>
0.297 

> <ROCS_RefColorTversky>
0.063 

> <ROCS_RefTverskyCombo>
0.360 

> <ROCS_FitTversky>
1.570 

> <ROCS_FitColorTversky>
0.436 

> <ROCS_FitTverskyCombo>
2.006 

> <ROCS_ColorScore>
-4.554

> <ROCS_Overlap>
1983.824

> <ROCS_Rank>
179                 

$$$$
untitled-dbase-30545_568
  -OEChem-08212314543D

 44 45  0     1  0  0  0  0  0999 V2000
   -8.4481    6.0756   -9.0045 C   0  0  0  0  0  0  0  0  0  0  0  0
   -8.4792    5.5690  -14.3748 C   0  0  0  0  0  0  0  0  0  0  0  0
   -8.0597    4.3821  -10.8261 C   0  0  0  0  0  0  0  0  0  0  0  0
   -9.9907    6.0433  -11.0035 C   0  0  0  0  0  0  0  0  0  0  0  0
  -10.1122    4.2369   -9.2690 C   0  0  0  0  0  0  0  0  0  0  0  0
   -8.4180    4.1575  -12.2931 C   0  0  0  0  0  0  0  0  0  0  0  0
   -9.1978    6.5291  -12.2125 C   0  0  0  0  0  0  0  0  0  0  0  0
   -8.1492    4.0176   -7.6364 C   0  0  0  0  0  0  0  0  0  0  0  0
   -9.4727    3.4415   -8.1231 C   0  0  2  0  0  0  0  0  0  0  0  0
   -9.1413    5.1672  -10.0401 C   0  0  0  0  0  0  0  0  0  0  0  0
   -7.0608    4.9260  -16.7748 C   0  0  0  0  0  0  0  0  0  0  0  0
   -8.7450    3.0839  -17.0573 C   0  0  0  0  0  0  0  0  0  0  0  0
   -9.5004    5.4792  -17.0524 C   0  0  0  0  0  0  0  0  0  0  0  0
   -8.4933    4.4783  -16.4877 C   0  0  0  0  0  0  0  0  0  0  0  0
   -8.0441    5.4423   -7.8459 N   0  0  0  0  0  0  0  0  0  0  0  0
   -8.6798    5.4131  -12.9996 N   0  0  0  0  0  0  0  0  0  0  0  0
   -8.2390    7.2731   -9.1984 O   0  0  0  0  0  0  0  0  0  0  0  0
   -8.1712    6.6310  -14.9127 O   0  0  0  0  0  0  0  0  0  0  0  0
   -9.2663    2.0969   -8.5534 O   0  0  0  0  0  0  0  0  0  0  0  0
   -8.6716    4.4034  -15.0687 O   0  0  0  0  0  0  0  0  0  0  0  0
   -7.9230    3.4011  -10.3665 H   0  0  0  0  0  0  0  0  0  0  0  0
   -7.1029    4.9021  -10.7710 H   0  0  0  0  0  0  0  0  0  0  0  0
  -10.3868    6.9199  -10.4850 H   0  0  0  0  0  0  0  0  0  0  0  0
  -10.8475    5.4647  -11.3627 H   0  0  0  0  0  0  0  0  0  0  0  0
  -10.5865    3.5207   -9.9721 H   0  0  0  0  0  0  0  0  0  0  0  0
  -10.9664    4.8168   -8.8643 H   0  0  0  0  0  0  0  0  0  0  0  0
   -7.6033    3.6521  -12.8308 H   0  0  0  0  0  0  0  0  0  0  0  0
   -9.2818    3.4815  -12.3527 H   0  0  0  0  0  0  0  0  0  0  0  0
   -9.8328    7.1748  -12.8329 H   0  0  0  0  0  0  0  0  0  0  0  0
   -8.3384    7.1383  -11.9006 H   0  0  0  0  0  0  0  0  0  0  0  0
   -8.0098    3.8145   -6.5753 H   0  0  0  0  0  0  0  0  0  0  0  0
   -7.3149    3.5544   -8.1648 H   0  0  0  0  0  0  0  0  0  0  0  0
  -10.1896    3.3727   -7.2665 H   0  0  0  0  0  0  0  0  0  0  0  0
   -6.8762    5.9265  -16.3675 H   0  0  0  0  0  0  0  0  0  0  0  0
   -6.3284    4.2349  -16.3448 H   0  0  0  0  0  0  0  0  0  0  0  0
   -6.8811    4.9934  -17.8538 H   0  0  0  0  0  0  0  0  0  0  0  0
   -9.7716    2.7587  -16.8536 H   0  0  0  0  0  0  0  0  0  0  0  0
   -8.0877    2.3449  -16.5850 H   0  0  0  0  0  0  0  0  0  0  0  0
   -8.5798    3.0535  -18.1391 H   0  0  0  0  0  0  0  0  0  0  0  0
  -10.5280    5.1584  -16.8466 H   0  0  0  0  0  0  0  0  0  0  0  0
   -9.3584    6.4779  -16.6268 H   0  0  0  0  0  0  0  0  0  0  0  0
   -9.4108    5.5492  -18.1425 H   0  0  0  0  0  0  0  0  0  0  0  0
   -7.6592    6.0007   -7.1153 H   0  0  0  0  0  0  0  0  0  0  0  0
   -8.8628    1.6263   -7.8074 H   0  0  0  0  0  0  0  0  0  0  0  0
  1 10  1  0  0  0  0
  1 15  1  0  0  0  0
  1 17  2  0  0  0  0
  2 16  1  0  0  0  0
  2 18  2  0  0  0  0
  2 20  1  0  0  0  0
  3  6  1  0  0  0  0
  3 10  1  0  0  0  0
  4  7  1  0  0  0  0
  4 10  1  0  0  0  0
  5  9  1  0  0  0  0
  5 10  1  0  0  0  0
  6 16  1  0  0  0  0
  7 16  1  0  0  0  0
  8  9  1  0  0  0  0
  8 15  1  0  0  0  0
  9 19  1  0  0  0  0
 11 14  1  0  0  0  0
 12 14  1  0  0  0  0
 13 14  1  0  0  0  0
 14 20  1  0  0  0  0
  3 21  1  0  0  0  0
  3 22  1  0  0  0  0
  4 23  1  0  0  0  0
  4 24  1  0  0  0  0
  5 25  1  0  0  0  0
  5 26  1  0  0  0  0
  6 27  1  0  0  0  0
  6 28  1  0  0  0  0
  7 29  1  0  0  0  0
  7 30  1  0  0  0  0
  8 31  1  0  0  0  0
  8 32  1  0  0  0  0
  9 33  1  0  0  0  0
 11 34  1  0  0  0  0
 11 35  1  0  0  0  0
 11 36  1  0  0  0  0
 12 37  1  0  0  0  0
 12 38  1  0  0  0  0
 12 39  1  0  0  0  0
 13 40  1  0  0  0  0
 13 41  1  0  0  0  0
 13 42  1  0  0  0  0
 15 43  1  0  0  0  0
 19 44  1  0  0  0  0
M  END
> <id>
EN300-12578489

> <smiles>
CC(C)(C)OC(=O)N1CCC2(CC1)CC(O)CNC2=O

> <MDLNUMBER>
MFCD28168334

> <IUPAC Name>
tert-butyl 4-hydroxy-1-oxo-2,9-diazaspiro[5.5]undecane-9-carboxylate

> <CAS>
1822801-32-0

> <URL>
https://www.enaminestore.com/catalog/EN300-12578489

> <ROCS_ShapeQuery>
_x0404_0B

> <ROCS_TanimotoCombo>
0.391 

> <ROCS_ShapeTanimoto>
0.305 

> <ROCS_ColorTanimoto>
0.087 

> <ROCS_RefTversky>
0.275 

> <ROCS_RefColorTversky>
0.092 

> <ROCS_RefTverskyCombo>
0.367 

> <ROCS_FitTversky>
1.551 

> <ROCS_FitColorTversky>
0.585 

> <ROCS_FitTverskyCombo>
2.136 

> <ROCS_ColorScore>
-6.658

> <ROCS_Overlap>
1834.025

> <ROCS_Rank>
180                 

$$$$
untitled-dbase-32136_70
  -OEChem-08212314543D

 37 38  0     0  0  0  0  0  0999 V2000
   -9.2530    1.6720  -10.9257 C   0  0  0  0  0  0  0  0  0  0  0  0
   -9.1591    2.9146  -10.2301 C   0  0  0  0  0  0  0  0  0  0  0  0
   -9.0097    4.0926  -10.8747 C   0  0  0  0  0  0  0  0  0  0  0  0
   -9.2231    2.8843   -8.7445 C   0  0  0  0  0  0  0  0  0  0  0  0
   -8.9299    5.3422   -8.7617 C   0  0  0  0  0  0  0  0  0  0  0  0
   -8.6051    5.6182  -14.3667 C   0  0  0  0  0  0  0  0  0  0  0  0
   -8.9373    4.1130  -12.3932 C   0  0  0  0  0  0  0  0  0  0  0  0
   -8.7520    6.5544  -10.8813 C   0  0  0  0  0  0  0  0  0  0  0  0
   -9.4250    6.5504  -12.2333 C   0  0  0  0  0  0  0  0  0  0  0  0
   -7.1545    4.8350  -16.7059 C   0  0  0  0  0  0  0  0  0  0  0  0
   -9.1137    3.3418  -17.1967 C   0  0  0  0  0  0  0  0  0  0  0  0
   -9.4310    5.8316  -17.1048 C   0  0  0  0  0  0  0  0  0  0  0  0
   -8.6605    4.6414  -16.5350 C   0  0  0  0  0  0  0  0  0  0  0  0
   -9.3296    0.6621  -11.4913 N   0  0  0  0  0  0  0  0  0  0  0  0
   -9.0927    4.1131   -8.1314 N   0  0  0  0  0  0  0  0  0  0  0  0
   -8.9192    5.2924  -10.1666 N   0  0  0  0  0  0  0  0  0  0  0  0
   -8.9277    5.4358  -13.0153 N   0  0  0  0  0  0  0  0  0  0  0  0
   -9.3768    1.8341   -8.1254 O   0  0  0  0  0  0  0  0  0  0  0  0
   -8.8068    6.3768   -8.1009 O   0  0  0  0  0  0  0  0  0  0  0  0
   -8.0760    6.6287  -14.8256 O   0  0  0  0  0  0  0  0  0  0  0  0
   -8.9509    4.5376  -15.1364 O   0  0  0  0  0  0  0  0  0  0  0  0
   -8.0598    3.5296  -12.7802 H   0  0  0  0  0  0  0  0  0  0  0  0
   -9.8198    3.5612  -12.8147 H   0  0  0  0  0  0  0  0  0  0  0  0
   -7.6825    6.7918  -10.9993 H   0  0  0  0  0  0  0  0  0  0  0  0
   -9.1699    7.3480  -10.2383 H   0  0  0  0  0  0  0  0  0  0  0  0
  -10.5012    6.4570  -12.1305 H   0  0  0  0  0  0  0  0  0  0  0  0
   -9.1996    7.4662  -12.7728 H   0  0  0  0  0  0  0  0  0  0  0  0
   -6.8252    5.7668  -16.2323 H   0  0  0  0  0  0  0  0  0  0  0  0
   -6.5891    4.0048  -16.2702 H   0  0  0  0  0  0  0  0  0  0  0  0
   -6.8885    4.9163  -17.7660 H   0  0  0  0  0  0  0  0  0  0  0  0
  -10.1937    3.1988  -17.0766 H   0  0  0  0  0  0  0  0  0  0  0  0
   -8.6335    2.4761  -16.7262 H   0  0  0  0  0  0  0  0  0  0  0  0
   -8.8792    3.3297  -18.2660 H   0  0  0  0  0  0  0  0  0  0  0  0
  -10.5113    5.6929  -16.9824 H   0  0  0  0  0  0  0  0  0  0  0  0
   -9.1452    6.7685  -16.6158 H   0  0  0  0  0  0  0  0  0  0  0  0
   -9.2522    5.9321  -18.1815 H   0  0  0  0  0  0  0  0  0  0  0  0
   -9.1183    4.1213   -7.1154 H   0  0  0  0  0  0  0  0  0  0  0  0
  1  2  1  0  0  0  0
  1 14  3  0  0  0  0
  2  3  2  0  0  0  0
  2  4  1  0  0  0  0
  3  7  1  0  0  0  0
  3 16  1  0  0  0  0
  4 15  1  0  0  0  0
  4 18  2  0  0  0  0
  5 15  1  0  0  0  0
  5 16  1  0  0  0  0
  5 19  2  0  0  0  0
  6 17  1  0  0  0  0
  6 20  2  0  0  0  0
  6 21  1  0  0  0  0
  7 17  1  0  0  0  0
  8  9  1  0  0  0  0
  8 16  1  0  0  0  0
  9 17  1  0  0  0  0
 10 13  1  0  0  0  0
 11 13  1  0  0  0  0
 12 13  1  0  0  0  0
 13 21  1  0  0  0  0
  7 22  1  0  0  0  0
  7 23  1  0  0  0  0
  8 24  1  0  0  0  0
  8 25  1  0  0  0  0
  9 26  1  0  0  0  0
  9 27  1  0  0  0  0
 10 28  1  0  0  0  0
 10 29  1  0  0  0  0
 10 30  1  0  0  0  0
 11 31  1  0  0  0  0
 11 32  1  0  0  0  0
 11 33  1  0  0  0  0
 12 34  1  0  0  0  0
 12 35  1  0  0  0  0
 12 36  1  0  0  0  0
 15 37  1  0  0  0  0
M  END
> <id>
EN300-26667033

> <smiles>
CC(C)(C)OC(=O)N1CCN2C(C1)=C(C#N)C(=O)NC2=O

> <MDLNUMBER>
MFCD32692435

> <IUPAC Name>
tert-butyl 9-cyano-6,8-dioxo-1H,2H,3H,4H,6H,7H,8H-pyrimido[1,6-a]pyrazine-2-carboxylate

> <CAS>
2445785-62-4

> <Purity>
95

> <URL>
https://www.enaminestore.com/catalog/EN300-26667033

> <ROCS_ShapeQuery>
_x0404_0B

> <ROCS_TanimotoCombo>
0.391 

> <ROCS_ShapeTanimoto>
0.319 

> <ROCS_ColorTanimoto>
0.072 

> <ROCS_RefTversky>
0.287 

> <ROCS_RefColorTversky>
0.078 

> <ROCS_RefTverskyCombo>
0.365 

> <ROCS_FitTversky>
1.531 

> <ROCS_FitColorTversky>
0.494 

> <ROCS_FitTverskyCombo>
2.024 

> <ROCS_ColorScore>
-5.622

> <ROCS_Overlap>
1917.680

> <ROCS_Rank>
181                 

$$$$
untitled-dbase-15048_61
  -OEChem-08212314543D

 47 49  0     1  0  0  0  0  0999 V2000
   -8.6111    4.5870   -8.1634 C   0  0  0  0  0  0  0  0  0  0  0  0
   -8.6179    5.7472  -14.4013 C   0  0  0  0  0  0  0  0  0  0  0  0
  -10.4115    4.5685  -11.2556 C   0  0  0  0  0  0  0  0  0  0  0  0
  -10.2904    4.8501  -12.7556 C   0  0  0  0  0  0  0  0  0  0  0  0
   -8.3495    6.6180   -9.5466 C   0  0  0  0  0  0  0  0  0  0  0  0
   -8.5718    6.5048  -12.0398 C   0  0  0  0  0  0  0  0  0  0  0  0
   -9.4892    2.5987   -8.9204 C   0  0  0  0  0  0  0  0  0  0  0  0
   -8.2017    5.7041  -10.7747 C   0  0  2  0  0  0  0  0  0  0  0  0
   -9.0183    4.3912  -10.6479 C   0  0  1  0  0  0  0  0  0  0  0  0
   -9.1976    2.5763   -7.4072 C   0  0  2  0  0  0  0  0  0  0  0  0
  -10.4474    2.3377   -6.5736 C   0  0  0  0  0  0  0  0  0  0  0  0
   -6.8636    4.8139  -16.4599 C   0  0  0  0  0  0  0  0  0  0  0  0
   -8.7318    3.2583  -17.0918 C   0  0  0  0  0  0  0  0  0  0  0  0
   -9.0714    5.7429  -17.2326 C   0  0  0  0  0  0  0  0  0  0  0  0
   -8.3779    4.6105  -16.4766 C   0  0  0  0  0  0  0  0  0  0  0  0
   -8.6237    3.9091   -7.0404 N   0  0  0  0  0  0  0  0  0  0  0  0
   -8.1545    5.8669   -8.3268 N   0  0  0  0  0  0  0  0  0  0  0  0
   -9.0922    3.9395   -9.2702 N   0  0  0  0  0  0  0  0  0  0  0  0
   -9.1170    5.6610  -13.0977 N   0  0  0  0  0  0  0  0  0  0  0  0
   -8.0375    6.7287  -14.8607 O   0  0  0  0  0  0  0  0  0  0  0  0
   -8.8521    4.6071  -15.1252 O   0  0  0  0  0  0  0  0  0  0  0  0
  -10.9425    5.3946  -10.7820 H   0  0  0  0  0  0  0  0  0  0  0  0
  -11.0051    3.6661  -11.1144 H   0  0  0  0  0  0  0  0  0  0  0  0
  -10.2022    3.9022  -13.3154 H   0  0  0  0  0  0  0  0  0  0  0  0
  -11.2130    5.3359  -13.1156 H   0  0  0  0  0  0  0  0  0  0  0  0
   -7.6136    7.4309   -9.5936 H   0  0  0  0  0  0  0  0  0  0  0  0
   -9.3411    7.0867   -9.5165 H   0  0  0  0  0  0  0  0  0  0  0  0
   -9.2577    7.3212  -11.7752 H   0  0  0  0  0  0  0  0  0  0  0  0
   -7.6674    6.9819  -12.4484 H   0  0  0  0  0  0  0  0  0  0  0  0
   -8.8864    1.8518   -9.4494 H   0  0  0  0  0  0  0  0  0  0  0  0
  -10.5476    2.4233   -9.1442 H   0  0  0  0  0  0  0  0  0  0  0  0
   -7.1342    5.4469  -10.8632 H   0  0  0  0  0  0  0  0  0  0  0  0
   -8.4891    3.6177  -11.2508 H   0  0  0  0  0  0  0  0  0  0  0  0
   -8.4495    1.8097   -7.1803 H   0  0  0  0  0  0  0  0  0  0  0  0
  -11.1979    3.0984   -6.7945 H   0  0  0  0  0  0  0  0  0  0  0  0
  -10.2048    2.3825   -5.5106 H   0  0  0  0  0  0  0  0  0  0  0  0
  -10.8668    1.3554   -6.7970 H   0  0  0  0  0  0  0  0  0  0  0  0
   -6.6054    5.7834  -16.0190 H   0  0  0  0  0  0  0  0  0  0  0  0
   -6.3571    4.0273  -15.8911 H   0  0  0  0  0  0  0  0  0  0  0  0
   -6.4586    4.8198  -17.4784 H   0  0  0  0  0  0  0  0  0  0  0  0
   -9.8173    3.1082  -17.1057 H   0  0  0  0  0  0  0  0  0  0  0  0
   -8.3143    2.4377  -16.4972 H   0  0  0  0  0  0  0  0  0  0  0  0
   -8.3564    3.1700  -18.1164 H   0  0  0  0  0  0  0  0  0  0  0  0
  -10.1576    5.5972  -17.2446 H   0  0  0  0  0  0  0  0  0  0  0  0
   -8.8585    6.7180  -16.7826 H   0  0  0  0  0  0  0  0  0  0  0  0
   -8.7508    5.7655  -18.2804 H   0  0  0  0  0  0  0  0  0  0  0  0
   -7.7269    6.3463   -7.5474 H   0  0  0  0  0  0  0  0  0  0  0  0
  1 16  2  0  0  0  0
  1 17  1  0  0  0  0
  1 18  1  0  0  0  0
  2 19  1  0  0  0  0
  2 20  2  0  0  0  0
  2 21  1  0  0  0  0
  3  4  1  0  0  0  0
  3  9  1  0  0  0  0
  4 19  1  0  0  0  0
  5  8  1  0  0  0  0
  5 17  1  0  0  0  0
  6  8  1  0  0  0  0
  6 19  1  0  0  0  0
  7 10  1  0  0  0  0
  7 18  1  0  0  0  0
  8  9  1  0  0  0  0
  9 18  1  0  0  0  0
 10 11  1  0  0  0  0
 10 16  1  0  0  0  0
 12 15  1  0  0  0  0
 13 15  1  0  0  0  0
 14 15  1  0  0  0  0
 15 21  1  0  0  0  0
  3 22  1  0  0  0  0
  3 23  1  0  0  0  0
  4 24  1  0  0  0  0
  4 25  1  0  0  0  0
  5 26  1  0  0  0  0
  5 27  1  0  0  0  0
  6 28  1  0  0  0  0
  6 29  1  0  0  0  0
  7 30  1  0  0  0  0
  7 31  1  0  0  0  0
  8 32  1  0  0  0  0
  9 33  1  0  0  0  0
 10 34  1  0  0  0  0
 11 35  1  0  0  0  0
 11 36  1  0  0  0  0
 11 37  1  0  0  0  0
 12 38  1  0  0  0  0
 12 39  1  0  0  0  0
 12 40  1  0  0  0  0
 13 41  1  0  0  0  0
 13 42  1  0  0  0  0
 13 43  1  0  0  0  0
 14 44  1  0  0  0  0
 14 45  1  0  0  0  0
 14 46  1  0  0  0  0
 17 47  1  0  0  0  0
M  END
> <id>
EN300-1119487

> <smiles>
CC1CN2C3CCN(CC3CNC2=N1)C(=O)OC(C)(C)C

> <IUPAC Name>
tert-butyl 4-methyl-2,5,7,11-tetraazatricyclo[7.4.0.0,2,6]tridec-5-ene-11-carboxylate

> <CAS>
1700405-49-7

> <URL>
https://www.enaminestore.com/catalog/EN300-1119487

> <ROCS_ShapeQuery>
_x0404_0B

> <ROCS_TanimotoCombo>
0.391 

> <ROCS_ShapeTanimoto>
0.323 

> <ROCS_ColorTanimoto>
0.068 

> <ROCS_RefTversky>
0.290 

> <ROCS_RefColorTversky>
0.073 

> <ROCS_RefTverskyCombo>
0.363 

> <ROCS_FitTversky>
1.551 

> <ROCS_FitColorTversky>
0.504 

> <ROCS_FitTverskyCombo>
2.055 

> <ROCS_ColorScore>
-5.267

> <ROCS_Overlap>
1934.179

> <ROCS_Rank>
182                 

$$$$
untitled-dbase-20326_70
  -OEChem-08212314543D

 45 47  0     1  0  0  0  0  0999 V2000
   -9.4546    2.6072   -8.8765 C   0  0  0  0  0  0  0  0  0  0  0  0
   -9.2295    2.5852   -7.5209 C   0  0  0  0  0  0  0  0  0  0  0  0
   -8.5995    4.5263   -8.1666 C   0  0  0  0  0  0  0  0  0  0  0  0
   -8.6203    5.7461  -14.3818 C   0  0  0  0  0  0  0  0  0  0  0  0
  -10.4125    4.5414  -11.2466 C   0  0  0  0  0  0  0  0  0  0  0  0
  -10.2896    4.8300  -12.7437 C   0  0  0  0  0  0  0  0  0  0  0  0
   -8.3236    6.5386   -9.5125 C   0  0  0  0  0  0  0  0  0  0  0  0
   -8.5653    6.4728  -12.0104 C   0  0  0  0  0  0  0  0  0  0  0  0
   -8.1871    5.6511  -10.7624 C   0  0  2  0  0  0  0  0  0  0  0  0
   -9.0191    4.3486  -10.6382 C   0  0  1  0  0  0  0  0  0  0  0  0
   -9.4872    1.4908   -6.5731 C   0  0  0  0  0  0  0  0  0  0  0  0
   -6.8703    4.8356  -16.4545 C   0  0  0  0  0  0  0  0  0  0  0  0
   -8.7401    3.2875  -17.0997 C   0  0  0  0  0  0  0  0  0  0  0  0
   -9.0796    5.7735  -17.2121 C   0  0  0  0  0  0  0  0  0  0  0  0
   -8.3847    4.6327  -16.4702 C   0  0  0  0  0  0  0  0  0  0  0  0
   -8.6935    3.7724   -7.0890 N   0  0  0  0  0  0  0  0  0  0  0  0
   -9.0596    3.8531   -9.2719 N   0  0  0  0  0  0  0  0  0  0  0  0
   -8.1147    5.7795   -8.2955 N   0  0  0  0  0  0  0  0  0  0  0  0
   -9.1166    5.6450  -13.0783 N   0  0  0  0  0  0  0  0  0  0  0  0
   -8.0407    6.7327  -14.8313 O   0  0  0  0  0  0  0  0  0  0  0  0
   -8.8561    4.6142  -15.1180 O   0  0  0  0  0  0  0  0  0  0  0  0
   -9.8507    1.8745   -9.5675 H   0  0  0  0  0  0  0  0  0  0  0  0
  -10.9375    5.3647  -10.7631 H   0  0  0  0  0  0  0  0  0  0  0  0
  -11.0145    3.6457  -11.1014 H   0  0  0  0  0  0  0  0  0  0  0  0
  -10.1997    3.8850  -13.3087 H   0  0  0  0  0  0  0  0  0  0  0  0
  -11.2124    5.3172  -13.1030 H   0  0  0  0  0  0  0  0  0  0  0  0
   -7.5889    7.3551   -9.5544 H   0  0  0  0  0  0  0  0  0  0  0  0
   -9.3146    7.0127   -9.4688 H   0  0  0  0  0  0  0  0  0  0  0  0
   -9.2500    7.2838  -11.7293 H   0  0  0  0  0  0  0  0  0  0  0  0
   -7.6638    6.9557  -12.4164 H   0  0  0  0  0  0  0  0  0  0  0  0
   -7.1247    5.3900  -10.8608 H   0  0  0  0  0  0  0  0  0  0  0  0
   -8.4928    3.5669  -11.2392 H   0  0  0  0  0  0  0  0  0  0  0  0
   -8.6102    0.8268   -6.4769 H   0  0  0  0  0  0  0  0  0  0  0  0
   -9.7335    1.8621   -5.5615 H   0  0  0  0  0  0  0  0  0  0  0  0
  -10.3447    0.8640   -6.8797 H   0  0  0  0  0  0  0  0  0  0  0  0
   -6.6111    5.8001  -16.0033 H   0  0  0  0  0  0  0  0  0  0  0  0
   -6.3628    4.0427  -15.8955 H   0  0  0  0  0  0  0  0  0  0  0  0
   -6.4675    4.8528  -17.4736 H   0  0  0  0  0  0  0  0  0  0  0  0
   -9.8257    3.1376  -17.1131 H   0  0  0  0  0  0  0  0  0  0  0  0
   -8.3215    2.4602  -16.5151 H   0  0  0  0  0  0  0  0  0  0  0  0
   -8.3668    3.2105  -18.1260 H   0  0  0  0  0  0  0  0  0  0  0  0
  -10.1659    5.6281  -17.2236 H   0  0  0  0  0  0  0  0  0  0  0  0
   -8.8656    6.7435  -16.7518 H   0  0  0  0  0  0  0  0  0  0  0  0
   -8.7612    5.8076  -18.2603 H   0  0  0  0  0  0  0  0  0  0  0  0
   -7.6696    6.2513   -7.5200 H   0  0  0  0  0  0  0  0  0  0  0  0
  1  2  2  0  0  0  0
  1 17  1  0  0  0  0
  2 11  1  0  0  0  0
  2 16  1  0  0  0  0
  3 16  2  0  0  0  0
  3 17  1  0  0  0  0
  3 18  1  0  0  0  0
  4 19  1  0  0  0  0
  4 20  2  0  0  0  0
  4 21  1  0  0  0  0
  5  6  1  0  0  0  0
  5 10  1  0  0  0  0
  6 19  1  0  0  0  0
  7  9  1  0  0  0  0
  7 18  1  0  0  0  0
  8  9  1  0  0  0  0
  8 19  1  0  0  0  0
  9 10  1  0  0  0  0
 10 17  1  0  0  0  0
 12 15  1  0  0  0  0
 13 15  1  0  0  0  0
 14 15  1  0  0  0  0
 15 21  1  0  0  0  0
  1 22  1  0  0  0  0
  5 23  1  0  0  0  0
  5 24  1  0  0  0  0
  6 25  1  0  0  0  0
  6 26  1  0  0  0  0
  7 27  1  0  0  0  0
  7 28  1  0  0  0  0
  8 29  1  0  0  0  0
  8 30  1  0  0  0  0
  9 31  1  0  0  0  0
 10 32  1  0  0  0  0
 11 33  1  0  0  0  0
 11 34  1  0  0  0  0
 11 35  1  0  0  0  0
 12 36  1  0  0  0  0
 12 37  1  0  0  0  0
 12 38  1  0  0  0  0
 13 39  1  0  0  0  0
 13 40  1  0  0  0  0
 13 41  1  0  0  0  0
 14 42  1  0  0  0  0
 14 43  1  0  0  0  0
 14 44  1  0  0  0  0
 18 45  1  0  0  0  0
M  END
> <id>
EN300-1118517

> <smiles>
CC1=CN2C3CCN(CC3CNC2=N1)C(=O)OC(C)(C)C

> <IUPAC Name>
tert-butyl 4-methyl-2,5,7,11-tetraazatricyclo[7.4.0.0,2,6]trideca-3,5-diene-11-carboxylate

> <CAS>
1692300-13-2

> <URL>
https://www.enaminestore.com/catalog/EN300-1118517

> <ROCS_ShapeQuery>
_x0404_0B

> <ROCS_TanimotoCombo>
0.391 

> <ROCS_ShapeTanimoto>
0.322 

> <ROCS_ColorTanimoto>
0.069 

> <ROCS_RefTversky>
0.290 

> <ROCS_RefColorTversky>
0.075 

> <ROCS_RefTverskyCombo>
0.364 

> <ROCS_FitTversky>
1.536 

> <ROCS_FitColorTversky>
0.472 

> <ROCS_FitTverskyCombo>
2.008 

> <ROCS_ColorScore>
-5.383

> <ROCS_Overlap>
1933.224

> <ROCS_Rank>
183                 

$$$$
untitled-dbase-18098_2
  -OEChem-08212314543D

 37 38  0     0  0  0  0  0  0999 V2000
   -8.3069    5.4106   -8.8532 C   0  0  0  0  0  0  0  0  0  0  0  0
   -8.5786    4.2352   -8.1539 C   0  0  0  0  0  0  0  0  0  0  0  0
   -9.3099    3.1868  -10.2016 C   0  0  0  0  0  0  0  0  0  0  0  0
   -8.5455    5.4872  -10.2321 C   0  0  0  0  0  0  0  0  0  0  0  0
   -9.0368    4.3616  -10.9172 C   0  0  0  0  0  0  0  0  0  0  0  0
   -9.0824    3.1251   -8.8269 C   0  0  0  0  0  0  0  0  0  0  0  0
   -8.5769    5.7262  -14.4168 C   0  0  0  0  0  0  0  0  0  0  0  0
   -8.2221    6.7534  -10.9810 C   0  0  0  0  0  0  0  0  0  0  0  0
   -9.2915    4.3909  -12.4044 C   0  0  0  0  0  0  0  0  0  0  0  0
   -9.0393    6.8639  -12.2622 C   0  0  0  0  0  0  0  0  0  0  0  0
   -6.9102    4.9879  -16.6226 C   0  0  0  0  0  0  0  0  0  0  0  0
   -8.4999    3.0697  -16.9433 C   0  0  0  0  0  0  0  0  0  0  0  0
   -9.3268    5.4305  -17.1690 C   0  0  0  0  0  0  0  0  0  0  0  0
   -8.3492    4.5056  -16.4455 C   0  0  0  0  0  0  0  0  0  0  0  0
   -8.9062    5.6472  -13.0593 N   0  0  0  0  0  0  0  0  0  0  0  0
   -8.2508    6.7619  -14.9935 O   0  0  0  0  0  0  0  0  0  0  0  0
   -9.3566    1.9811   -8.1426 O   0  0  0  0  0  0  0  0  0  0  0  0
   -8.6636    4.5130  -15.0482 O   0  0  0  0  0  0  0  0  0  0  0  0
   -7.9062    6.2674   -8.3173 H   0  0  0  0  0  0  0  0  0  0  0  0
   -8.3964    4.1924   -7.0835 H   0  0  0  0  0  0  0  0  0  0  0  0
   -9.7056    2.3163  -10.7201 H   0  0  0  0  0  0  0  0  0  0  0  0
   -8.4247    7.6115  -10.3287 H   0  0  0  0  0  0  0  0  0  0  0  0
   -7.1571    6.7733  -11.2406 H   0  0  0  0  0  0  0  0  0  0  0  0
   -8.7078    3.5973  -12.8860 H   0  0  0  0  0  0  0  0  0  0  0  0
  -10.3535    4.1973  -12.5900 H   0  0  0  0  0  0  0  0  0  0  0  0
  -10.0888    7.0594  -12.0197 H   0  0  0  0  0  0  0  0  0  0  0  0
   -8.6854    7.6971  -12.8822 H   0  0  0  0  0  0  0  0  0  0  0  0
   -6.7979    6.0182  -16.2665 H   0  0  0  0  0  0  0  0  0  0  0  0
   -6.2023    4.3531  -16.0797 H   0  0  0  0  0  0  0  0  0  0  0  0
   -6.6275    4.9943  -17.6816 H   0  0  0  0  0  0  0  0  0  0  0  0
   -9.5309    2.7196  -16.8181 H   0  0  0  0  0  0  0  0  0  0  0  0
   -7.8693    2.3870  -16.3623 H   0  0  0  0  0  0  0  0  0  0  0  0
   -8.2285    2.9779  -17.9999 H   0  0  0  0  0  0  0  0  0  0  0  0
  -10.3591    5.0848  -17.0421 H   0  0  0  0  0  0  0  0  0  0  0  0
   -9.2587    6.4585  -16.7986 H   0  0  0  0  0  0  0  0  0  0  0  0
   -9.1328    5.4355  -18.2477 H   0  0  0  0  0  0  0  0  0  0  0  0
   -9.1501    2.0944   -7.2012 H   0  0  0  0  0  0  0  0  0  0  0  0
  1  2  1  0  0  0  0
  1  4  2  0  0  0  0
  2  6  2  0  0  0  0
  3  5  2  0  0  0  0
  3  6  1  0  0  0  0
  4  5  1  0  0  0  0
  4  8  1  0  0  0  0
  5  9  1  0  0  0  0
  6 17  1  0  0  0  0
  7 15  1  0  0  0  0
  7 16  2  0  0  0  0
  7 18  1  0  0  0  0
  8 10  1  0  0  0  0
  9 15  1  0  0  0  0
 10 15  1  0  0  0  0
 11 14  1  0  0  0  0
 12 14  1  0  0  0  0
 13 14  1  0  0  0  0
 14 18  1  0  0  0  0
  1 19  1  0  0  0  0
  2 20  1  0  0  0  0
  3 21  1  0  0  0  0
  8 22  1  0  0  0  0
  8 23  1  0  0  0  0
  9 24  1  0  0  0  0
  9 25  1  0  0  0  0
 10 26  1  0  0  0  0
 10 27  1  0  0  0  0
 11 28  1  0  0  0  0
 11 29  1  0  0  0  0
 11 30  1  0  0  0  0
 12 31  1  0  0  0  0
 12 32  1  0  0  0  0
 12 33  1  0  0  0  0
 13 34  1  0  0  0  0
 13 35  1  0  0  0  0
 13 36  1  0  0  0  0
 17 37  1  0  0  0  0
M  END
> <id>
EN300-113404

> <smiles>
CC(C)(C)OC(=O)N1CCC=2C=CC(O)=CC2C1

> <MDLNUMBER>
MFCD08275036

> <IUPAC Name>
tert-butyl 7-hydroxy-1,2,3,4-tetrahydroisoquinoline-2-carboxylate

> <CAS>
188576-49-0

> <Purity>
95

> <URL>
https://www.enaminestore.com/catalog/EN300-113404

> <MP>
140-142

> <ROCS_ShapeQuery>
_x0404_0B

> <ROCS_TanimotoCombo>
0.391 

> <ROCS_ShapeTanimoto>
0.306 

> <ROCS_ColorTanimoto>
0.085 

> <ROCS_RefTversky>
0.273 

> <ROCS_RefColorTversky>
0.089 

> <ROCS_RefTverskyCombo>
0.362 

> <ROCS_FitTversky>
1.642 

> <ROCS_FitColorTversky>
0.673 

> <ROCS_FitTverskyCombo>
2.315 

> <ROCS_ColorScore>
-6.384

> <ROCS_Overlap>
1821.284

> <ROCS_Rank>
184                 

$$$$
untitled-dbase-29394_1
  -OEChem-08212314543D

 37 38  0     0  0  0  0  0  0999 V2000
   -8.2938    5.3833   -8.8633 C   0  0  0  0  0  0  0  0  0  0  0  0
   -8.5739    4.2063   -8.1699 C   0  0  0  0  0  0  0  0  0  0  0  0
   -8.5384    5.4710  -10.2405 C   0  0  0  0  0  0  0  0  0  0  0  0
   -9.0443    4.3547  -10.9302 C   0  0  0  0  0  0  0  0  0  0  0  0
   -9.0921    3.1056   -8.8473 C   0  0  0  0  0  0  0  0  0  0  0  0
   -9.3258    3.1782  -10.2205 C   0  0  0  0  0  0  0  0  0  0  0  0
   -8.5878    5.7365  -14.4234 C   0  0  0  0  0  0  0  0  0  0  0  0
   -8.2059    6.7385  -10.9830 C   0  0  0  0  0  0  0  0  0  0  0  0
   -9.3059    4.3958  -12.4158 C   0  0  0  0  0  0  0  0  0  0  0  0
   -9.0282    6.8652  -12.2595 C   0  0  0  0  0  0  0  0  0  0  0  0
   -6.9393    4.9953  -16.6420 C   0  0  0  0  0  0  0  0  0  0  0  0
   -8.5498    3.0953  -16.9667 C   0  0  0  0  0  0  0  0  0  0  0  0
   -9.3540    5.4657  -17.1736 C   0  0  0  0  0  0  0  0  0  0  0  0
   -8.3822    4.5264  -16.4607 C   0  0  0  0  0  0  0  0  0  0  0  0
   -8.9112    5.6523  -13.0648 N   0  0  0  0  0  0  0  0  0  0  0  0
   -8.2541    6.7725  -14.9953 O   0  0  0  0  0  0  0  0  0  0  0  0
   -9.3587    1.9774   -8.1289 O   0  0  0  0  0  0  0  0  0  0  0  0
   -8.6897    4.5283  -15.0619 O   0  0  0  0  0  0  0  0  0  0  0  0
  -10.0277    1.6252  -11.0881 Br  0  0  0  0  0  0  0  0  0  0  0  0
   -7.8818    6.2325   -8.3238 H   0  0  0  0  0  0  0  0  0  0  0  0
   -8.3862    4.1567   -7.1007 H   0  0  0  0  0  0  0  0  0  0  0  0
   -8.3962    7.5943  -10.3242 H   0  0  0  0  0  0  0  0  0  0  0  0
   -7.1420    6.7490  -11.2480 H   0  0  0  0  0  0  0  0  0  0  0  0
   -8.7323    3.6064  -12.9159 H   0  0  0  0  0  0  0  0  0  0  0  0
  -10.3726    4.2367  -12.6045 H   0  0  0  0  0  0  0  0  0  0  0  0
  -10.0744    7.0699  -12.0105 H   0  0  0  0  0  0  0  0  0  0  0  0
   -8.6690    7.6987  -12.8760 H   0  0  0  0  0  0  0  0  0  0  0  0
   -6.8149    6.0222  -16.2800 H   0  0  0  0  0  0  0  0  0  0  0  0
   -6.2352    4.3501  -16.1065 H   0  0  0  0  0  0  0  0  0  0  0  0
   -6.6617    5.0056  -17.7022 H   0  0  0  0  0  0  0  0  0  0  0  0
   -9.5836    2.7547  -16.8386 H   0  0  0  0  0  0  0  0  0  0  0  0
   -7.9233    2.4026  -16.3931 H   0  0  0  0  0  0  0  0  0  0  0  0
   -8.2845    3.0074  -18.0252 H   0  0  0  0  0  0  0  0  0  0  0  0
  -10.3891    5.1295  -17.0438 H   0  0  0  0  0  0  0  0  0  0  0  0
   -9.2737    6.4906  -16.7972 H   0  0  0  0  0  0  0  0  0  0  0  0
   -9.1652    5.4754  -18.2532 H   0  0  0  0  0  0  0  0  0  0  0  0
   -9.7129    1.2874   -8.7107 H   0  0  0  0  0  0  0  0  0  0  0  0
  1  2  1  0  0  0  0
  1  3  2  0  0  0  0
  2  5  2  0  0  0  0
  3  4  1  0  0  0  0
  3  8  1  0  0  0  0
  4  6  2  0  0  0  0
  4  9  1  0  0  0  0
  5  6  1  0  0  0  0
  5 17  1  0  0  0  0
  6 19  1  0  0  0  0
  7 15  1  0  0  0  0
  7 16  2  0  0  0  0
  7 18  1  0  0  0  0
  8 10  1  0  0  0  0
  9 15  1  0  0  0  0
 10 15  1  0  0  0  0
 11 14  1  0  0  0  0
 12 14  1  0  0  0  0
 13 14  1  0  0  0  0
 14 18  1  0  0  0  0
  1 20  1  0  0  0  0
  2 21  1  0  0  0  0
  8 22  1  0  0  0  0
  8 23  1  0  0  0  0
  9 24  1  0  0  0  0
  9 25  1  0  0  0  0
 10 26  1  0  0  0  0
 10 27  1  0  0  0  0
 11 28  1  0  0  0  0
 11 29  1  0  0  0  0
 11 30  1  0  0  0  0
 12 31  1  0  0  0  0
 12 32  1  0  0  0  0
 12 33  1  0  0  0  0
 13 34  1  0  0  0  0
 13 35  1  0  0  0  0
 13 36  1  0  0  0  0
 17 37  1  0  0  0  0
M  END
> <id>
EN300-37100342

> <smiles>
CC(C)(C)OC(=O)N1CCC=2C=CC(O)=C(Br)C2C1

> <IUPAC Name>
tert-butyl 8-bromo-7-hydroxy-1,2,3,4-tetrahydroisoquinoline-2-carboxylate

> <CAS>
2757959-06-9

> <URL>
https://www.enaminestore.com/catalog/EN300-37100342

> <ROCS_ShapeQuery>
_x0404_0B

> <ROCS_TanimotoCombo>
0.390 

> <ROCS_ShapeTanimoto>
0.307 

> <ROCS_ColorTanimoto>
0.083 

> <ROCS_RefTversky>
0.275 

> <ROCS_RefColorTversky>
0.088 

> <ROCS_RefTverskyCombo>
0.363 

> <ROCS_FitTversky>
1.608 

> <ROCS_FitColorTversky>
0.609 

> <ROCS_FitTverskyCombo>
2.217 

> <ROCS_ColorScore>
-6.351

> <ROCS_Overlap>
1834.388

> <ROCS_Rank>
185                 

$$$$
untitled-dbase-49797_2
  -OEChem-08212314543D

 38 39  0     0  0  0  0  0  0999 V2000
   -8.3118    5.4433   -8.8647 C   0  0  0  0  0  0  0  0  0  0  0  0
   -8.5803    4.2697   -8.1612 C   0  0  0  0  0  0  0  0  0  0  0  0
   -9.3051    3.2108  -10.2057 C   0  0  0  0  0  0  0  0  0  0  0  0
   -8.5488    5.5137  -10.2442 C   0  0  0  0  0  0  0  0  0  0  0  0
   -9.0352    4.3837  -10.9256 C   0  0  0  0  0  0  0  0  0  0  0  0
   -9.0792    3.1552   -8.8305 C   0  0  0  0  0  0  0  0  0  0  0  0
   -8.5753    5.7362  -14.4299 C   0  0  0  0  0  0  0  0  0  0  0  0
   -8.2288    6.7781  -10.9976 C   0  0  0  0  0  0  0  0  0  0  0  0
   -9.2879    4.4063  -12.4132 C   0  0  0  0  0  0  0  0  0  0  0  0
   -9.0446    6.8807  -12.2803 C   0  0  0  0  0  0  0  0  0  0  0  0
   -6.9029    4.9952  -16.6305 C   0  0  0  0  0  0  0  0  0  0  0  0
   -8.4854    3.0702  -16.9458 C   0  0  0  0  0  0  0  0  0  0  0  0
   -9.3203    5.4272  -17.1819 C   0  0  0  0  0  0  0  0  0  0  0  0
   -8.3405    4.5085  -16.4534 C   0  0  0  0  0  0  0  0  0  0  0  0
   -8.9062    5.6614  -13.0725 N   0  0  0  0  0  0  0  0  0  0  0  0
   -9.3595    1.9710   -8.1172 N   0  0  0  0  0  0  0  0  0  0  0  0
   -8.2520    6.7709  -15.0102 O   0  0  0  0  0  0  0  0  0  0  0  0
   -8.6568    4.5203  -15.0566 O   0  0  0  0  0  0  0  0  0  0  0  0
   -7.9154    6.3036   -8.3312 H   0  0  0  0  0  0  0  0  0  0  0  0
   -8.3980    4.2364   -7.0901 H   0  0  0  0  0  0  0  0  0  0  0  0
   -9.6965    2.3387  -10.7258 H   0  0  0  0  0  0  0  0  0  0  0  0
   -8.4353    7.6378  -10.3486 H   0  0  0  0  0  0  0  0  0  0  0  0
   -7.1635    6.8007  -11.2556 H   0  0  0  0  0  0  0  0  0  0  0  0
   -8.7009    3.6125  -12.8904 H   0  0  0  0  0  0  0  0  0  0  0  0
  -10.3487    4.2075  -12.5999 H   0  0  0  0  0  0  0  0  0  0  0  0
  -10.0951    7.0734  -12.0399 H   0  0  0  0  0  0  0  0  0  0  0  0
   -8.6932    7.7128  -12.9032 H   0  0  0  0  0  0  0  0  0  0  0  0
   -6.7947    6.0272  -16.2782 H   0  0  0  0  0  0  0  0  0  0  0  0
   -6.1935    4.3651  -16.0842 H   0  0  0  0  0  0  0  0  0  0  0  0
   -6.6188    4.9985  -17.6891 H   0  0  0  0  0  0  0  0  0  0  0  0
   -9.5154    2.7169  -16.8206 H   0  0  0  0  0  0  0  0  0  0  0  0
   -7.8533    2.3920  -16.3613 H   0  0  0  0  0  0  0  0  0  0  0  0
   -8.2123    2.9752  -18.0017 H   0  0  0  0  0  0  0  0  0  0  0  0
  -10.3516    5.0783  -17.0550 H   0  0  0  0  0  0  0  0  0  0  0  0
   -9.2563    6.4569  -16.8154 H   0  0  0  0  0  0  0  0  0  0  0  0
   -9.1249    5.4286  -18.2603 H   0  0  0  0  0  0  0  0  0  0  0  0
   -9.1513    1.9293   -7.1402 H   0  0  0  0  0  0  0  0  0  0  0  0
   -9.6726    1.1635   -8.6170 H   0  0  0  0  0  0  0  0  0  0  0  0
  1  2  1  0  0  0  0
  1  4  2  0  0  0  0
  2  6  2  0  0  0  0
  3  5  2  0  0  0  0
  3  6  1  0  0  0  0
  4  5  1  0  0  0  0
  4  8  1  0  0  0  0
  5  9  1  0  0  0  0
  6 16  1  0  0  0  0
  7 15  1  0  0  0  0
  7 17  2  0  0  0  0
  7 18  1  0  0  0  0
  8 10  1  0  0  0  0
  9 15  1  0  0  0  0
 10 15  1  0  0  0  0
 11 14  1  0  0  0  0
 12 14  1  0  0  0  0
 13 14  1  0  0  0  0
 14 18  1  0  0  0  0
  1 19  1  0  0  0  0
  2 20  1  0  0  0  0
  3 21  1  0  0  0  0
  8 22  1  0  0  0  0
  8 23  1  0  0  0  0
  9 24  1  0  0  0  0
  9 25  1  0  0  0  0
 10 26  1  0  0  0  0
 10 27  1  0  0  0  0
 11 28  1  0  0  0  0
 11 29  1  0  0  0  0
 11 30  1  0  0  0  0
 12 31  1  0  0  0  0
 12 32  1  0  0  0  0
 12 33  1  0  0  0  0
 13 34  1  0  0  0  0
 13 35  1  0  0  0  0
 13 36  1  0  0  0  0
 16 37  1  0  0  0  0
 16 38  1  0  0  0  0
M  END
> <id>
EN300-73488

> <smiles>
CC(C)(C)OC(=O)N1CCC=2C=CC(N)=CC2C1

> <MDLNUMBER>
MFCD04973401

> <IUPAC Name>
tert-butyl 7-amino-1,2,3,4-tetrahydroisoquinoline-2-carboxylate

> <CAS>
171049-41-5

> <Purity>
95

> <URL>
https://www.enaminestore.com/catalog/EN300-73488

> <ROCS_ShapeQuery>
_x0404_0B

> <ROCS_TanimotoCombo>
0.390 

> <ROCS_ShapeTanimoto>
0.306 

> <ROCS_ColorTanimoto>
0.084 

> <ROCS_RefTversky>
0.273 

> <ROCS_RefColorTversky>
0.088 

> <ROCS_RefTverskyCombo>
0.361 

> <ROCS_FitTversky>
1.645 

> <ROCS_FitColorTversky>
0.669 

> <ROCS_FitTverskyCombo>
2.313 

> <ROCS_ColorScore>
-6.341

> <ROCS_Overlap>
1821.694

> <ROCS_Rank>
186                 

$$$$
untitled-dbase-14669_128
  -OEChem-08212314543D

 45 47  0     0  0  0  0  0  0999 V2000
   -9.0995    2.8374   -9.4073 C   0  0  0  0  0  0  0  0  0  0  0  0
   -9.1028    2.1018   -8.2417 C   0  0  0  0  0  0  0  0  0  0  0  0
   -9.0375    4.2494   -9.1673 C   0  0  0  0  0  0  0  0  0  0  0  0
   -8.9822    4.5045   -7.8094 C   0  0  0  0  0  0  0  0  0  0  0  0
   -8.6607    5.6897  -14.5711 C   0  0  0  0  0  0  0  0  0  0  0  0
   -8.9171    5.8712   -7.2159 C   0  0  0  0  0  0  0  0  0  0  0  0
   -7.6263    5.3668  -10.9401 C   0  0  0  0  0  0  0  0  0  0  0  0
  -10.1593    5.1963  -11.2480 C   0  0  0  0  0  0  0  0  0  0  0  0
   -8.4918    6.8730   -8.2956 C   0  0  0  0  0  0  0  0  0  0  0  0
   -7.6767    6.0688  -12.2935 C   0  0  0  0  0  0  0  0  0  0  0  0
   -9.6969    4.6215  -12.5852 C   0  0  0  0  0  0  0  0  0  0  0  0
   -9.0002    5.3606  -10.2148 C   0  0  0  0  0  0  0  0  0  0  0  0
   -7.7512    4.9828  -17.1897 C   0  0  0  0  0  0  0  0  0  0  0  0
   -9.7561    3.4724  -17.2781 C   0  0  0  0  0  0  0  0  0  0  0  0
  -10.0690    5.9543  -17.0543 C   0  0  0  0  0  0  0  0  0  0  0  0
   -9.1811    4.7628  -16.6982 C   0  0  0  0  0  0  0  0  0  0  0  0
   -9.2407    6.6748   -9.5456 N   0  0  0  0  0  0  0  0  0  0  0  0
   -8.6672    5.4666  -13.1908 N   0  0  0  0  0  0  0  0  0  0  0  0
   -8.2543    6.7191  -15.1064 O   0  0  0  0  0  0  0  0  0  0  0  0
   -9.1566    4.6222  -15.2732 O   0  0  0  0  0  0  0  0  0  0  0  0
   -9.0258    3.0993   -6.8548 S   0  0  0  0  0  0  0  0  0  0  0  0
   -9.1375    2.3797  -10.3876 H   0  0  0  0  0  0  0  0  0  0  0  0
   -9.1447    1.0265   -8.1413 H   0  0  0  0  0  0  0  0  0  0  0  0
   -9.9072    6.1414   -6.8281 H   0  0  0  0  0  0  0  0  0  0  0  0
   -8.2083    5.9097   -6.3811 H   0  0  0  0  0  0  0  0  0  0  0  0
   -7.2926    4.3321  -11.0997 H   0  0  0  0  0  0  0  0  0  0  0  0
   -6.8517    5.8302  -10.3183 H   0  0  0  0  0  0  0  0  0  0  0  0
  -10.6598    6.1596  -11.4164 H   0  0  0  0  0  0  0  0  0  0  0  0
  -10.9301    4.5288  -10.8402 H   0  0  0  0  0  0  0  0  0  0  0  0
   -8.6726    7.8914   -7.9326 H   0  0  0  0  0  0  0  0  0  0  0  0
   -7.4136    6.8053   -8.4817 H   0  0  0  0  0  0  0  0  0  0  0  0
   -7.9460    7.1282  -12.1789 H   0  0  0  0  0  0  0  0  0  0  0  0
   -6.6813    6.0467  -12.7563 H   0  0  0  0  0  0  0  0  0  0  0  0
   -9.3345    3.6014  -12.4324 H   0  0  0  0  0  0  0  0  0  0  0  0
  -10.5276    4.5620  -13.2974 H   0  0  0  0  0  0  0  0  0  0  0  0
   -7.3348    5.9082  -16.7757 H   0  0  0  0  0  0  0  0  0  0  0  0
   -7.0961    4.1512  -16.9102 H   0  0  0  0  0  0  0  0  0  0  0  0
   -7.7250    5.0927  -18.2799 H   0  0  0  0  0  0  0  0  0  0  0  0
  -10.7820    3.3105  -16.9280 H   0  0  0  0  0  0  0  0  0  0  0  0
   -9.1763    2.6033  -16.9468 H   0  0  0  0  0  0  0  0  0  0  0  0
   -9.7618    3.4886  -18.3727 H   0  0  0  0  0  0  0  0  0  0  0  0
  -11.0948    5.7968  -16.7018 H   0  0  0  0  0  0  0  0  0  0  0  0
   -9.6918    6.8838  -16.6155 H   0  0  0  0  0  0  0  0  0  0  0  0
  -10.1317    6.0826  -18.1409 H   0  0  0  0  0  0  0  0  0  0  0  0
  -10.2374    6.7675   -9.3410 H   0  0  0  0  0  0  0  0  0  0  0  0
  1  2  2  0  0  0  0
  1  3  1  0  0  0  0
  2 21  1  0  0  0  0
  3  4  2  0  0  0  0
  3 12  1  0  0  0  0
  4  6  1  0  0  0  0
  4 21  1  0  0  0  0
  5 18  1  0  0  0  0
  5 19  2  0  0  0  0
  5 20  1  0  0  0  0
  6  9  1  0  0  0  0
  7 10  1  0  0  0  0
  7 12  1  0  0  0  0
  8 11  1  0  0  0  0
  8 12  1  0  0  0  0
  9 17  1  0  0  0  0
 10 18  1  0  0  0  0
 11 18  1  0  0  0  0
 12 17  1  0  0  0  0
 13 16  1  0  0  0  0
 14 16  1  0  0  0  0
 15 16  1  0  0  0  0
 16 20  1  0  0  0  0
  1 22  1  0  0  0  0
  2 23  1  0  0  0  0
  6 24  1  0  0  0  0
  6 25  1  0  0  0  0
  7 26  1  0  0  0  0
  7 27  1  0  0  0  0
  8 28  1  0  0  0  0
  8 29  1  0  0  0  0
  9 30  1  0  0  0  0
  9 31  1  0  0  0  0
 10 32  1  0  0  0  0
 10 33  1  0  0  0  0
 11 34  1  0  0  0  0
 11 35  1  0  0  0  0
 13 36  1  0  0  0  0
 13 37  1  0  0  0  0
 13 38  1  0  0  0  0
 14 39  1  0  0  0  0
 14 40  1  0  0  0  0
 14 41  1  0  0  0  0
 15 42  1  0  0  0  0
 15 43  1  0  0  0  0
 15 44  1  0  0  0  0
 17 45  1  0  0  0  0
M  END
> <id>
EN300-1076002

> <smiles>
CC(C)(C)OC(=O)N1CCC2(CC1)NCCC=3SC=CC32

> <IUPAC Name>
tert-butyl 6',7'-dihydro-5'H-spiro[piperidine-4,4'-thieno[3,2-c]pyridine]-1-carboxylate

> <CAS>
2008730-87-6

> <URL>
https://www.enaminestore.com/catalog/EN300-1076002

> <ROCS_ShapeQuery>
_x0404_0B

> <ROCS_TanimotoCombo>
0.390 

> <ROCS_ShapeTanimoto>
0.316 

> <ROCS_ColorTanimoto>
0.074 

> <ROCS_RefTversky>
0.284 

> <ROCS_RefColorTversky>
0.079 

> <ROCS_RefTverskyCombo>
0.363 

> <ROCS_FitTversky>
1.547 

> <ROCS_FitColorTversky>
0.547 

> <ROCS_FitTverskyCombo>
2.094 

> <ROCS_ColorScore>
-5.712

> <ROCS_Overlap>
1896.709

> <ROCS_Rank>
187                 

$$$$
untitled-dbase-45778_15
  -OEChem-08212314543D

 40 42  0     0  0  0  0  0  0999 V2000
   -9.3299    2.0062   -8.0384 C   0  0  0  0  0  0  0  0  0  0  0  0
   -9.3784    2.5400   -9.3310 C   0  0  0  0  0  0  0  0  0  0  0  0
   -8.9875    2.8050   -6.9496 C   0  0  0  0  0  0  0  0  0  0  0  0
   -9.0759    3.9028   -9.5265 C   0  0  0  0  0  0  0  0  0  0  0  0
   -9.0251    4.7572  -10.6649 C   0  0  0  0  0  0  0  0  0  0  0  0
   -8.7364    4.6814   -8.4139 C   0  0  0  0  0  0  0  0  0  0  0  0
   -8.6839    4.1590   -7.1164 C   0  0  0  0  0  0  0  0  0  0  0  0
   -8.6671    6.0104  -10.2156 C   0  0  0  0  0  0  0  0  0  0  0  0
   -8.4275    5.4799  -14.2437 C   0  0  0  0  0  0  0  0  0  0  0  0
   -9.3004    4.4599  -12.0985 C   0  0  0  0  0  0  0  0  0  0  0  0
   -8.4851    7.2101  -11.0689 C   0  0  0  0  0  0  0  0  0  0  0  0
   -9.2047    6.9686  -12.4053 C   0  0  0  0  0  0  0  0  0  0  0  0
   -7.4279    4.6713  -16.8006 C   0  0  0  0  0  0  0  0  0  0  0  0
   -8.3810    2.4128  -16.2527 C   0  0  0  0  0  0  0  0  0  0  0  0
   -9.9055    4.3990  -16.4513 C   0  0  0  0  0  0  0  0  0  0  0  0
   -8.5157    3.9185  -16.0359 C   0  0  0  0  0  0  0  0  0  0  0  0
   -8.4909    5.9612   -8.8644 N   0  0  0  0  0  0  0  0  0  0  0  0
   -8.9211    5.6205  -12.9413 N   0  0  0  0  0  0  0  0  0  0  0  0
   -8.1041    6.4189  -14.9686 O   0  0  0  0  0  0  0  0  0  0  0  0
   -8.3458    4.1698  -14.6361 O   0  0  0  0  0  0  0  0  0  0  0  0
   -8.2222    5.2212   -5.6260 Br  0  0  0  0  0  0  0  0  0  0  0  0
   -9.5625    0.9559   -7.8842 H   0  0  0  0  0  0  0  0  0  0  0  0
   -9.6475    1.9046  -10.1701 H   0  0  0  0  0  0  0  0  0  0  0  0
   -8.9601    2.3536   -5.9601 H   0  0  0  0  0  0  0  0  0  0  0  0
   -8.6970    3.6090  -12.4329 H   0  0  0  0  0  0  0  0  0  0  0  0
  -10.3568    4.2134  -12.2388 H   0  0  0  0  0  0  0  0  0  0  0  0
   -8.9133    8.0855  -10.5671 H   0  0  0  0  0  0  0  0  0  0  0  0
   -7.4229    7.4077  -11.2488 H   0  0  0  0  0  0  0  0  0  0  0  0
  -10.2812    7.1204  -12.2790 H   0  0  0  0  0  0  0  0  0  0  0  0
   -8.8603    7.6852  -13.1616 H   0  0  0  0  0  0  0  0  0  0  0  0
   -7.5211    5.7524  -16.6476 H   0  0  0  0  0  0  0  0  0  0  0  0
   -6.4259    4.3608  -16.4869 H   0  0  0  0  0  0  0  0  0  0  0  0
   -7.5205    4.5027  -17.8796 H   0  0  0  0  0  0  0  0  0  0  0  0
   -9.1595    1.8687  -15.7058 H   0  0  0  0  0  0  0  0  0  0  0  0
   -7.4216    2.0475  -15.8689 H   0  0  0  0  0  0  0  0  0  0  0  0
   -8.4533    2.1492  -17.3128 H   0  0  0  0  0  0  0  0  0  0  0  0
  -10.6859    3.8591  -15.9029 H   0  0  0  0  0  0  0  0  0  0  0  0
  -10.0330    5.4708  -16.2683 H   0  0  0  0  0  0  0  0  0  0  0  0
  -10.0835    4.2036  -17.5149 H   0  0  0  0  0  0  0  0  0  0  0  0
   -8.2223    6.7400   -8.2786 H   0  0  0  0  0  0  0  0  0  0  0  0
  1  2  1  0  0  0  0
  1  3  2  0  0  0  0
  2  4  2  0  0  0  0
  3  7  1  0  0  0  0
  4  5  1  0  0  0  0
  4  6  1  0  0  0  0
  5  8  2  0  0  0  0
  5 10  1  0  0  0  0
  6  7  2  0  0  0  0
  6 17  1  0  0  0  0
  7 21  1  0  0  0  0
  8 11  1  0  0  0  0
  8 17  1  0  0  0  0
  9 18  1  0  0  0  0
  9 19  2  0  0  0  0
  9 20  1  0  0  0  0
 10 18  1  0  0  0  0
 11 12  1  0  0  0  0
 12 18  1  0  0  0  0
 13 16  1  0  0  0  0
 14 16  1  0  0  0  0
 15 16  1  0  0  0  0
 16 20  1  0  0  0  0
  1 22  1  0  0  0  0
  2 23  1  0  0  0  0
  3 24  1  0  0  0  0
 10 25  1  0  0  0  0
 10 26  1  0  0  0  0
 11 27  1  0  0  0  0
 11 28  1  0  0  0  0
 12 29  1  0  0  0  0
 12 30  1  0  0  0  0
 13 31  1  0  0  0  0
 13 32  1  0  0  0  0
 13 33  1  0  0  0  0
 14 34  1  0  0  0  0
 14 35  1  0  0  0  0
 14 36  1  0  0  0  0
 15 37  1  0  0  0  0
 15 38  1  0  0  0  0
 15 39  1  0  0  0  0
 17 40  1  0  0  0  0
M  END
> <id>
EN300-23901850

> <smiles>
CC(C)(C)OC(=O)N1CCC=2NC=3C(Br)=CC=CC3C2C1

> <MDLNUMBER>
MFCD31231648

> <IUPAC Name>
tert-butyl 6-bromo-1H,2H,3H,4H,5H-pyrido[4,3-b]indole-2-carboxylate

> <CAS>
2227011-75-6

> <URL>
https://www.enaminestore.com/catalog/EN300-23901850

> <ROCS_ShapeQuery>
_x0404_0B

> <ROCS_TanimotoCombo>
0.390 

> <ROCS_ShapeTanimoto>
0.313 

> <ROCS_ColorTanimoto>
0.077 

> <ROCS_RefTversky>
0.283 

> <ROCS_RefColorTversky>
0.082 

> <ROCS_RefTverskyCombo>
0.365 

> <ROCS_FitTversky>
1.512 

> <ROCS_FitColorTversky>
0.563 

> <ROCS_FitTverskyCombo>
2.075 

> <ROCS_ColorScore>
-5.887

> <ROCS_Overlap>
1890.562

> <ROCS_Rank>
188                 

$$$$
untitled-dbase-40622_0
  -OEChem-08212314543D

 55 56  0     1  0  0  0  0  0999 V2000
   -7.2063    1.8295  -10.6564 C   0  0  0  0  0  0  0  0  0  0  0  0
   -6.4967    2.1267  -11.7542 C   0  0  0  0  0  0  0  0  0  0  0  0
   -8.2516    5.0021  -14.8408 C   0  0  0  0  0  0  0  0  0  0  0  0
   -8.2897    4.6894  -10.0311 C   0  0  0  0  0  0  0  0  0  0  0  0
   -7.0376    2.5289   -9.3405 C   0  0  0  0  0  0  0  0  0  0  0  0
   -6.6416    1.4003  -13.0557 C   0  0  0  0  0  0  0  0  0  0  0  0
  -10.1594    5.2152  -13.2522 C   0  0  0  0  0  0  0  0  0  0  0  0
   -9.5995    2.7204   -8.7242 C   0  0  0  0  0  0  0  0  0  0  0  0
   -8.3128    3.8427   -7.5422 C   0  0  0  0  0  0  0  0  0  0  0  0
   -6.5481    3.1457  -14.6826 C   0  0  0  0  0  0  0  0  0  0  0  0
   -7.4382    3.9657  -15.6241 C   0  0  2  0  0  0  0  0  0  0  0  0
   -9.5718    5.7065  -11.9251 C   0  0  1  0  0  0  0  0  0  0  0  0
   -8.2491    3.4422   -9.0575 C   0  0  0  0  0  0  0  0  0  0  0  0
  -10.5593    6.6436  -11.2282 C   0  0  0  0  0  0  0  0  0  0  0  0
   -7.4872    5.4788  -17.6227 C   0  0  0  0  0  0  0  0  0  0  0  0
   -5.8311    3.5995  -17.5131 C   0  0  0  0  0  0  0  0  0  0  0  0
   -5.5688    5.5906  -16.0121 C   0  0  0  0  0  0  0  0  0  0  0  0
   -6.5852    4.6555  -16.6882 C   0  0  0  0  0  0  0  0  0  0  0  0
   -9.2188    4.4271  -14.0279 N   0  0  0  0  0  0  0  0  0  0  0  0
   -9.2445    4.5922  -11.0379 N   0  0  0  0  0  0  0  0  0  0  0  0
   -9.1999    2.6903   -7.3061 N   0  0  0  0  0  0  0  0  0  0  0  0
   -8.0644    6.2128  -14.9477 O   0  0  0  0  0  0  0  0  0  0  0  0
   -7.5463    5.6691   -9.9023 O   0  0  0  0  0  0  0  0  0  0  0  0
   -7.3622    2.1963  -13.9927 O   0  0  0  0  0  0  0  0  0  0  0  0
   -7.9342    1.0232  -10.6956 H   0  0  0  0  0  0  0  0  0  0  0  0
   -5.7653    2.9296  -11.7146 H   0  0  0  0  0  0  0  0  0  0  0  0
   -6.9229    1.7636   -8.5628 H   0  0  0  0  0  0  0  0  0  0  0  0
   -6.1150    3.1227   -9.3257 H   0  0  0  0  0  0  0  0  0  0  0  0
   -5.6615    1.1131  -13.4535 H   0  0  0  0  0  0  0  0  0  0  0  0
   -7.2124    0.4755  -12.9178 H   0  0  0  0  0  0  0  0  0  0  0  0
  -11.0459    4.5933  -13.0843 H   0  0  0  0  0  0  0  0  0  0  0  0
  -10.4665    6.0706  -13.8654 H   0  0  0  0  0  0  0  0  0  0  0  0
  -10.5003    3.3209   -8.9020 H   0  0  0  0  0  0  0  0  0  0  0  0
   -9.7526    1.7336   -9.1696 H   0  0  0  0  0  0  0  0  0  0  0  0
   -7.3688    3.8107   -6.9896 H   0  0  0  0  0  0  0  0  0  0  0  0
   -8.7933    4.8097   -7.3472 H   0  0  0  0  0  0  0  0  0  0  0  0
   -5.7918    2.5977  -15.2564 H   0  0  0  0  0  0  0  0  0  0  0  0
   -6.0427    3.8022  -13.9650 H   0  0  0  0  0  0  0  0  0  0  0  0
   -8.1559    3.3039  -16.1266 H   0  0  0  0  0  0  0  0  0  0  0  0
   -8.6505    6.2701  -12.1171 H   0  0  0  0  0  0  0  0  0  0  0  0
  -11.4868    6.1129  -11.0233 H   0  0  0  0  0  0  0  0  0  0  0  0
  -10.7693    7.4976  -11.8689 H   0  0  0  0  0  0  0  0  0  0  0  0
  -10.1328    6.9950  -10.2909 H   0  0  0  0  0  0  0  0  0  0  0  0
   -6.9028    5.9864  -18.3982 H   0  0  0  0  0  0  0  0  0  0  0  0
   -8.0375    6.2449  -17.0649 H   0  0  0  0  0  0  0  0  0  0  0  0
   -8.2223    4.8394  -18.1243 H   0  0  0  0  0  0  0  0  0  0  0  0
   -5.2113    4.0710  -18.2842 H   0  0  0  0  0  0  0  0  0  0  0  0
   -5.1715    2.9996  -16.8762 H   0  0  0  0  0  0  0  0  0  0  0  0
   -6.5234    2.9143  -18.0150 H   0  0  0  0  0  0  0  0  0  0  0  0
   -4.9444    6.0976  -16.7564 H   0  0  0  0  0  0  0  0  0  0  0  0
   -4.9033    5.0387  -15.3390 H   0  0  0  0  0  0  0  0  0  0  0  0
   -6.0757    6.3620  -15.4213 H   0  0  0  0  0  0  0  0  0  0  0  0
   -9.2946    3.4153  -13.9813 H   0  0  0  0  0  0  0  0  0  0  0  0
   -9.7341    3.7113  -11.1614 H   0  0  0  0  0  0  0  0  0  0  0  0
   -9.9539    2.8572   -6.6423 H   0  0  0  0  0  0  0  0  0  0  0  0
  1  2  2  0  0  0  0
  1  5  1  0  0  0  0
  2  6  1  0  0  0  0
  3 11  1  0  0  0  0
  3 19  1  0  0  0  0
  3 22  2  0  0  0  0
  4 13  1  0  0  0  0
  4 20  1  0  0  0  0
  4 23  2  0  0  0  0
  5 13  1  0  0  0  0
  6 24  1  0  0  0  0
  7 12  1  0  0  0  0
  7 19  1  0  0  0  0
  8 13  1  0  0  0  0
  8 21  1  0  0  0  0
  9 13  1  0  0  0  0
  9 21  1  0  0  0  0
 10 11  1  0  0  0  0
 10 24  1  0  0  0  0
 11 18  1  0  0  0  0
 12 14  1  6  0  0  0
 12 20  1  0  0  0  0
 15 18  1  0  0  0  0
 16 18  1  0  0  0  0
 17 18  1  0  0  0  0
  1 25  1  0  0  0  0
  2 26  1  0  0  0  0
  5 27  1  0  0  0  0
  5 28  1  0  0  0  0
  6 29  1  0  0  0  0
  6 30  1  0  0  0  0
  7 31  1  0  0  0  0
  7 32  1  0  0  0  0
  8 33  1  0  0  0  0
  8 34  1  0  0  0  0
  9 35  1  0  0  0  0
  9 36  1  0  0  0  0
 10 37  1  0  0  0  0
 10 38  1  0  0  0  0
 11 39  1  0  0  0  0
 12 40  1  0  0  0  0
 14 41  1  0  0  0  0
 14 42  1  0  0  0  0
 14 43  1  0  0  0  0
 15 44  1  0  0  0  0
 15 45  1  0  0  0  0
 15 46  1  0  0  0  0
 16 47  1  0  0  0  0
 16 48  1  0  0  0  0
 16 49  1  0  0  0  0
 17 50  1  0  0  0  0
 17 51  1  0  0  0  0
 17 52  1  0  0  0  0
 19 53  1  0  0  0  0
 20 54  1  0  0  0  0
 21 55  1  0  0  0  0
M  END
> <id>
EN300-6735316

> <smiles>
C[C@@H]1CNC(=O)C(COC/C=C/CC2(CNC2)C(=O)N1)C(C)(C)C.OC(=O)C(F)(F)F

> <MDLNUMBER>
MFCD31746014

> <IUPAC Name>
(7R,15E)-11-tert-butyl-7-methyl-13-oxa-2,6,9-triazaspiro[3.13]heptadec-15-ene-5,10-dione; trifluoroacetic acid

> <CAS>
2287255-31-4

> <URL>
https://www.enaminestore.com/catalog/EN300-6735316

> <Saltdate>
OC(=O)C(F)(F)F

> <ROCS_ShapeQuery>
_x0404_0B

> <ROCS_TanimotoCombo>
0.390 

> <ROCS_ShapeTanimoto>
0.279 

> <ROCS_ColorTanimoto>
0.111 

> <ROCS_RefTversky>
0.262 

> <ROCS_RefColorTversky>
0.117 

> <ROCS_RefTverskyCombo>
0.378 

> <ROCS_FitTversky>
1.322 

> <ROCS_FitColorTversky>
0.684 

> <ROCS_FitTverskyCombo>
2.006 

> <ROCS_ColorScore>
-8.436

> <ROCS_Overlap>
1745.905

> <ROCS_Rank>
189                 

$$$$
untitled-dbase-27408_0
  -OEChem-08212314543D

 30 32  0     0  0  0  0  0  0999 V2000
   -9.5899    6.1977   -9.1192 C   0  0  0  0  0  0  0  0  0  0  0  0
   -8.1956    6.2045  -13.8928 C   0  0  0  0  0  0  0  0  0  0  0  0
   -9.5935    4.1320   -7.8657 C   0  0  0  0  0  0  0  0  0  0  0  0
   -7.5225    4.1420  -14.9566 C   0  0  0  0  0  0  0  0  0  0  0  0
   -9.1380    5.5108  -10.2524 C   0  0  0  0  0  0  0  0  0  0  0  0
   -8.4242    5.5143  -12.6964 C   0  0  0  0  0  0  0  0  0  0  0  0
   -8.9147    4.1338  -10.1891 C   0  0  0  0  0  0  0  0  0  0  0  0
   -8.2009    4.1373  -12.6331 C   0  0  0  0  0  0  0  0  0  0  0  0
   -9.8163    5.5060   -7.9289 C   0  0  0  0  0  0  0  0  0  0  0  0
   -7.7453    5.5161  -15.0197 C   0  0  0  0  0  0  0  0  0  0  0  0
   -9.1432    3.4437   -8.9926 C   0  0  0  0  0  0  0  0  0  0  0  0
   -7.7490    3.4504  -13.7663 C   0  0  0  0  0  0  0  0  0  0  0  0
   -8.9010    6.2514  -11.5083 C   0  0  0  0  0  0  0  0  0  0  0  0
   -8.4380    3.3967  -11.3772 C   0  0  0  0  0  0  0  0  0  0  0  0
  -10.2980    6.2378   -6.7216 C   0  0  0  0  0  0  0  0  0  0  0  0
   -9.0956    7.4593  -11.5639 O   0  0  0  0  0  0  0  0  0  0  0  0
   -8.2420    2.1895  -11.3212 O   0  0  0  0  0  0  0  0  0  0  0  0
   -7.5232    6.1878  -16.1829 O   0  0  0  0  0  0  0  0  0  0  0  0
   -8.9456    2.1011   -8.8595 O   0  0  0  0  0  0  0  0  0  0  0  0
   -7.5101    2.1080  -13.7748 O   0  0  0  0  0  0  0  0  0  0  0  0
   -9.7684    7.2697   -9.1519 H   0  0  0  0  0  0  0  0  0  0  0  0
   -8.3640    7.2763  -13.9620 H   0  0  0  0  0  0  0  0  0  0  0  0
   -9.7696    3.5940   -6.9370 H   0  0  0  0  0  0  0  0  0  0  0  0
   -7.1707    3.6106  -15.8377 H   0  0  0  0  0  0  0  0  0  0  0  0
  -11.3945    6.2540   -6.6973 H   0  0  0  0  0  0  0  0  0  0  0  0
   -9.9363    5.7657   -5.7991 H   0  0  0  0  0  0  0  0  0  0  0  0
   -9.9343    7.2735   -6.7123 H   0  0  0  0  0  0  0  0  0  0  0  0
   -7.2148    5.5764  -16.8704 H   0  0  0  0  0  0  0  0  0  0  0  0
   -8.6347    1.7247   -9.6973 H   0  0  0  0  0  0  0  0  0  0  0  0
   -7.6989    1.7297  -12.9022 H   0  0  0  0  0  0  0  0  0  0  0  0
  1  5  2  0  0  0  0
  1  9  1  0  0  0  0
  2  6  2  0  0  0  0
  2 10  1  0  0  0  0
  3  9  2  0  0  0  0
  3 11  1  0  0  0  0
  4 10  2  0  0  0  0
  4 12  1  0  0  0  0
  5  7  1  0  0  0  0
  5 13  1  0  0  0  0
  6  8  1  0  0  0  0
  6 13  1  0  0  0  0
  7 11  2  0  0  0  0
  7 14  1  0  0  0  0
  8 12  2  0  0  0  0
  8 14  1  0  0  0  0
  9 15  1  0  0  0  0
 10 18  1  0  0  0  0
 11 19  1  0  0  0  0
 12 20  1  0  0  0  0
 13 16  2  0  0  0  0
 14 17  2  0  0  0  0
  1 21  1  0  0  0  0
  2 22  1  0  0  0  0
  3 23  1  0  0  0  0
  4 24  1  0  0  0  0
 15 25  1  0  0  0  0
 15 26  1  0  0  0  0
 15 27  1  0  0  0  0
 18 28  1  0  0  0  0
 19 29  1  0  0  0  0
 20 30  1  0  0  0  0
M  END
> <id>
EN300-179559

> <smiles>
CC=1C=C(O)C=2C(=O)C=3C(O)=CC(O)=CC3C(=O)C2C1

> <MDLNUMBER>
MFCD00001207

> <IUPAC Name>
1,3,8-trihydroxy-6-methyl-9,10-dihydroanthracene-9,10-dione

> <CAS>
518-82-1

> <Purity>
95

> <URL>
https://www.enaminestore.com/catalog/EN300-179559

> <MP>
255-256

> <ROCS_ShapeQuery>
_x0404_0B

> <ROCS_TanimotoCombo>
0.390 

> <ROCS_ShapeTanimoto>
0.263 

> <ROCS_ColorTanimoto>
0.127 

> <ROCS_RefTversky>
0.247 

> <ROCS_RefColorTversky>
0.135 

> <ROCS_RefTverskyCombo>
0.382 

> <ROCS_FitTversky>
1.327 

> <ROCS_FitColorTversky>
0.686 

> <ROCS_FitTverskyCombo>
2.012 

> <ROCS_ColorScore>
-9.765

> <ROCS_Overlap>
1647.052

> <ROCS_Rank>
190                 

$$$$
untitled-dbase-14339_86
  -OEChem-08212314543D

 42 44  0     1  0  0  0  0  0999 V2000
   -9.1895    2.5583   -7.5312 C   0  0  0  0  0  0  0  0  0  0  0  0
   -8.7899    3.7967   -6.9896 C   0  0  0  0  0  0  0  0  0  0  0  0
   -8.6937    4.6284   -8.0783 C   0  0  0  0  0  0  0  0  0  0  0  0
   -8.5308    5.6252  -14.3223 C   0  0  0  0  0  0  0  0  0  0  0  0
  -10.3301    4.3045  -11.2375 C   0  0  0  0  0  0  0  0  0  0  0  0
  -10.1576    4.5541  -12.7365 C   0  0  0  0  0  0  0  0  0  0  0  0
   -8.5729    6.6077   -9.4771 C   0  0  0  0  0  0  0  0  0  0  0  0
   -8.6959    6.4252  -11.9796 C   0  0  0  0  0  0  0  0  0  0  0  0
   -8.2827    5.6961  -10.6861 C   0  0  2  0  0  0  0  0  0  0  0  0
   -8.9616    4.3067  -10.5491 C   0  0  1  0  0  0  0  0  0  0  0  0
   -6.5710    4.8828  -16.2700 C   0  0  0  0  0  0  0  0  0  0  0  0
   -8.1933    3.0895  -16.9493 C   0  0  0  0  0  0  0  0  0  0  0  0
   -8.8367    5.5072  -17.1707 C   0  0  0  0  0  0  0  0  0  0  0  0
   -8.0446    4.4877  -16.3533 C   0  0  0  0  0  0  0  0  0  0  0  0
   -9.3255    2.5925   -8.8605 N   0  0  0  0  0  0  0  0  0  0  0  0
   -9.0234    3.8694   -9.1649 N   0  0  0  0  0  0  0  0  0  0  0  0
   -8.3432    5.9201   -8.2198 N   0  0  0  0  0  0  0  0  0  0  0  0
   -9.0802    5.5017  -13.0422 N   0  0  0  0  0  0  0  0  0  0  0  0
   -8.0567    6.6636  -14.7789 O   0  0  0  0  0  0  0  0  0  0  0  0
   -8.5822    4.4505  -15.0264 O   0  0  0  0  0  0  0  0  0  0  0  0
   -8.4750    4.1541   -5.1889 Br  0  0  0  0  0  0  0  0  0  0  0  0
   -9.3864    1.6283   -7.0163 H   0  0  0  0  0  0  0  0  0  0  0  0
  -10.9774    5.0738  -10.8174 H   0  0  0  0  0  0  0  0  0  0  0  0
  -10.8264    3.3473  -11.0863 H   0  0  0  0  0  0  0  0  0  0  0  0
   -9.9159    3.6092  -13.2558 H   0  0  0  0  0  0  0  0  0  0  0  0
  -11.1125    4.9050  -13.1646 H   0  0  0  0  0  0  0  0  0  0  0  0
   -7.9290    7.4978   -9.5200 H   0  0  0  0  0  0  0  0  0  0  0  0
   -9.6106    6.9717   -9.4971 H   0  0  0  0  0  0  0  0  0  0  0  0
   -9.4919    7.1492  -11.7618 H   0  0  0  0  0  0  0  0  0  0  0  0
   -7.8428    7.0076  -12.3589 H   0  0  0  0  0  0  0  0  0  0  0  0
   -7.1937    5.5579  -10.7312 H   0  0  0  0  0  0  0  0  0  0  0  0
   -8.3100    3.5709  -11.0826 H   0  0  0  0  0  0  0  0  0  0  0  0
   -6.4600    5.8858  -15.8427 H   0  0  0  0  0  0  0  0  0  0  0  0
   -5.9986    4.1786  -15.6574 H   0  0  0  0  0  0  0  0  0  0  0  0
   -6.1191    4.9201  -17.2678 H   0  0  0  0  0  0  0  0  0  0  0  0
   -9.2491    2.8019  -17.0110 H   0  0  0  0  0  0  0  0  0  0  0  0
   -7.7060    2.3408  -16.3143 H   0  0  0  0  0  0  0  0  0  0  0  0
   -7.7585    3.0295  -17.9522 H   0  0  0  0  0  0  0  0  0  0  0  0
   -9.8938    5.2241  -17.2306 H   0  0  0  0  0  0  0  0  0  0  0  0
   -8.7716    6.5102  -16.7366 H   0  0  0  0  0  0  0  0  0  0  0  0
   -8.4690    5.5497  -18.2023 H   0  0  0  0  0  0  0  0  0  0  0  0
   -8.0005    6.4680   -7.4416 H   0  0  0  0  0  0  0  0  0  0  0  0
  1  2  1  0  0  0  0
  1 15  2  0  0  0  0
  2  3  2  0  0  0  0
  2 21  1  0  0  0  0
  3 16  1  0  0  0  0
  3 17  1  0  0  0  0
  4 18  1  0  0  0  0
  4 19  2  0  0  0  0
  4 20  1  0  0  0  0
  5  6  1  0  0  0  0
  5 10  1  0  0  0  0
  6 18  1  0  0  0  0
  7  9  1  0  0  0  0
  7 17  1  0  0  0  0
  8  9  1  0  0  0  0
  8 18  1  0  0  0  0
  9 10  1  0  0  0  0
 10 16  1  0  0  0  0
 11 14  1  0  0  0  0
 12 14  1  0  0  0  0
 13 14  1  0  0  0  0
 14 20  1  0  0  0  0
 15 16  1  0  0  0  0
  1 22  1  0  0  0  0
  5 23  1  0  0  0  0
  5 24  1  0  0  0  0
  6 25  1  0  0  0  0
  6 26  1  0  0  0  0
  7 27  1  0  0  0  0
  7 28  1  0  0  0  0
  8 29  1  0  0  0  0
  8 30  1  0  0  0  0
  9 31  1  0  0  0  0
 10 32  1  0  0  0  0
 11 33  1  0  0  0  0
 11 34  1  0  0  0  0
 11 35  1  0  0  0  0
 12 36  1  0  0  0  0
 12 37  1  0  0  0  0
 12 38  1  0  0  0  0
 13 39  1  0  0  0  0
 13 40  1  0  0  0  0
 13 41  1  0  0  0  0
 17 42  1  0  0  0  0
M  END
> <id>
EN300-1118524

> <smiles>
CC(C)(C)OC(=O)N1CCC2C(CNC3=C(Br)C=NN23)C1

> <IUPAC Name>
tert-butyl 5-bromo-2,3,7,11-tetraazatricyclo[7.4.0.0,2,6]trideca-3,5-diene-11-carboxylate

> <CAS>
1695904-27-8

> <URL>
https://www.enaminestore.com/catalog/EN300-1118524

> <ROCS_ShapeQuery>
_x0404_0B

> <ROCS_TanimotoCombo>
0.390 

> <ROCS_ShapeTanimoto>
0.316 

> <ROCS_ColorTanimoto>
0.074 

> <ROCS_RefTversky>
0.285 

> <ROCS_RefColorTversky>
0.080 

> <ROCS_RefTverskyCombo>
0.365 

> <ROCS_FitTversky>
1.522 

> <ROCS_FitColorTversky>
0.507 

> <ROCS_FitTverskyCombo>
2.029 

> <ROCS_ColorScore>
-5.787

> <ROCS_Overlap>
1899.823

> <ROCS_Rank>
191                 

$$$$
untitled-dbase-5330_98
  -OEChem-08212314543D

 43 45  0     0  0  0  0  0  0999 V2000
   -9.1320    2.2661   -8.1578 C   0  0  0  0  0  0  0  0  0  0  0  0
   -9.5532    3.2604   -7.2901 C   0  0  0  0  0  0  0  0  0  0  0  0
   -8.9165    4.0668   -9.2483 C   0  0  0  0  0  0  0  0  0  0  0  0
   -8.1372    5.7058  -14.4046 C   0  0  0  0  0  0  0  0  0  0  0  0
   -8.7939    6.3955   -8.9755 C   0  0  0  0  0  0  0  0  0  0  0  0
   -7.3609    5.3046  -10.7948 C   0  0  0  0  0  0  0  0  0  0  0  0
   -9.9052    5.4147  -11.0857 C   0  0  0  0  0  0  0  0  0  0  0  0
   -9.6160    5.7957   -7.8170 C   0  0  0  0  0  0  0  0  0  0  0  0
   -7.4434    4.7678  -12.2201 C   0  0  0  0  0  0  0  0  0  0  0  0
   -9.5154    6.1705  -12.3521 C   0  0  0  0  0  0  0  0  0  0  0  0
   -8.7294    5.2863  -10.0916 C   0  0  0  0  0  0  0  0  0  0  0  0
   -6.3304    5.9235  -16.6119 C   0  0  0  0  0  0  0  0  0  0  0  0
   -6.4820    3.4198  -16.7448 C   0  0  0  0  0  0  0  0  0  0  0  0
   -8.5379    4.8179  -17.1011 C   0  0  0  0  0  0  0  0  0  0  0  0
   -7.2114    4.7025  -16.3515 C   0  0  0  0  0  0  0  0  0  0  0  0
   -8.7352    2.7774   -9.3832 N   0  0  0  0  0  0  0  0  0  0  0  0
   -9.4085    4.3792   -8.0180 N   0  0  0  0  0  0  0  0  0  0  0  0
   -8.3730    5.5522  -13.0346 N   0  0  0  0  0  0  0  0  0  0  0  0
   -8.4779    6.6889  -15.0598 O   0  0  0  0  0  0  0  0  0  0  0  0
   -7.4858    4.6297  -14.9477 O   0  0  0  0  0  0  0  0  0  0  0  0
  -10.1768    3.0708   -5.5304 Br  0  0  0  0  0  0  0  0  0  0  0  0
   -9.0905    1.2025   -7.9683 H   0  0  0  0  0  0  0  0  0  0  0  0
   -9.2154    7.3413   -9.3307 H   0  0  0  0  0  0  0  0  0  0  0  0
   -7.7821    6.6117   -8.6058 H   0  0  0  0  0  0  0  0  0  0  0  0
   -6.6292    4.7182  -10.2330 H   0  0  0  0  0  0  0  0  0  0  0  0
   -6.9912    6.3336  -10.8317 H   0  0  0  0  0  0  0  0  0  0  0  0
  -10.7294    5.9542  -10.6018 H   0  0  0  0  0  0  0  0  0  0  0  0
  -10.2963    4.4281  -11.3618 H   0  0  0  0  0  0  0  0  0  0  0  0
   -9.2427    6.0925   -6.8347 H   0  0  0  0  0  0  0  0  0  0  0  0
  -10.6861    5.9962   -7.9182 H   0  0  0  0  0  0  0  0  0  0  0  0
   -6.4410    4.7556  -12.6611 H   0  0  0  0  0  0  0  0  0  0  0  0
   -7.8035    3.7314  -12.2288 H   0  0  0  0  0  0  0  0  0  0  0  0
  -10.3480    6.1907  -13.0705 H   0  0  0  0  0  0  0  0  0  0  0  0
   -9.2916    7.2172  -12.1036 H   0  0  0  0  0  0  0  0  0  0  0  0
   -6.8503    6.8463  -16.3309 H   0  0  0  0  0  0  0  0  0  0  0  0
   -5.3907    5.8696  -16.0526 H   0  0  0  0  0  0  0  0  0  0  0  0
   -6.0937    6.0146  -17.6782 H   0  0  0  0  0  0  0  0  0  0  0  0
   -7.1105    2.5412  -16.5596 H   0  0  0  0  0  0  0  0  0  0  0  0
   -5.5770    3.2847  -16.1415 H   0  0  0  0  0  0  0  0  0  0  0  0
   -6.1965    3.4252  -17.8017 H   0  0  0  0  0  0  0  0  0  0  0  0
   -9.1700    3.9422  -16.9144 H   0  0  0  0  0  0  0  0  0  0  0  0
   -9.0923    5.7140  -16.8041 H   0  0  0  0  0  0  0  0  0  0  0  0
   -8.3717    4.8541  -18.1838 H   0  0  0  0  0  0  0  0  0  0  0  0
  1  2  2  0  0  0  0
  1 16  1  0  0  0  0
  2 17  1  0  0  0  0
  2 21  1  0  0  0  0
  3 11  1  0  0  0  0
  3 16  2  0  0  0  0
  3 17  1  0  0  0  0
  4 18  1  0  0  0  0
  4 19  2  0  0  0  0
  4 20  1  0  0  0  0
  5  8  1  0  0  0  0
  5 11  1  0  0  0  0
  6  9  1  0  0  0  0
  6 11  1  0  0  0  0
  7 10  1  0  0  0  0
  7 11  1  0  0  0  0
  8 17  1  0  0  0  0
  9 18  1  0  0  0  0
 10 18  1  0  0  0  0
 12 15  1  0  0  0  0
 13 15  1  0  0  0  0
 14 15  1  0  0  0  0
 15 20  1  0  0  0  0
  1 22  1  0  0  0  0
  5 23  1  0  0  0  0
  5 24  1  0  0  0  0
  6 25  1  0  0  0  0
  6 26  1  0  0  0  0
  7 27  1  0  0  0  0
  7 28  1  0  0  0  0
  8 29  1  0  0  0  0
  8 30  1  0  0  0  0
  9 31  1  0  0  0  0
  9 32  1  0  0  0  0
 10 33  1  0  0  0  0
 10 34  1  0  0  0  0
 12 35  1  0  0  0  0
 12 36  1  0  0  0  0
 12 37  1  0  0  0  0
 13 38  1  0  0  0  0
 13 39  1  0  0  0  0
 13 40  1  0  0  0  0
 14 41  1  0  0  0  0
 14 42  1  0  0  0  0
 14 43  1  0  0  0  0
M  END
> <id>
EN300-207457

> <smiles>
CC(C)(C)OC(=O)N1CCC2(CCN3C(Br)=CN=C32)CC1

> <MDLNUMBER>
MFCD14581089

> <IUPAC Name>
tert-butyl 3'-bromo-5',6'-dihydrospiro[piperidine-4,7'-pyrrolo[1,2-a]imidazole]-1-carboxylate

> <CAS>
1251000-16-4

> <Purity>
95

> <URL>
https://www.enaminestore.com/catalog/EN300-207457

> <ROCS_ShapeQuery>
_x0404_0B

> <ROCS_TanimotoCombo>
0.390 

> <ROCS_ShapeTanimoto>
0.311 

> <ROCS_ColorTanimoto>
0.079 

> <ROCS_RefTversky>
0.281 

> <ROCS_RefColorTversky>
0.085 

> <ROCS_RefTverskyCombo>
0.366 

> <ROCS_FitTversky>
1.507 

> <ROCS_FitColorTversky>
0.535 

> <ROCS_FitTverskyCombo>
2.042 

> <ROCS_ColorScore>
-6.122

> <ROCS_Overlap>
1876.830

> <ROCS_Rank>
192                 

$$$$
untitled-dbase-28110_116
  -OEChem-08212314543D

 36 37  0     0  0  0  0  0  0999 V2000
   -8.0384    4.4347  -13.1557 C   0  0  0  0  0  0  0  0  0  0  0  0
   -8.2675    5.7414  -13.5716 C   0  0  0  0  0  0  0  0  0  0  0  0
   -7.7077    3.5373  -14.1582 C   0  0  0  0  0  0  0  0  0  0  0  0
   -7.8687    5.1551  -15.7427 C   0  0  0  0  0  0  0  0  0  0  0  0
   -9.1350    4.8224   -9.5643 C   0  0  0  0  0  0  0  0  0  0  0  0
   -8.1176    4.0121  -11.7202 C   0  0  0  0  0  0  0  0  0  0  0  0
   -8.6575    6.7925  -12.5696 C   0  0  0  0  0  0  0  0  0  0  0  0
   -8.1653    6.4466  -11.1688 C   0  0  0  0  0  0  0  0  0  0  0  0
   -9.5103    3.2392   -7.2103 C   0  0  0  0  0  0  0  0  0  0  0  0
  -10.3268    1.4470   -8.7693 C   0  0  0  0  0  0  0  0  0  0  0  0
   -7.9636    2.2785   -8.9479 C   0  0  0  0  0  0  0  0  0  0  0  0
   -9.4070    2.6568   -8.6191 C   0  0  0  0  0  0  0  0  0  0  0  0
   -8.1961    6.1241  -14.8673 N   0  0  0  0  0  0  0  0  0  0  0  0
   -7.6145    3.8646  -15.4631 N   0  0  0  0  0  0  0  0  0  0  0  0
   -8.5434    5.0809  -10.8060 N   0  0  0  0  0  0  0  0  0  0  0  0
   -9.0347    5.5539   -8.5811 O   0  0  0  0  0  0  0  0  0  0  0  0
   -7.4535    2.2274  -13.8456 O   0  0  0  0  0  0  0  0  0  0  0  0
   -9.8429    3.6490   -9.5555 O   0  0  0  0  0  0  0  0  0  0  0  0
   -7.7620    5.6343  -17.4551 S   0  0  0  0  0  0  0  0  0  0  0  0
   -8.8524    3.2051  -11.6148 H   0  0  0  0  0  0  0  0  0  0  0  0
   -7.1417    3.6338  -11.3977 H   0  0  0  0  0  0  0  0  0  0  0  0
   -8.2316    7.7511  -12.8892 H   0  0  0  0  0  0  0  0  0  0  0  0
   -9.7478    6.9020  -12.5549 H   0  0  0  0  0  0  0  0  0  0  0  0
   -7.0805    6.5803  -11.1101 H   0  0  0  0  0  0  0  0  0  0  0  0
   -8.6179    7.1123  -10.4230 H   0  0  0  0  0  0  0  0  0  0  0  0
   -8.8515    4.1078   -7.0984 H   0  0  0  0  0  0  0  0  0  0  0  0
  -10.5344    3.5469   -6.9750 H   0  0  0  0  0  0  0  0  0  0  0  0
   -9.1877    2.5080   -6.4603 H   0  0  0  0  0  0  0  0  0  0  0  0
  -10.2560    1.0259   -9.7787 H   0  0  0  0  0  0  0  0  0  0  0  0
  -11.3751    1.7337   -8.6274 H   0  0  0  0  0  0  0  0  0  0  0  0
  -10.0816    0.6610   -8.0478 H   0  0  0  0  0  0  0  0  0  0  0  0
   -7.8892    1.8607   -9.9584 H   0  0  0  0  0  0  0  0  0  0  0  0
   -7.2949    3.1428   -8.8812 H   0  0  0  0  0  0  0  0  0  0  0  0
   -7.5989    1.5026   -8.2650 H   0  0  0  0  0  0  0  0  0  0  0  0
   -7.2392    1.7349  -14.6501 H   0  0  0  0  0  0  0  0  0  0  0  0
   -8.0736    6.9289  -17.2907 H   0  0  0  0  0  0  0  0  0  0  0  0
  1  2  1  0  0  0  0
  1  3  2  0  0  0  0
  1  6  1  0  0  0  0
  2  7  1  0  0  0  0
  2 13  2  0  0  0  0
  3 14  1  0  0  0  0
  3 17  1  0  0  0  0
  4 13  1  0  0  0  0
  4 14  2  0  0  0  0
  4 19  1  0  0  0  0
  5 15  1  0  0  0  0
  5 16  2  0  0  0  0
  5 18  1  0  0  0  0
  6 15  1  0  0  0  0
  7  8  1  0  0  0  0
  8 15  1  0  0  0  0
  9 12  1  0  0  0  0
 10 12  1  0  0  0  0
 11 12  1  0  0  0  0
 12 18  1  0  0  0  0
  6 20  1  0  0  0  0
  6 21  1  0  0  0  0
  7 22  1  0  0  0  0
  7 23  1  0  0  0  0
  8 24  1  0  0  0  0
  8 25  1  0  0  0  0
  9 26  1  0  0  0  0
  9 27  1  0  0  0  0
  9 28  1  0  0  0  0
 10 29  1  0  0  0  0
 10 30  1  0  0  0  0
 10 31  1  0  0  0  0
 11 32  1  0  0  0  0
 11 33  1  0  0  0  0
 11 34  1  0  0  0  0
 17 35  1  0  0  0  0
 19 36  1  0  0  0  0
M  END
> <id>
EN300-1722627

> <smiles>
CC(C)(C)OC(=O)N1CCC=2N=C(S)N=C(O)C2C1

> <MDLNUMBER>
MFCD27974924

> <IUPAC Name>
tert-butyl 4-hydroxy-2-sulfanyl-5H,6H,7H,8H-pyrido[4,3-d]pyrimidine-6-carboxylate

> <CAS>
1708178-91-9

> <Purity>
91

> <URL>
https://www.enaminestore.com/catalog/EN300-1722627

> <ROCS_ShapeQuery>
_x0404_0B

> <ROCS_TanimotoCombo>
0.390 

> <ROCS_ShapeTanimoto>
0.283 

> <ROCS_ColorTanimoto>
0.107 

> <ROCS_RefTversky>
0.259 

> <ROCS_RefColorTversky>
0.113 

> <ROCS_RefTverskyCombo>
0.372 

> <ROCS_FitTversky>
1.495 

> <ROCS_FitColorTversky>
0.660 

> <ROCS_FitTverskyCombo>
2.156 

> <ROCS_ColorScore>
-8.156

> <ROCS_Overlap>
1724.882

> <ROCS_Rank>
193                 

$$$$
untitled-dbase-30680_39
  -OEChem-08212314543D

 43 44  0     1  0  0  0  0  0999 V2000
   -8.6919    3.1859   -9.3876 C   0  0  0  0  0  0  0  0  0  0  0  0
   -8.9287    5.8924   -8.8290 C   0  0  0  0  0  0  0  0  0  0  0  0
   -8.5164    4.1046  -10.4408 C   0  0  0  0  0  0  0  0  0  0  0  0
   -8.6468    5.4839  -10.1472 C   0  0  0  0  0  0  0  0  0  0  0  0
   -8.9760    3.6087   -8.0873 C   0  0  0  0  0  0  0  0  0  0  0  0
   -9.0922    4.9622   -7.8070 C   0  0  0  0  0  0  0  0  0  0  0  0
   -8.5890    5.7784  -14.4987 C   0  0  0  0  0  0  0  0  0  0  0  0
   -8.4949    6.5590  -11.2009 C   0  0  0  0  0  0  0  0  0  0  0  0
   -9.5370    6.4576  -12.3144 C   0  0  0  0  0  0  0  0  0  0  0  0
   -9.3236    4.0259  -12.8384 C   0  0  0  0  0  0  0  0  0  0  0  0
   -8.1960    3.6352  -11.8604 C   0  0  2  0  0  0  0  0  0  0  0  0
   -7.9106    2.1319  -12.0065 C   0  0  0  0  0  0  0  0  0  0  0  0
   -7.2880    5.9913  -17.0396 C   0  0  0  0  0  0  0  0  0  0  0  0
   -7.9916    3.6059  -17.3919 C   0  0  0  0  0  0  0  0  0  0  0  0
   -9.7320    5.3933  -17.1014 C   0  0  0  0  0  0  0  0  0  0  0  0
   -8.3320    4.9268  -16.7052 C   0  0  0  0  0  0  0  0  0  0  0  0
   -9.1874    5.4192  -13.2817 N   0  0  0  0  0  0  0  0  0  0  0  0
   -8.3265    6.9341  -14.8276 O   0  0  0  0  0  0  0  0  0  0  0  0
   -9.1361    2.6634   -7.1163 O   0  0  0  0  0  0  0  0  0  0  0  0
   -8.3112    4.6962  -15.2918 O   0  0  0  0  0  0  0  0  0  0  0  0
   -9.4771    5.5755   -6.0566 Br  0  0  0  0  0  0  0  0  0  0  0  0
   -8.6085    2.1169   -9.5780 H   0  0  0  0  0  0  0  0  0  0  0  0
   -9.0216    6.9523   -8.6061 H   0  0  0  0  0  0  0  0  0  0  0  0
   -8.5086    7.5418  -10.7307 H   0  0  0  0  0  0  0  0  0  0  0  0
   -7.5147    6.4662  -11.6737 H   0  0  0  0  0  0  0  0  0  0  0  0
  -10.5036    6.2116  -11.8652 H   0  0  0  0  0  0  0  0  0  0  0  0
   -9.6586    7.4072  -12.8448 H   0  0  0  0  0  0  0  0  0  0  0  0
   -9.3122    3.3894  -13.7170 H   0  0  0  0  0  0  0  0  0  0  0  0
  -10.2782    3.8925  -12.3439 H   0  0  0  0  0  0  0  0  0  0  0  0
   -7.3373    4.1598  -12.2243 H   0  0  0  0  0  0  0  0  0  0  0  0
   -8.7634    1.5617  -11.6459 H   0  0  0  0  0  0  0  0  0  0  0  0
   -7.0302    1.8693  -11.4249 H   0  0  0  0  0  0  0  0  0  0  0  0
   -7.7350    1.8938  -13.0530 H   0  0  0  0  0  0  0  0  0  0  0  0
   -7.5288    6.9410  -16.5485 H   0  0  0  0  0  0  0  0  0  0  0  0
   -6.2843    5.6837  -16.7286 H   0  0  0  0  0  0  0  0  0  0  0  0
   -7.2693    6.1960  -18.1161 H   0  0  0  0  0  0  0  0  0  0  0  0
   -8.7381    2.8392  -17.1547 H   0  0  0  0  0  0  0  0  0  0  0  0
   -7.0289    3.2191  -17.0387 H   0  0  0  0  0  0  0  0  0  0  0  0
   -7.9425    3.7171  -18.4799 H   0  0  0  0  0  0  0  0  0  0  0  0
  -10.4810    4.6299  -16.8617 H   0  0  0  0  0  0  0  0  0  0  0  0
  -10.0080    6.3209  -16.5896 H   0  0  0  0  0  0  0  0  0  0  0  0
   -9.7957    5.5600  -18.1828 H   0  0  0  0  0  0  0  0  0  0  0  0
   -9.3281    3.0869   -6.2652 H   0  0  0  0  0  0  0  0  0  0  0  0
  1  3  2  0  0  0  0
  1  5  1  0  0  0  0
  2  4  2  0  0  0  0
  2  6  1  0  0  0  0
  3  4  1  0  0  0  0
  3 11  1  0  0  0  0
  4  8  1  0  0  0  0
  5  6  2  0  0  0  0
  5 19  1  0  0  0  0
  6 21  1  0  0  0  0
  7 17  1  0  0  0  0
  7 18  2  0  0  0  0
  7 20  1  0  0  0  0
  8  9  1  0  0  0  0
  9 17  1  0  0  0  0
 10 11  1  0  0  0  0
 10 17  1  0  0  0  0
 11 12  1  0  0  0  0
 13 16  1  0  0  0  0
 14 16  1  0  0  0  0
 15 16  1  0  0  0  0
 16 20  1  0  0  0  0
  1 22  1  0  0  0  0
  2 23  1  0  0  0  0
  8 24  1  0  0  0  0
  8 25  1  0  0  0  0
  9 26  1  0  0  0  0
  9 27  1  0  0  0  0
 10 28  1  0  0  0  0
 10 29  1  0  0  0  0
 11 30  1  0  0  0  0
 12 31  1  0  0  0  0
 12 32  1  0  0  0  0
 12 33  1  0  0  0  0
 13 34  1  0  0  0  0
 13 35  1  0  0  0  0
 13 36  1  0  0  0  0
 14 37  1  0  0  0  0
 14 38  1  0  0  0  0
 14 39  1  0  0  0  0
 15 40  1  0  0  0  0
 15 41  1  0  0  0  0
 15 42  1  0  0  0  0
 19 43  1  0  0  0  0
M  END
> <id>
EN300-26664675

> <smiles>
CC1CN(CCC=2C=C(Br)C(O)=CC12)C(=O)OC(C)(C)C

> <IUPAC Name>
tert-butyl 7-bromo-8-hydroxy-1-methyl-2,3,4,5-tetrahydro-1H-3-benzazepine-3-carboxylate

> <CAS>
2413875-44-0

> <URL>
https://www.enaminestore.com/catalog/EN300-26664675

> <ROCS_ShapeQuery>
_x0404_0B

> <ROCS_TanimotoCombo>
0.389 

> <ROCS_ShapeTanimoto>
0.326 

> <ROCS_ColorTanimoto>
0.063 

> <ROCS_RefTversky>
0.291 

> <ROCS_RefColorTversky>
0.068 

> <ROCS_RefTverskyCombo>
0.359 

> <ROCS_FitTversky>
1.596 

> <ROCS_FitColorTversky>
0.467 

> <ROCS_FitTverskyCombo>
2.063 

> <ROCS_ColorScore>
-4.876

> <ROCS_Overlap>
1941.196

> <ROCS_Rank>
194                 

$$$$
untitled-dbase-52746_95
  -OEChem-08212314543D

 44 46  0     0  0  0  0  0  0999 V2000
   -9.0039    3.0779   -7.1198 C   0  0  0  0  0  0  0  0  0  0  0  0
   -9.1477    2.0400   -8.0128 C   0  0  0  0  0  0  0  0  0  0  0  0
   -8.9176    4.3382   -7.7783 C   0  0  0  0  0  0  0  0  0  0  0  0
   -9.0041    4.2185   -9.1536 C   0  0  0  0  0  0  0  0  0  0  0  0
   -8.7188    5.6689  -14.5025 C   0  0  0  0  0  0  0  0  0  0  0  0
   -8.7656    5.6752   -7.1401 C   0  0  0  0  0  0  0  0  0  0  0  0
  -10.1873    5.4568  -11.0358 C   0  0  0  0  0  0  0  0  0  0  0  0
   -7.6293    5.3553  -10.9609 C   0  0  0  0  0  0  0  0  0  0  0  0
   -9.9553    4.9184  -12.4450 C   0  0  0  0  0  0  0  0  0  0  0  0
   -7.7766    6.1389  -12.2625 C   0  0  0  0  0  0  0  0  0  0  0  0
   -8.1971    6.6582   -8.1607 C   0  0  0  0  0  0  0  0  0  0  0  0
   -8.9325    5.3838  -10.1286 C   0  0  0  0  0  0  0  0  0  0  0  0
   -7.7540    4.6195  -16.9830 C   0  0  0  0  0  0  0  0  0  0  0  0
   -9.9209    3.3527  -17.0780 C   0  0  0  0  0  0  0  0  0  0  0  0
   -9.9390    5.8642  -17.0896 C   0  0  0  0  0  0  0  0  0  0  0  0
   -9.2260    4.6154  -16.5731 C   0  0  0  0  0  0  0  0  0  0  0  0
   -8.8289    5.5802  -13.1110 N   0  0  0  0  0  0  0  0  0  0  0  0
   -8.1589    6.5893  -15.0953 O   0  0  0  0  0  0  0  0  0  0  0  0
   -8.9780    6.6233   -9.3614 O   0  0  0  0  0  0  0  0  0  0  0  0
   -9.3007    4.6064  -15.1429 O   0  0  0  0  0  0  0  0  0  0  0  0
   -9.1792    2.5861   -9.6332 S   0  0  0  0  0  0  0  0  0  0  0  0
   -8.9607    2.9367   -6.0474 H   0  0  0  0  0  0  0  0  0  0  0  0
   -9.2329    0.9856   -7.7902 H   0  0  0  0  0  0  0  0  0  0  0  0
   -9.7564    6.0143   -6.8156 H   0  0  0  0  0  0  0  0  0  0  0  0
   -8.1161    5.6252   -6.2607 H   0  0  0  0  0  0  0  0  0  0  0  0
  -10.5274    6.5043  -11.1160 H   0  0  0  0  0  0  0  0  0  0  0  0
  -11.0251    4.8974  -10.5855 H   0  0  0  0  0  0  0  0  0  0  0  0
   -7.3549    4.3216  -11.2022 H   0  0  0  0  0  0  0  0  0  0  0  0
   -6.7920    5.7746  -10.3944 H   0  0  0  0  0  0  0  0  0  0  0  0
   -9.8059    3.8311  -12.3985 H   0  0  0  0  0  0  0  0  0  0  0  0
  -10.8420    5.0821  -13.0766 H   0  0  0  0  0  0  0  0  0  0  0  0
   -8.0426    7.1849  -12.0600 H   0  0  0  0  0  0  0  0  0  0  0  0
   -6.8185    6.1513  -12.7960 H   0  0  0  0  0  0  0  0  0  0  0  0
   -8.2472    7.6764   -7.7602 H   0  0  0  0  0  0  0  0  0  0  0  0
   -7.1455    6.4492   -8.3863 H   0  0  0  0  0  0  0  0  0  0  0  0
   -7.2517    5.5243  -16.6225 H   0  0  0  0  0  0  0  0  0  0  0  0
   -7.2231    3.7467  -16.5892 H   0  0  0  0  0  0  0  0  0  0  0  0
   -7.6520    4.6234  -18.0743 H   0  0  0  0  0  0  0  0  0  0  0  0
  -10.9773    3.3455  -16.7861 H   0  0  0  0  0  0  0  0  0  0  0  0
   -9.4721    2.4564  -16.6347 H   0  0  0  0  0  0  0  0  0  0  0  0
   -9.8618    3.2673  -18.1678 H   0  0  0  0  0  0  0  0  0  0  0  0
  -10.9948    5.8614  -16.7957 H   0  0  0  0  0  0  0  0  0  0  0  0
   -9.4763    6.7799  -16.7075 H   0  0  0  0  0  0  0  0  0  0  0  0
   -9.9231    5.8969  -18.1850 H   0  0  0  0  0  0  0  0  0  0  0  0
  1  2  2  0  0  0  0
  1  3  1  0  0  0  0
  2 21  1  0  0  0  0
  3  4  2  0  0  0  0
  3  6  1  0  0  0  0
  4 12  1  0  0  0  0
  4 21  1  0  0  0  0
  5 17  1  0  0  0  0
  5 18  2  0  0  0  0
  5 20  1  0  0  0  0
  6 11  1  0  0  0  0
  7  9  1  0  0  0  0
  7 12  1  0  0  0  0
  8 10  1  0  0  0  0
  8 12  1  0  0  0  0
  9 17  1  0  0  0  0
 10 17  1  0  0  0  0
 11 19  1  0  0  0  0
 12 19  1  0  0  0  0
 13 16  1  0  0  0  0
 14 16  1  0  0  0  0
 15 16  1  0  0  0  0
 16 20  1  0  0  0  0
  1 22  1  0  0  0  0
  2 23  1  0  0  0  0
  6 24  1  0  0  0  0
  6 25  1  0  0  0  0
  7 26  1  0  0  0  0
  7 27  1  0  0  0  0
  8 28  1  0  0  0  0
  8 29  1  0  0  0  0
  9 30  1  0  0  0  0
  9 31  1  0  0  0  0
 10 32  1  0  0  0  0
 10 33  1  0  0  0  0
 11 34  1  0  0  0  0
 11 35  1  0  0  0  0
 13 36  1  0  0  0  0
 13 37  1  0  0  0  0
 13 38  1  0  0  0  0
 14 39  1  0  0  0  0
 14 40  1  0  0  0  0
 14 41  1  0  0  0  0
 15 42  1  0  0  0  0
 15 43  1  0  0  0  0
 15 44  1  0  0  0  0
M  END
> <id>
EN300-7376395

> <smiles>
CC(C)(C)OC(=O)N1CCC2(CC1)OCCC=3C=CSC32

> <MDLNUMBER>
MFCD22372746

> <IUPAC Name>
tert-butyl 4',5'-dihydrospiro[piperidine-4,7'-thieno[2,3-c]pyran]-1-carboxylate

> <URL>
https://www.enaminestore.com/catalog/EN300-7376395

> <ROCS_ShapeQuery>
_x0404_0B

> <ROCS_TanimotoCombo>
0.389 

> <ROCS_ShapeTanimoto>
0.309 

> <ROCS_ColorTanimoto>
0.080 

> <ROCS_RefTversky>
0.279 

> <ROCS_RefColorTversky>
0.084 

> <ROCS_RefTverskyCombo>
0.363 

> <ROCS_FitTversky>
1.514 

> <ROCS_FitColorTversky>
0.639 

> <ROCS_FitTverskyCombo>
2.153 

> <ROCS_ColorScore>
-6.060

> <ROCS_Overlap>
1863.646

> <ROCS_Rank>
195                 

$$$$
untitled-dbase-14977_85
  -OEChem-08212314543D

 42 44  0     1  0  0  0  0  0999 V2000
   -8.7887    3.7970   -6.9889 C   0  0  0  0  0  0  0  0  0  0  0  0
   -9.1894    2.5589   -7.5304 C   0  0  0  0  0  0  0  0  0  0  0  0
   -8.6923    4.6287   -8.0775 C   0  0  0  0  0  0  0  0  0  0  0  0
   -8.5319    5.6259  -14.3215 C   0  0  0  0  0  0  0  0  0  0  0  0
  -10.3306    4.3062  -11.2360 C   0  0  0  0  0  0  0  0  0  0  0  0
  -10.1587    4.5559  -12.7350 C   0  0  0  0  0  0  0  0  0  0  0  0
   -8.5709    6.6080   -9.4763 C   0  0  0  0  0  0  0  0  0  0  0  0
   -8.6952    6.4258  -11.9787 C   0  0  0  0  0  0  0  0  0  0  0  0
   -8.2819    5.6963  -10.6855 C   0  0  2  0  0  0  0  0  0  0  0  0
   -8.9618    4.3073  -10.5483 C   0  0  1  0  0  0  0  0  0  0  0  0
   -6.5736    4.8822  -16.2703 C   0  0  0  0  0  0  0  0  0  0  0  0
   -8.1976    3.0902  -16.9489 C   0  0  0  0  0  0  0  0  0  0  0  0
   -8.8393    5.5083  -17.1698 C   0  0  0  0  0  0  0  0  0  0  0  0
   -8.0476    4.4882  -16.3529 C   0  0  0  0  0  0  0  0  0  0  0  0
   -9.3260    2.5933   -8.8596 N   0  0  0  0  0  0  0  0  0  0  0  0
   -9.0232    3.8700   -9.1640 N   0  0  0  0  0  0  0  0  0  0  0  0
   -8.3410    5.9202   -8.2192 N   0  0  0  0  0  0  0  0  0  0  0  0
   -9.0808    5.5027  -13.0412 N   0  0  0  0  0  0  0  0  0  0  0  0
   -8.0572    6.6639  -14.7783 O   0  0  0  0  0  0  0  0  0  0  0  0
   -8.5845    4.4513  -15.0258 O   0  0  0  0  0  0  0  0  0  0  0  0
   -8.5951    4.0452   -5.9555 H   0  0  0  0  0  0  0  0  0  0  0  0
   -9.3852    1.6320   -7.0107 H   0  0  0  0  0  0  0  0  0  0  0  0
  -10.9771    5.0759  -10.8154 H   0  0  0  0  0  0  0  0  0  0  0  0
  -10.8276    3.3494  -11.0846 H   0  0  0  0  0  0  0  0  0  0  0  0
   -9.9177    3.6109  -13.2545 H   0  0  0  0  0  0  0  0  0  0  0  0
  -11.1134    4.9075  -13.1630 H   0  0  0  0  0  0  0  0  0  0  0  0
   -7.9262    7.4977   -9.5193 H   0  0  0  0  0  0  0  0  0  0  0  0
   -9.6082    6.9728   -9.4958 H   0  0  0  0  0  0  0  0  0  0  0  0
   -9.4904    7.1505  -11.7604 H   0  0  0  0  0  0  0  0  0  0  0  0
   -7.8418    7.0076  -12.3582 H   0  0  0  0  0  0  0  0  0  0  0  0
   -7.1930    5.5576  -10.7316 H   0  0  0  0  0  0  0  0  0  0  0  0
   -8.3109    3.5709  -11.0818 H   0  0  0  0  0  0  0  0  0  0  0  0
   -6.4617    5.8851  -15.8430 H   0  0  0  0  0  0  0  0  0  0  0  0
   -6.0014    4.1775  -15.6581 H   0  0  0  0  0  0  0  0  0  0  0  0
   -6.1222    4.9193  -17.2684 H   0  0  0  0  0  0  0  0  0  0  0  0
   -9.2536    2.8034  -17.0101 H   0  0  0  0  0  0  0  0  0  0  0  0
   -7.7105    2.3410  -16.3143 H   0  0  0  0  0  0  0  0  0  0  0  0
   -7.7633    3.0299  -17.9521 H   0  0  0  0  0  0  0  0  0  0  0  0
   -9.8966    5.2259  -17.2292 H   0  0  0  0  0  0  0  0  0  0  0  0
   -8.7733    6.5112  -16.7357 H   0  0  0  0  0  0  0  0  0  0  0  0
   -8.4721    5.5507  -18.2016 H   0  0  0  0  0  0  0  0  0  0  0  0
   -7.9980    6.4679   -7.4411 H   0  0  0  0  0  0  0  0  0  0  0  0
  1  2  1  0  0  0  0
  1  3  2  0  0  0  0
  2 15  2  0  0  0  0
  3 16  1  0  0  0  0
  3 17  1  0  0  0  0
  4 18  1  0  0  0  0
  4 19  2  0  0  0  0
  4 20  1  0  0  0  0
  5  6  1  0  0  0  0
  5 10  1  0  0  0  0
  6 18  1  0  0  0  0
  7  9  1  0  0  0  0
  7 17  1  0  0  0  0
  8  9  1  0  0  0  0
  8 18  1  0  0  0  0
  9 10  1  0  0  0  0
 10 16  1  0  0  0  0
 11 14  1  0  0  0  0
 12 14  1  0  0  0  0
 13 14  1  0  0  0  0
 14 20  1  0  0  0  0
 15 16  1  0  0  0  0
  1 21  1  0  0  0  0
  2 22  1  0  0  0  0
  5 23  1  0  0  0  0
  5 24  1  0  0  0  0
  6 25  1  0  0  0  0
  6 26  1  0  0  0  0
  7 27  1  0  0  0  0
  7 28  1  0  0  0  0
  8 29  1  0  0  0  0
  8 30  1  0  0  0  0
  9 31  1  0  0  0  0
 10 32  1  0  0  0  0
 11 33  1  0  0  0  0
 11 34  1  0  0  0  0
 11 35  1  0  0  0  0
 12 36  1  0  0  0  0
 12 37  1  0  0  0  0
 12 38  1  0  0  0  0
 13 39  1  0  0  0  0
 13 40  1  0  0  0  0
 13 41  1  0  0  0  0
 17 42  1  0  0  0  0
M  END
> <id>
EN300-1118511

> <smiles>
CC(C)(C)OC(=O)N1CCC2C(CNC3=CC=NN23)C1

> <IUPAC Name>
tert-butyl 2,3,7,11-tetraazatricyclo[7.4.0.0,2,6]trideca-3,5-diene-11-carboxylate

> <CAS>
1699473-51-2

> <URL>
https://www.enaminestore.com/catalog/EN300-1118511

> <ROCS_ShapeQuery>
_x0404_0B

> <ROCS_TanimotoCombo>
0.389 

> <ROCS_ShapeTanimoto>
0.314 

> <ROCS_ColorTanimoto>
0.075 

> <ROCS_RefTversky>
0.282 

> <ROCS_RefColorTversky>
0.080 

> <ROCS_RefTverskyCombo>
0.362 

> <ROCS_FitTversky>
1.546 

> <ROCS_FitColorTversky>
0.553 

> <ROCS_FitTverskyCombo>
2.099 

> <ROCS_ColorScore>
-5.787

> <ROCS_Overlap>
1882.851

> <ROCS_Rank>
196                 

$$$$
untitled-dbase-629_0
  -OEChem-08212314543D

 32 35  0     0  0  0  0  0  0999 V2000
   -7.9992    4.9913  -17.3304 C   0  0  0  0  0  0  0  0  0  0  0  0
   -7.9263    2.4328   -9.4457 C   0  0  0  0  0  0  0  0  0  0  0  0
   -8.3174    3.4627   -8.5927 C   0  0  0  0  0  0  0  0  0  0  0  0
   -8.4197    6.2457  -16.9149 C   0  0  0  0  0  0  0  0  0  0  0  0
   -7.7761    3.9828  -16.3942 C   0  0  0  0  0  0  0  0  0  0  0  0
   -7.8691    2.6479  -10.8229 C   0  0  0  0  0  0  0  0  0  0  0  0
   -8.6530    4.7121   -9.1144 C   0  0  0  0  0  0  0  0  0  0  0  0
   -8.6273    6.5247  -15.5589 C   0  0  0  0  0  0  0  0  0  0  0  0
   -7.9790    4.2415  -15.0216 C   0  0  0  0  0  0  0  0  0  0  0  0
   -8.2049    3.9000  -11.3494 C   0  0  0  0  0  0  0  0  0  0  0  0
   -8.5997    4.9413  -10.4935 C   0  0  0  0  0  0  0  0  0  0  0  0
   -8.4048    5.5132  -14.6037 C   0  0  0  0  0  0  0  0  0  0  0  0
   -7.8371    3.4352  -13.8682 C   0  0  0  0  0  0  0  0  0  0  0  0
   -8.1685    4.1999  -12.7752 C   0  0  0  0  0  0  0  0  0  0  0  0
   -8.9016    6.4511  -12.2671 C   0  0  0  0  0  0  0  0  0  0  0  0
   -9.2701    7.8081  -12.7726 C   0  0  0  0  0  0  0  0  0  0  0  0
   -8.9440    6.2145  -10.9896 N   0  0  0  0  0  0  0  0  0  0  0  0
   -8.5181    5.4730  -13.2106 N   0  0  0  0  0  0  0  0  0  0  0  0
   -7.4409    2.1427  -13.8883 N   0  0  0  0  0  0  0  0  0  0  0  0
   -7.8432    4.7924  -18.3867 H   0  0  0  0  0  0  0  0  0  0  0  0
   -7.6656    1.4605   -9.0374 H   0  0  0  0  0  0  0  0  0  0  0  0
   -8.3613    3.2928   -7.5208 H   0  0  0  0  0  0  0  0  0  0  0  0
   -8.5915    7.0263  -17.6517 H   0  0  0  0  0  0  0  0  0  0  0  0
   -7.4469    3.0030  -16.7304 H   0  0  0  0  0  0  0  0  0  0  0  0
   -7.5594    1.8169  -11.4463 H   0  0  0  0  0  0  0  0  0  0  0  0
   -8.9564    5.5073   -8.4379 H   0  0  0  0  0  0  0  0  0  0  0  0
   -8.9555    7.5202  -15.2899 H   0  0  0  0  0  0  0  0  0  0  0  0
   -8.3839    8.4409  -12.8096 H   0  0  0  0  0  0  0  0  0  0  0  0
  -10.0084    8.2606  -12.1109 H   0  0  0  0  0  0  0  0  0  0  0  0
   -9.6962    7.7260  -13.7723 H   0  0  0  0  0  0  0  0  0  0  0  0
   -7.3034    1.6000  -13.0242 H   0  0  0  0  0  0  0  0  0  0  0  0
   -7.1676    1.6690  -14.7608 H   0  0  0  0  0  0  0  0  0  0  0  0
  1  4  2  0  0  0  0
  1  5  1  0  0  0  0
  2  3  2  0  0  0  0
  2  6  1  0  0  0  0
  3  7  1  0  0  0  0
  4  8  1  0  0  0  0
  5  9  2  0  0  0  0
  6 10  2  0  0  0  0
  7 11  2  0  0  0  0
  8 12  2  0  0  0  0
  9 12  1  0  0  0  0
  9 13  1  0  0  0  0
 10 11  1  0  0  0  0
 10 14  1  0  0  0  0
 11 17  1  0  0  0  0
 12 18  1  0  0  0  0
 13 14  2  0  0  0  0
 13 19  1  0  0  0  0
 14 18  1  0  0  0  0
 15 16  1  0  0  0  0
 15 17  2  0  0  0  0
 15 18  1  0  0  0  0
  1 20  1  0  0  0  0
  2 21  1  0  0  0  0
  3 22  1  0  0  0  0
  4 23  1  0  0  0  0
  5 24  1  0  0  0  0
  6 25  1  0  0  0  0
  7 26  1  0  0  0  0
  8 27  1  0  0  0  0
 16 28  1  0  0  0  0
 16 29  1  0  0  0  0
 16 30  1  0  0  0  0
 19 31  1  0  0  0  0
 19 32  1  0  0  0  0
M  END
> <id>
EN300-08700

> <smiles>
CC1=NC=2C=CC=CC2C3=C(N)C=4C=CC=CC4N13

> <MDLNUMBER>
MFCD04623039

> <IUPAC Name>
6-methylindolo[1,2-c]quinazolin-12-amine

> <CAS>
55338-12-0

> <Purity>
95

> <URL>
https://www.enaminestore.com/catalog/EN300-08700

> <ROCS_ShapeQuery>
_x0404_0B

> <ROCS_TanimotoCombo>
0.388 

> <ROCS_ShapeTanimoto>
0.280 

> <ROCS_ColorTanimoto>
0.109 

> <ROCS_RefTversky>
0.258 

> <ROCS_RefColorTversky>
0.112 

> <ROCS_RefTverskyCombo>
0.371 

> <ROCS_FitTversky>
1.422 

> <ROCS_FitColorTversky>
0.773 

> <ROCS_FitTverskyCombo>
2.195 

> <ROCS_ColorScore>
-8.091

> <ROCS_Overlap>
1723.628

> <ROCS_Rank>
197                 

$$$$
untitled-dbase-28741_83
  -OEChem-08212314543D

 41 43  0     1  0  0  0  0  0999 V2000
   -9.1740    2.6243   -7.5243 C   0  0  0  0  0  0  0  0  0  0  0  0
   -8.6961    4.5900   -8.0784 C   0  0  0  0  0  0  0  0  0  0  0  0
   -8.5328    5.6285  -14.3240 C   0  0  0  0  0  0  0  0  0  0  0  0
  -10.3346    4.2861  -11.2505 C   0  0  0  0  0  0  0  0  0  0  0  0
  -10.1601    4.5439  -12.7478 C   0  0  0  0  0  0  0  0  0  0  0  0
   -8.5667    6.5765   -9.4726 C   0  0  0  0  0  0  0  0  0  0  0  0
   -8.7031    6.4124  -11.9763 C   0  0  0  0  0  0  0  0  0  0  0  0
   -8.2857    5.6732  -10.6902 C   0  0  2  0  0  0  0  0  0  0  0  0
   -8.9679    4.2851  -10.5594 C   0  0  1  0  0  0  0  0  0  0  0  0
   -6.5658    4.9033  -16.2708 C   0  0  0  0  0  0  0  0  0  0  0  0
   -8.1809    3.1091  -16.9650 C   0  0  0  0  0  0  0  0  0  0  0  0
   -8.8311    5.5261  -17.1738 C   0  0  0  0  0  0  0  0  0  0  0  0
   -8.0380    4.5042  -16.3604 C   0  0  0  0  0  0  0  0  0  0  0  0
   -8.7761    3.8263   -7.0096 N   0  0  0  0  0  0  0  0  0  0  0  0
   -9.3360    2.5839   -8.8484 N   0  0  0  0  0  0  0  0  0  0  0  0
   -9.0338    3.8505   -9.1775 N   0  0  0  0  0  0  0  0  0  0  0  0
   -8.3320    5.8797   -8.2213 N   0  0  0  0  0  0  0  0  0  0  0  0
   -9.0847    5.4961  -13.0461 N   0  0  0  0  0  0  0  0  0  0  0  0
   -8.0606    6.6708  -14.7735 O   0  0  0  0  0  0  0  0  0  0  0  0
   -8.5789    4.4576  -15.0351 O   0  0  0  0  0  0  0  0  0  0  0  0
   -9.3494    1.7506   -6.9146 H   0  0  0  0  0  0  0  0  0  0  0  0
  -10.9837    5.0527  -10.8278 H   0  0  0  0  0  0  0  0  0  0  0  0
  -10.8305    3.3277  -11.1046 H   0  0  0  0  0  0  0  0  0  0  0  0
   -9.9145    3.6026  -13.2717 H   0  0  0  0  0  0  0  0  0  0  0  0
  -11.1152    4.8944  -13.1760 H   0  0  0  0  0  0  0  0  0  0  0  0
   -7.9202    7.4650   -9.5119 H   0  0  0  0  0  0  0  0  0  0  0  0
   -9.6033    6.9436   -9.4844 H   0  0  0  0  0  0  0  0  0  0  0  0
   -9.5014    7.1311  -11.7515 H   0  0  0  0  0  0  0  0  0  0  0  0
   -7.8525    7.0007  -12.3510 H   0  0  0  0  0  0  0  0  0  0  0  0
   -7.1976    5.5322  -10.7428 H   0  0  0  0  0  0  0  0  0  0  0  0
   -8.3165    3.5479  -11.0913 H   0  0  0  0  0  0  0  0  0  0  0  0
   -6.4590    5.9041  -15.8374 H   0  0  0  0  0  0  0  0  0  0  0  0
   -5.9928    4.1972  -15.6609 H   0  0  0  0  0  0  0  0  0  0  0  0
   -6.1115    4.9479  -17.2673 H   0  0  0  0  0  0  0  0  0  0  0  0
   -9.2356    2.8187  -17.0311 H   0  0  0  0  0  0  0  0  0  0  0  0
   -7.6930    2.3581  -16.3332 H   0  0  0  0  0  0  0  0  0  0  0  0
   -7.7433    3.0564  -17.9671 H   0  0  0  0  0  0  0  0  0  0  0  0
   -9.8871    5.2401  -17.2381 H   0  0  0  0  0  0  0  0  0  0  0  0
   -8.7702    6.5267  -16.7336 H   0  0  0  0  0  0  0  0  0  0  0  0
   -8.4608    5.5759  -18.2042 H   0  0  0  0  0  0  0  0  0  0  0  0
   -7.9800    6.4185   -7.4415 H   0  0  0  0  0  0  0  0  0  0  0  0
  1 14  1  0  0  0  0
  1 15  2  0  0  0  0
  2 14  2  0  0  0  0
  2 16  1  0  0  0  0
  2 17  1  0  0  0  0
  3 18  1  0  0  0  0
  3 19  2  0  0  0  0
  3 20  1  0  0  0  0
  4  5  1  0  0  0  0
  4  9  1  0  0  0  0
  5 18  1  0  0  0  0
  6  8  1  0  0  0  0
  6 17  1  0  0  0  0
  7  8  1  0  0  0  0
  7 18  1  0  0  0  0
  8  9  1  0  0  0  0
  9 16  1  0  0  0  0
 10 13  1  0  0  0  0
 11 13  1  0  0  0  0
 12 13  1  0  0  0  0
 13 20  1  0  0  0  0
 15 16  1  0  0  0  0
  1 21  1  0  0  0  0
  4 22  1  0  0  0  0
  4 23  1  0  0  0  0
  5 24  1  0  0  0  0
  5 25  1  0  0  0  0
  6 26  1  0  0  0  0
  6 27  1  0  0  0  0
  7 28  1  0  0  0  0
  7 29  1  0  0  0  0
  8 30  1  0  0  0  0
  9 31  1  0  0  0  0
 10 32  1  0  0  0  0
 10 33  1  0  0  0  0
 10 34  1  0  0  0  0
 11 35  1  0  0  0  0
 11 36  1  0  0  0  0
 11 37  1  0  0  0  0
 12 38  1  0  0  0  0
 12 39  1  0  0  0  0
 12 40  1  0  0  0  0
 17 41  1  0  0  0  0
M  END
> <id>
EN300-1118514

> <smiles>
CC(C)(C)OC(=O)N1CCC2C(CNC3=NC=NN23)C1

> <IUPAC Name>
tert-butyl 2,3,5,7,11-pentaazatricyclo[7.4.0.0,2,6]trideca-3,5-diene-11-carboxylate

> <CAS>
1702559-22-5

> <URL>
https://www.enaminestore.com/catalog/EN300-1118514

> <ROCS_ShapeQuery>
_x0404_0B

> <ROCS_TanimotoCombo>
0.388 

> <ROCS_ShapeTanimoto>
0.314 

> <ROCS_ColorTanimoto>
0.074 

> <ROCS_RefTversky>
0.283 

> <ROCS_RefColorTversky>
0.080 

> <ROCS_RefTverskyCombo>
0.363 

> <ROCS_FitTversky>
1.544 

> <ROCS_FitColorTversky>
0.505 

> <ROCS_FitTverskyCombo>
2.049 

> <ROCS_ColorScore>
-5.769

> <ROCS_Overlap>
1887.168

> <ROCS_Rank>
198                 

$$$$
untitled-dbase-8938_10
  -OEChem-08212314543D

 31 32  0     0  0  0  0  0  0999 V2000
   -7.8015    4.2506  -14.4951 C   0  0  0  0  0  0  0  0  0  0  0  0
   -8.9095    6.8104  -11.9516 C   0  0  0  0  0  0  0  0  0  0  0  0
   -8.4946    5.7437  -12.7654 C   0  0  0  0  0  0  0  0  0  0  0  0
   -8.1872    5.5348  -14.1161 C   0  0  0  0  0  0  0  0  0  0  0  0
   -8.3967    4.6671  -11.8958 C   0  0  0  0  0  0  0  0  0  0  0  0
   -7.7428    3.2570  -13.5264 C   0  0  0  0  0  0  0  0  0  0  0  0
   -8.8031    4.4282   -9.4475 C   0  0  0  0  0  0  0  0  0  0  0  0
  -10.2798    2.8551   -7.6094 C   0  0  0  0  0  0  0  0  0  0  0  0
   -9.5430    0.8883   -8.9871 C   0  0  0  0  0  0  0  0  0  0  0  0
   -7.8317    2.3106   -7.8223 C   0  0  0  0  0  0  0  0  0  0  0  0
   -9.1890    2.2998   -8.5241 C   0  0  0  0  0  0  0  0  0  0  0  0
   -9.0660    6.4583  -10.6742 N   0  0  0  0  0  0  0  0  0  0  0  0
   -8.0294    3.4095  -12.2123 N   0  0  0  0  0  0  0  0  0  0  0  0
   -8.7491    5.1383  -10.6468 N   0  0  0  0  0  0  0  0  0  0  0  0
   -8.5931    4.9832   -8.3811 O   0  0  0  0  0  0  0  0  0  0  0  0
   -8.2576    6.5379  -15.0401 O   0  0  0  0  0  0  0  0  0  0  0  0
   -7.3606    1.9976  -13.9211 O   0  0  0  0  0  0  0  0  0  0  0  0
   -9.1064    3.1272   -9.6882 O   0  0  0  0  0  0  0  0  0  0  0  0
   -7.5523    4.0336  -15.5294 H   0  0  0  0  0  0  0  0  0  0  0  0
   -9.1062    7.8351  -12.2333 H   0  0  0  0  0  0  0  0  0  0  0  0
  -10.0294    3.8682   -7.2749 H   0  0  0  0  0  0  0  0  0  0  0  0
  -11.2516    2.8853   -8.1128 H   0  0  0  0  0  0  0  0  0  0  0  0
  -10.3780    2.2459   -6.7036 H   0  0  0  0  0  0  0  0  0  0  0  0
   -8.7631    0.4859   -9.6436 H   0  0  0  0  0  0  0  0  0  0  0  0
  -10.4691    0.8905   -9.5733 H   0  0  0  0  0  0  0  0  0  0  0  0
   -9.6700    0.2054   -8.1408 H   0  0  0  0  0  0  0  0  0  0  0  0
   -7.0492    1.9123   -8.4782 H   0  0  0  0  0  0  0  0  0  0  0  0
   -7.5443    3.3215   -7.5156 H   0  0  0  0  0  0  0  0  0  0  0  0
   -7.8472    1.6685   -6.9342 H   0  0  0  0  0  0  0  0  0  0  0  0
   -8.0099    6.2016  -15.9144 H   0  0  0  0  0  0  0  0  0  0  0  0
   -7.3609    1.4055  -13.1577 H   0  0  0  0  0  0  0  0  0  0  0  0
  1  4  1  0  0  0  0
  1  6  2  0  0  0  0
  2  3  1  0  0  0  0
  2 12  2  0  0  0  0
  3  4  2  0  0  0  0
  3  5  1  0  0  0  0
  4 16  1  0  0  0  0
  5 13  2  0  0  0  0
  5 14  1  0  0  0  0
  6 13  1  0  0  0  0
  6 17  1  0  0  0  0
  7 14  1  0  0  0  0
  7 15  2  0  0  0  0
  7 18  1  0  0  0  0
  8 11  1  0  0  0  0
  9 11  1  0  0  0  0
 10 11  1  0  0  0  0
 11 18  1  0  0  0  0
 12 14  1  0  0  0  0
  1 19  1  0  0  0  0
  2 20  1  0  0  0  0
  8 21  1  0  0  0  0
  8 22  1  0  0  0  0
  8 23  1  0  0  0  0
  9 24  1  0  0  0  0
  9 25  1  0  0  0  0
  9 26  1  0  0  0  0
 10 27  1  0  0  0  0
 10 28  1  0  0  0  0
 10 29  1  0  0  0  0
 16 30  1  0  0  0  0
 17 31  1  0  0  0  0
M  END
> <id>
EN300-319681

> <smiles>
CC(C)(C)OC(=O)N1N=CC=2C(O)=CC(O)=NC12

> <MDLNUMBER>
MFCD30477278

> <IUPAC Name>
tert-butyl 4,6-dihydroxy-1H-pyrazolo[3,4-b]pyridine-1-carboxylate

> <CAS>
2060031-37-8

> <URL>
https://www.enaminestore.com/catalog/EN300-319681

> <ROCS_ShapeQuery>
_x0404_0B

> <ROCS_TanimotoCombo>
0.388 

> <ROCS_ShapeTanimoto>
0.259 

> <ROCS_ColorTanimoto>
0.130 

> <ROCS_RefTversky>
0.241 

> <ROCS_RefColorTversky>
0.136 

> <ROCS_RefTverskyCombo>
0.377 

> <ROCS_FitTversky>
1.403 

> <ROCS_FitColorTversky>
0.738 

> <ROCS_FitTverskyCombo>
2.141 

> <ROCS_ColorScore>
-9.826

> <ROCS_Overlap>
1604.402

> <ROCS_Rank>
199                 

$$$$
untitled-dbase-43937_222
  -OEChem-08212314543D

 42 43  0     1  0  0  0  0  0999 V2000
   -8.4935    5.6562  -14.3507 C   0  0  0  0  0  0  0  0  0  0  0  0
   -7.9183    5.8205  -10.6970 C   0  0  0  0  0  0  0  0  0  0  0  0
   -9.3473    3.7683  -11.1974 C   0  0  0  0  0  0  0  0  0  0  0  0
   -8.6012    6.3203  -11.9656 C   0  0  0  0  0  0  0  0  0  0  0  0
   -8.6923    3.8942  -12.5681 C   0  0  0  0  0  0  0  0  0  0  0  0
   -9.4505    4.4285   -7.8932 C   0  0  0  0  0  0  0  0  0  0  0  0
   -8.5059    3.2636   -8.0980 C   0  0  2  0  0  0  0  0  0  0  0  0
   -7.6385    3.7876   -9.2229 C   0  0  2  0  0  0  0  0  0  0  0  0
   -8.6194    4.5807  -10.1032 C   0  0  0  0  0  0  0  0  0  0  0  0
   -7.0663    5.5846  -16.8292 C   0  0  0  0  0  0  0  0  0  0  0  0
   -8.4112    3.5237  -17.3322 C   0  0  0  0  0  0  0  0  0  0  0  0
   -9.5729    5.7264  -17.0059 C   0  0  0  0  0  0  0  0  0  0  0  0
   -8.3880    4.8569  -16.5879 C   0  0  0  0  0  0  0  0  0  0  0  0
   -8.6017    5.2910  -13.0054 N   0  0  0  0  0  0  0  0  0  0  0  0
   -8.3941    6.8154  -14.7482 O   0  0  0  0  0  0  0  0  0  0  0  0
   -9.6412    5.0434   -9.1812 O   0  0  0  0  0  0  0  0  0  0  0  0
   -9.2604    2.1256   -8.4913 O   0  0  0  0  0  0  0  0  0  0  0  0
   -6.9053    2.7897   -9.8990 O   0  0  0  0  0  0  0  0  0  0  0  0
   -8.5026    4.5721  -15.1890 O   0  0  0  0  0  0  0  0  0  0  0  0
   -6.8722    5.5786  -10.9253 H   0  0  0  0  0  0  0  0  0  0  0  0
   -7.9113    6.6468   -9.9766 H   0  0  0  0  0  0  0  0  0  0  0  0
  -10.3854    4.1140  -11.2944 H   0  0  0  0  0  0  0  0  0  0  0  0
   -9.3788    2.7090  -10.9079 H   0  0  0  0  0  0  0  0  0  0  0  0
   -9.6476    6.5812  -11.7672 H   0  0  0  0  0  0  0  0  0  0  0  0
   -8.1034    7.2281  -12.3221 H   0  0  0  0  0  0  0  0  0  0  0  0
   -7.7034    3.4187  -12.5466 H   0  0  0  0  0  0  0  0  0  0  0  0
   -9.2802    3.3590  -13.3287 H   0  0  0  0  0  0  0  0  0  0  0  0
  -10.4280    4.1108   -7.5129 H   0  0  0  0  0  0  0  0  0  0  0  0
   -9.0474    5.1685   -7.1947 H   0  0  0  0  0  0  0  0  0  0  0  0
   -7.9541    3.0482   -7.2155 H   0  0  0  0  0  0  0  0  0  0  0  0
   -6.8321    4.4993   -8.7828 H   0  0  0  0  0  0  0  0  0  0  0  0
   -7.0457    6.5421  -16.2966 H   0  0  0  0  0  0  0  0  0  0  0  0
   -6.2104    4.9858  -16.5012 H   0  0  0  0  0  0  0  0  0  0  0  0
   -6.9375    5.8193  -17.8921 H   0  0  0  0  0  0  0  0  0  0  0  0
   -9.3577    2.9981  -17.1619 H   0  0  0  0  0  0  0  0  0  0  0  0
   -7.6193    2.8593  -16.9677 H   0  0  0  0  0  0  0  0  0  0  0  0
   -8.2798    3.6606  -18.4105 H   0  0  0  0  0  0  0  0  0  0  0  0
  -10.5211    5.2046  -16.8329 H   0  0  0  0  0  0  0  0  0  0  0  0
   -9.5934    6.6722  -16.4549 H   0  0  0  0  0  0  0  0  0  0  0  0
   -9.5337    5.9489  -18.0784 H   0  0  0  0  0  0  0  0  0  0  0  0
   -8.6334    1.3911   -8.6167 H   0  0  0  0  0  0  0  0  0  0  0  0
   -6.3361    2.3701   -9.2360 H   0  0  0  0  0  0  0  0  0  0  0  0
  1 14  1  0  0  0  0
  1 15  2  0  0  0  0
  1 19  1  0  0  0  0
  2  4  1  0  0  0  0
  2  9  1  0  0  0  0
  3  5  1  0  0  0  0
  3  9  1  0  0  0  0
  4 14  1  0  0  0  0
  5 14  1  0  0  0  0
  6  7  1  0  0  0  0
  6 16  1  0  0  0  0
  7  8  1  0  0  0  0
  7 17  1  1  0  0  0
  8  9  1  0  0  0  0
  8 18  1  1  0  0  0
  9 16  1  0  0  0  0
 10 13  1  0  0  0  0
 11 13  1  0  0  0  0
 12 13  1  0  0  0  0
 13 19  1  0  0  0  0
  2 20  1  0  0  0  0
  2 21  1  0  0  0  0
  3 22  1  0  0  0  0
  3 23  1  0  0  0  0
  4 24  1  0  0  0  0
  4 25  1  0  0  0  0
  5 26  1  0  0  0  0
  5 27  1  0  0  0  0
  6 28  1  0  0  0  0
  6 29  1  0  0  0  0
  7 30  1  0  0  0  0
  8 31  1  0  0  0  0
 10 32  1  0  0  0  0
 10 33  1  0  0  0  0
 10 34  1  0  0  0  0
 11 35  1  0  0  0  0
 11 36  1  0  0  0  0
 11 37  1  0  0  0  0
 12 38  1  0  0  0  0
 12 39  1  0  0  0  0
 12 40  1  0  0  0  0
 17 41  1  0  0  0  0
 18 42  1  0  0  0  0
M  END
> <id>
EN300-28228920

> <smiles>
CC(C)(C)OC(=O)N1CCC2(CC1)OC[C@@H](O)[C@H]2O |&1:15,17,r|

> <IUPAC Name>
rac-tert-butyl (3R,4R)-3,4-dihydroxy-1-oxa-8-azaspiro[4.5]decane-8-carboxylate

> <CAS>
2639390-43-3

> <URL>
https://www.enaminestore.com/catalog/EN300-28228920

> <ROCS_ShapeQuery>
_x0404_0B

> <ROCS_TanimotoCombo>
0.388 

> <ROCS_ShapeTanimoto>
0.304 

> <ROCS_ColorTanimoto>
0.084 

> <ROCS_RefTversky>
0.273 

> <ROCS_RefColorTversky>
0.091 

> <ROCS_RefTverskyCombo>
0.364 

> <ROCS_FitTversky>
1.588 

> <ROCS_FitColorTversky>
0.533 

> <ROCS_FitTverskyCombo>
2.121 

> <ROCS_ColorScore>
-6.570

> <ROCS_Overlap>
1820.501

> <ROCS_Rank>
200                 

$$$$
untitled-dbase-30744_0
  -OEChem-08212314543D

 34 35  0     0  0  0  0  0  0999 V2000
   -9.2216    4.8011   -7.1505 C   0  0  0  0  0  0  0  0  0  0  0  0
   -8.9439    5.6232   -9.4316 C   0  0  0  0  0  0  0  0  0  0  0  0
   -9.1069    4.5536   -8.5536 C   0  0  0  0  0  0  0  0  0  0  0  0
   -8.8378    5.3408  -10.7770 C   0  0  0  0  0  0  0  0  0  0  0  0
   -8.8973    4.0153  -11.1984 C   0  0  0  0  0  0  0  0  0  0  0  0
   -9.1548    3.2594   -9.0744 C   0  0  0  0  0  0  0  0  0  0  0  0
   -8.4677    5.7968  -14.3869 C   0  0  0  0  0  0  0  0  0  0  0  0
   -8.6599    6.2583  -11.9351 C   0  0  0  0  0  0  0  0  0  0  0  0
   -8.7625    3.9389  -12.6891 C   0  0  0  0  0  0  0  0  0  0  0  0
   -6.9755    5.8644  -16.8233 C   0  0  0  0  0  0  0  0  0  0  0  0
   -8.3191    3.8485  -17.4867 C   0  0  0  0  0  0  0  0  0  0  0  0
   -9.4756    6.0361  -17.0570 C   0  0  0  0  0  0  0  0  0  0  0  0
   -8.3077    5.1336  -16.6618 C   0  0  0  0  0  0  0  0  0  0  0  0
   -9.3148    5.0020   -6.0113 N   0  0  0  0  0  0  0  0  0  0  0  0
   -9.0533    2.9546  -10.3908 N   0  0  0  0  0  0  0  0  0  0  0  0
   -8.6210    5.3475  -13.0858 N   0  0  0  0  0  0  0  0  0  0  0  0
   -8.3514    6.9796  -14.6992 O   0  0  0  0  0  0  0  0  0  0  0  0
   -9.3149    2.1920   -8.2262 O   0  0  0  0  0  0  0  0  0  0  0  0
   -8.4614    4.7650  -15.2867 O   0  0  0  0  0  0  0  0  0  0  0  0
   -8.9007    6.6487   -9.0781 H   0  0  0  0  0  0  0  0  0  0  0  0
   -9.5020    6.9462  -12.0561 H   0  0  0  0  0  0  0  0  0  0  0  0
   -7.7168    6.8111  -11.8890 H   0  0  0  0  0  0  0  0  0  0  0  0
   -7.8679    3.3876  -12.9925 H   0  0  0  0  0  0  0  0  0  0  0  0
   -9.6554    3.5190  -13.1613 H   0  0  0  0  0  0  0  0  0  0  0  0
   -6.9633    6.7874  -16.2327 H   0  0  0  0  0  0  0  0  0  0  0  0
   -6.1324    5.2400  -16.5101 H   0  0  0  0  0  0  0  0  0  0  0  0
   -6.8169    6.1624  -17.8660 H   0  0  0  0  0  0  0  0  0  0  0  0
   -9.2731    3.3209  -17.3738 H   0  0  0  0  0  0  0  0  0  0  0  0
   -7.5414    3.1570  -17.1427 H   0  0  0  0  0  0  0  0  0  0  0  0
   -8.1581    4.0498  -18.5507 H   0  0  0  0  0  0  0  0  0  0  0  0
  -10.4313    5.5122  -16.9413 H   0  0  0  0  0  0  0  0  0  0  0  0
   -9.5050    6.9468  -16.4499 H   0  0  0  0  0  0  0  0  0  0  0  0
   -9.4063    6.3234  -18.1125 H   0  0  0  0  0  0  0  0  0  0  0  0
   -9.3283    1.3711   -8.7362 H   0  0  0  0  0  0  0  0  0  0  0  0
  1  3  1  0  0  0  0
  1 14  3  0  0  0  0
  2  3  1  0  0  0  0
  2  4  2  0  0  0  0
  3  6  2  0  0  0  0
  4  5  1  0  0  0  0
  4  8  1  0  0  0  0
  5  9  1  0  0  0  0
  5 15  2  0  0  0  0
  6 15  1  0  0  0  0
  6 18  1  0  0  0  0
  7 16  1  0  0  0  0
  7 17  2  0  0  0  0
  7 19  1  0  0  0  0
  8 16  1  0  0  0  0
  9 16  1  0  0  0  0
 10 13  1  0  0  0  0
 11 13  1  0  0  0  0
 12 13  1  0  0  0  0
 13 19  1  0  0  0  0
  2 20  1  0  0  0  0
  8 21  1  0  0  0  0
  8 22  1  0  0  0  0
  9 23  1  0  0  0  0
  9 24  1  0  0  0  0
 10 25  1  0  0  0  0
 10 26  1  0  0  0  0
 10 27  1  0  0  0  0
 11 28  1  0  0  0  0
 11 29  1  0  0  0  0
 11 30  1  0  0  0  0
 12 31  1  0  0  0  0
 12 32  1  0  0  0  0
 12 33  1  0  0  0  0
 18 34  1  0  0  0  0
M  END
> <id>
EN300-1588107

> <smiles>
CC(C)(C)OC(=O)N1CC=2C=C(C#N)C(O)=NC2C1

> <IUPAC Name>
tert-butyl 3-cyano-2-hydroxy-5H,6H,7H-pyrrolo[3,4-b]pyridine-6-carboxylate

> <CAS>
2116035-06-2

> <URL>
https://www.enaminestore.com/catalog/EN300-1588107

> <ROCS_ShapeQuery>
_x0404_0B

> <ROCS_TanimotoCombo>
0.388 

> <ROCS_ShapeTanimoto>
0.319 

> <ROCS_ColorTanimoto>
0.069 

> <ROCS_RefTversky>
0.284 

> <ROCS_RefColorTversky>
0.075 

> <ROCS_RefTverskyCombo>
0.359 

> <ROCS_FitTversky>
1.625 

> <ROCS_FitColorTversky>
0.472 

> <ROCS_FitTverskyCombo>
2.098 

> <ROCS_ColorScore>
-5.387

> <ROCS_Overlap>
1895.233

> <ROCS_Rank>
201                 

$$$$
untitled-dbase-18907_42
  -OEChem-08212314543D

 47 49  0     0  0  0  0  0  0999 V2000
   -8.9548    3.5398   -7.2788 C   0  0  0  0  0  0  0  0  0  0  0  0
   -9.1116    2.2536   -7.7899 C   0  0  0  0  0  0  0  0  0  0  0  0
   -8.9601    4.6417   -8.1371 C   0  0  0  0  0  0  0  0  0  0  0  0
   -9.2660    2.0653   -9.1614 C   0  0  0  0  0  0  0  0  0  0  0  0
   -9.1253    4.4663   -9.5185 C   0  0  0  0  0  0  0  0  0  0  0  0
   -9.2543    3.1665  -10.0243 C   0  0  0  0  0  0  0  0  0  0  0  0
   -7.8557    3.2953  -14.3820 C   0  0  0  0  0  0  0  0  0  0  0  0
   -8.4579    2.5334  -13.4572 C   0  0  0  0  0  0  0  0  0  0  0  0
   -9.1099    5.6863  -10.3683 C   0  0  0  0  0  0  0  0  0  0  0  0
   -9.1483    5.7004  -15.2253 C   0  0  0  0  0  0  0  0  0  0  0  0
   -8.2528    3.2568  -15.8277 C   0  0  0  0  0  0  0  0  0  0  0  0
   -8.1829    2.6010  -11.9908 C   0  0  0  0  0  0  0  0  0  0  0  0
   -9.9868    6.8194  -12.3764 C   0  0  0  0  0  0  0  0  0  0  0  0
  -10.8225    6.6071  -13.6372 C   0  0  0  0  0  0  0  0  0  0  0  0
   -7.7568    5.2249  -17.4132 C   0  0  0  0  0  0  0  0  0  0  0  0
   -9.7084    4.5484  -17.5677 C   0  0  0  0  0  0  0  0  0  0  0  0
   -8.7456    4.6407  -16.3341 C   0  0  0  0  0  0  0  0  0  0  0  0
  -11.2835    4.4200  -14.7053 C   0  0  0  0  0  0  0  0  0  0  0  0
   -9.8989    5.6605  -11.5106 N   0  0  0  0  0  0  0  0  0  0  0  0
   -8.5440    4.5661  -18.4709 N   0  0  0  0  0  0  0  0  0  0  0  0
  -10.3582    5.5311  -14.5208 N   0  0  0  0  0  0  0  0  0  0  0  0
   -8.4325    6.6488  -10.0132 O   0  0  0  0  0  0  0  0  0  0  0  0
   -8.4129    6.6777  -15.0023 O   0  0  0  0  0  0  0  0  0  0  0  0
   -9.4260    2.9416  -11.3625 O   0  0  0  0  0  0  0  0  0  0  0  0
   -8.8368    3.6867   -6.2089 H   0  0  0  0  0  0  0  0  0  0  0  0
   -9.1179    1.3997   -7.1188 H   0  0  0  0  0  0  0  0  0  0  0  0
   -8.8428    5.6264   -7.6984 H   0  0  0  0  0  0  0  0  0  0  0  0
   -9.4021    1.0578   -9.5382 H   0  0  0  0  0  0  0  0  0  0  0  0
   -7.0999    4.0098  -14.0873 H   0  0  0  0  0  0  0  0  0  0  0  0
   -9.2609    1.8567  -13.7703 H   0  0  0  0  0  0  0  0  0  0  0  0
   -7.3893    2.9013  -16.4212 H   0  0  0  0  0  0  0  0  0  0  0  0
   -9.0369    2.4952  -15.9888 H   0  0  0  0  0  0  0  0  0  0  0  0
   -7.8603    1.6185  -11.6283 H   0  0  0  0  0  0  0  0  0  0  0  0
   -7.3953    3.3364  -11.7780 H   0  0  0  0  0  0  0  0  0  0  0  0
   -8.9650    7.0986  -12.6696 H   0  0  0  0  0  0  0  0  0  0  0  0
  -10.3824    7.6477  -11.7748 H   0  0  0  0  0  0  0  0  0  0  0  0
  -11.8615    6.3729  -13.3518 H   0  0  0  0  0  0  0  0  0  0  0  0
  -10.8813    7.5501  -14.2044 H   0  0  0  0  0  0  0  0  0  0  0  0
   -7.7600    6.3206  -17.4936 H   0  0  0  0  0  0  0  0  0  0  0  0
   -6.7140    4.8941  -17.3555 H   0  0  0  0  0  0  0  0  0  0  0  0
  -10.3152    3.6400  -17.6464 H   0  0  0  0  0  0  0  0  0  0  0  0
  -10.3696    5.4163  -17.6940 H   0  0  0  0  0  0  0  0  0  0  0  0
  -11.0157    3.6016  -14.0209 H   0  0  0  0  0  0  0  0  0  0  0  0
  -12.3084    4.7570  -14.4904 H   0  0  0  0  0  0  0  0  0  0  0  0
  -11.2251    4.0631  -15.7441 H   0  0  0  0  0  0  0  0  0  0  0  0
  -10.4119    4.8317  -11.7369 H   0  0  0  0  0  0  0  0  0  0  0  0
   -8.6659    5.1120  -19.3189 H   0  0  0  0  0  0  0  0  0  0  0  0
  1  2  2  0  0  0  0
  1  3  1  0  0  0  0
  2  4  1  0  0  0  0
  3  5  2  0  0  0  0
  4  6  2  0  0  0  0
  5  6  1  0  0  0  0
  5  9  1  0  0  0  0
  6 24  1  0  0  0  0
  7  8  2  0  0  0  0
  7 11  1  0  0  0  0
  8 12  1  0  0  0  0
  9 19  1  0  0  0  0
  9 22  2  0  0  0  0
 10 17  1  0  0  0  0
 10 21  1  0  0  0  0
 10 23  2  0  0  0  0
 11 17  1  0  0  0  0
 12 24  1  0  0  0  0
 13 14  1  0  0  0  0
 13 19  1  0  0  0  0
 14 21  1  0  0  0  0
 15 17  1  0  0  0  0
 15 20  1  0  0  0  0
 16 17  1  0  0  0  0
 16 20  1  0  0  0  0
 18 21  1  0  0  0  0
  1 25  1  0  0  0  0
  2 26  1  0  0  0  0
  3 27  1  0  0  0  0
  4 28  1  0  0  0  0
  7 29  1  0  0  0  0
  8 30  1  0  0  0  0
 11 31  1  0  0  0  0
 11 32  1  0  0  0  0
 12 33  1  0  0  0  0
 12 34  1  0  0  0  0
 13 35  1  0  0  0  0
 13 36  1  0  0  0  0
 14 37  1  0  0  0  0
 14 38  1  0  0  0  0
 15 39  1  0  0  0  0
 15 40  1  0  0  0  0
 16 41  1  0  0  0  0
 16 42  1  0  0  0  0
 18 43  1  0  0  0  0
 18 44  1  0  0  0  0
 18 45  1  0  0  0  0
 19 46  1  0  0  0  0
 20 47  1  0  0  0  0
M  END
> <id>
EN300-1662305

> <smiles>
CN1CCNC(=O)C=2C=CC=CC2OC/C=C/CC3(CNC3)C1=O.OC(=O)C(F)(F)F

> <MDLNUMBER>
MFCD31616363

> <IUPAC Name>
(3'E)-8'-methyl-2',5',7',8',9',10',11',12'-octahydrospiro[azetidine-3,6'-[1,8,11]benzoxadiazacyclotetradecin]-3'-ene-7',12'-dione; trifluoroacetic acid

> <CAS>
2641565-81-1

> <Purity>
95

> <URL>
https://www.enaminestore.com/catalog/EN300-1662305

> <Saltdate>
OC(=O)C(F)(F)F

> <ROCS_ShapeQuery>
_x0404_0B

> <ROCS_TanimotoCombo>
0.388 

> <ROCS_ShapeTanimoto>
0.325 

> <ROCS_ColorTanimoto>
0.063 

> <ROCS_RefTversky>
0.295 

> <ROCS_RefColorTversky>
0.068 

> <ROCS_RefTverskyCombo>
0.364 

> <ROCS_FitTversky>
1.451 

> <ROCS_FitColorTversky>
0.434 

> <ROCS_FitTverskyCombo>
1.885 

> <ROCS_ColorScore>
-4.939

> <ROCS_Overlap>
1972.067

> <ROCS_Rank>
202                 

$$$$
untitled-dbase-19229_42
  -OEChem-08212314543D

 47 49  0     0  0  0  0  0  0999 V2000
   -8.9548    3.5398   -7.2788 C   0  0  0  0  0  0  0  0  0  0  0  0
   -9.1116    2.2536   -7.7899 C   0  0  0  0  0  0  0  0  0  0  0  0
   -8.9601    4.6417   -8.1371 C   0  0  0  0  0  0  0  0  0  0  0  0
   -9.2660    2.0653   -9.1614 C   0  0  0  0  0  0  0  0  0  0  0  0
   -9.1253    4.4663   -9.5185 C   0  0  0  0  0  0  0  0  0  0  0  0
   -9.2543    3.1665  -10.0243 C   0  0  0  0  0  0  0  0  0  0  0  0
   -7.8557    3.2953  -14.3820 C   0  0  0  0  0  0  0  0  0  0  0  0
   -8.4579    2.5334  -13.4572 C   0  0  0  0  0  0  0  0  0  0  0  0
   -9.1099    5.6863  -10.3683 C   0  0  0  0  0  0  0  0  0  0  0  0
   -9.1483    5.7004  -15.2253 C   0  0  0  0  0  0  0  0  0  0  0  0
   -8.2528    3.2568  -15.8277 C   0  0  0  0  0  0  0  0  0  0  0  0
   -8.1829    2.6010  -11.9908 C   0  0  0  0  0  0  0  0  0  0  0  0
   -9.9868    6.8194  -12.3764 C   0  0  0  0  0  0  0  0  0  0  0  0
  -10.8225    6.6071  -13.6372 C   0  0  0  0  0  0  0  0  0  0  0  0
   -7.7568    5.2249  -17.4132 C   0  0  0  0  0  0  0  0  0  0  0  0
   -9.7084    4.5484  -17.5677 C   0  0  0  0  0  0  0  0  0  0  0  0
   -8.7456    4.6407  -16.3341 C   0  0  0  0  0  0  0  0  0  0  0  0
  -11.2835    4.4200  -14.7053 C   0  0  0  0  0  0  0  0  0  0  0  0
   -9.8989    5.6605  -11.5106 N   0  0  0  0  0  0  0  0  0  0  0  0
   -8.5440    4.5661  -18.4709 N   0  0  0  0  0  0  0  0  0  0  0  0
  -10.3582    5.5311  -14.5208 N   0  0  0  0  0  0  0  0  0  0  0  0
   -8.4325    6.6488  -10.0132 O   0  0  0  0  0  0  0  0  0  0  0  0
   -8.4129    6.6777  -15.0023 O   0  0  0  0  0  0  0  0  0  0  0  0
   -9.4260    2.9416  -11.3625 O   0  0  0  0  0  0  0  0  0  0  0  0
   -8.8368    3.6867   -6.2089 H   0  0  0  0  0  0  0  0  0  0  0  0
   -9.1179    1.3997   -7.1188 H   0  0  0  0  0  0  0  0  0  0  0  0
   -8.8428    5.6264   -7.6984 H   0  0  0  0  0  0  0  0  0  0  0  0
   -9.4021    1.0578   -9.5382 H   0  0  0  0  0  0  0  0  0  0  0  0
   -7.0999    4.0098  -14.0873 H   0  0  0  0  0  0  0  0  0  0  0  0
   -9.2609    1.8567  -13.7703 H   0  0  0  0  0  0  0  0  0  0  0  0
   -7.3893    2.9013  -16.4212 H   0  0  0  0  0  0  0  0  0  0  0  0
   -9.0369    2.4952  -15.9888 H   0  0  0  0  0  0  0  0  0  0  0  0
   -7.8603    1.6185  -11.6283 H   0  0  0  0  0  0  0  0  0  0  0  0
   -7.3953    3.3364  -11.7780 H   0  0  0  0  0  0  0  0  0  0  0  0
   -8.9650    7.0986  -12.6696 H   0  0  0  0  0  0  0  0  0  0  0  0
  -10.3824    7.6477  -11.7748 H   0  0  0  0  0  0  0  0  0  0  0  0
  -11.8615    6.3729  -13.3518 H   0  0  0  0  0  0  0  0  0  0  0  0
  -10.8813    7.5501  -14.2044 H   0  0  0  0  0  0  0  0  0  0  0  0
   -7.7600    6.3206  -17.4936 H   0  0  0  0  0  0  0  0  0  0  0  0
   -6.7140    4.8941  -17.3555 H   0  0  0  0  0  0  0  0  0  0  0  0
  -10.3152    3.6400  -17.6464 H   0  0  0  0  0  0  0  0  0  0  0  0
  -10.3696    5.4163  -17.6940 H   0  0  0  0  0  0  0  0  0  0  0  0
  -11.0157    3.6016  -14.0209 H   0  0  0  0  0  0  0  0  0  0  0  0
  -12.3084    4.7570  -14.4904 H   0  0  0  0  0  0  0  0  0  0  0  0
  -11.2251    4.0631  -15.7441 H   0  0  0  0  0  0  0  0  0  0  0  0
  -10.4119    4.8317  -11.7369 H   0  0  0  0  0  0  0  0  0  0  0  0
   -8.6659    5.1120  -19.3189 H   0  0  0  0  0  0  0  0  0  0  0  0
  1  2  2  0  0  0  0
  1  3  1  0  0  0  0
  2  4  1  0  0  0  0
  3  5  2  0  0  0  0
  4  6  2  0  0  0  0
  5  6  1  0  0  0  0
  5  9  1  0  0  0  0
  6 24  1  0  0  0  0
  7  8  2  0  0  0  0
  7 11  1  0  0  0  0
  8 12  1  0  0  0  0
  9 19  1  0  0  0  0
  9 22  2  0  0  0  0
 10 17  1  0  0  0  0
 10 21  1  0  0  0  0
 10 23  2  0  0  0  0
 11 17  1  0  0  0  0
 12 24  1  0  0  0  0
 13 14  1  0  0  0  0
 13 19  1  0  0  0  0
 14 21  1  0  0  0  0
 15 17  1  0  0  0  0
 15 20  1  0  0  0  0
 16 17  1  0  0  0  0
 16 20  1  0  0  0  0
 18 21  1  0  0  0  0
  1 25  1  0  0  0  0
  2 26  1  0  0  0  0
  3 27  1  0  0  0  0
  4 28  1  0  0  0  0
  7 29  1  0  0  0  0
  8 30  1  0  0  0  0
 11 31  1  0  0  0  0
 11 32  1  0  0  0  0
 12 33  1  0  0  0  0
 12 34  1  0  0  0  0
 13 35  1  0  0  0  0
 13 36  1  0  0  0  0
 14 37  1  0  0  0  0
 14 38  1  0  0  0  0
 15 39  1  0  0  0  0
 15 40  1  0  0  0  0
 16 41  1  0  0  0  0
 16 42  1  0  0  0  0
 18 43  1  0  0  0  0
 18 44  1  0  0  0  0
 18 45  1  0  0  0  0
 19 46  1  0  0  0  0
 20 47  1  0  0  0  0
M  END
> <id>
EN300-1662306

> <smiles>
CN1CCNC(=O)C=2C=CC=CC2OC/C=C/CC3(CNC3)C1=O

> <MDLNUMBER>
MFCD31689845

> <IUPAC Name>
(3'E)-8'-methyl-2',5',7',8',9',10',11',12'-octahydrospiro[azetidine-3,6'-[1,8,11]benzoxadiazacyclotetradecin]-3'-ene-7',12'-dione

> <CAS>
2641565-80-0

> <URL>
https://www.enaminestore.com/catalog/EN300-1662306

> <ROCS_ShapeQuery>
_x0404_0B

> <ROCS_TanimotoCombo>
0.388 

> <ROCS_ShapeTanimoto>
0.325 

> <ROCS_ColorTanimoto>
0.063 

> <ROCS_RefTversky>
0.295 

> <ROCS_RefColorTversky>
0.068 

> <ROCS_RefTverskyCombo>
0.364 

> <ROCS_FitTversky>
1.451 

> <ROCS_FitColorTversky>
0.434 

> <ROCS_FitTverskyCombo>
1.885 

> <ROCS_ColorScore>
-4.939

> <ROCS_Overlap>
1972.067

> <ROCS_Rank>
203                 

$$$$
untitled-dbase-45859_227
  -OEChem-08212314543D

 44 45  0     0  0  0  0  0  0999 V2000
   -8.2293    5.2674  -14.9198 C   0  0  0  0  0  0  0  0  0  0  0  0
   -9.8986    3.2692  -11.2010 C   0  0  0  0  0  0  0  0  0  0  0  0
   -7.7612    4.6245  -11.0459 C   0  0  0  0  0  0  0  0  0  0  0  0
   -9.5755    3.1068   -7.5665 C   0  0  0  0  0  0  0  0  0  0  0  0
   -8.1100    2.7099   -9.4151 C   0  0  0  0  0  0  0  0  0  0  0  0
  -10.2687    4.2012   -8.3640 C   0  0  0  0  0  0  0  0  0  0  0  0
   -9.3808    2.3786  -12.3219 C   0  0  0  0  0  0  0  0  0  0  0  0
   -7.0493    3.8482  -12.1424 C   0  0  0  0  0  0  0  0  0  0  0  0
   -8.8060    3.8121  -10.2450 C   0  0  0  0  0  0  0  0  0  0  0  0
   -7.9702    6.5336  -17.4701 C   0  0  0  0  0  0  0  0  0  0  0  0
   -7.6372    4.2165  -18.3809 C   0  0  0  0  0  0  0  0  0  0  0  0
   -9.8065    4.8239  -17.2704 C   0  0  0  0  0  0  0  0  0  0  0  0
   -8.2957    5.0521  -17.2853 C   0  0  0  0  0  0  0  0  0  0  0  0
   -8.8743    4.3884  -14.0294 N   0  0  0  0  0  0  0  0  0  0  0  0
   -9.0362    2.0876   -8.4653 N   0  0  0  0  0  0  0  0  0  0  0  0
   -8.1163    6.4748  -14.7352 O   0  0  0  0  0  0  0  0  0  0  0  0
   -7.4572    2.1417  -14.0537 O   0  0  0  0  0  0  0  0  0  0  0  0
   -9.3890    4.7710   -9.3326 O   0  0  0  0  0  0  0  0  0  0  0  0
   -7.7569    4.6201  -16.0306 O   0  0  0  0  0  0  0  0  0  0  0  0
   -8.1770    3.1885  -13.3489 S   0  0  0  0  0  0  0  0  0  0  0  0
  -10.4190    4.1179  -11.6735 H   0  0  0  0  0  0  0  0  0  0  0  0
  -10.6586    2.7249  -10.6173 H   0  0  0  0  0  0  0  0  0  0  0  0
   -7.0128    5.0387  -10.3463 H   0  0  0  0  0  0  0  0  0  0  0  0
   -8.2236    5.5020  -11.5260 H   0  0  0  0  0  0  0  0  0  0  0  0
   -8.7655    3.5331   -6.9659 H   0  0  0  0  0  0  0  0  0  0  0  0
  -10.2826    2.6380   -6.8718 H   0  0  0  0  0  0  0  0  0  0  0  0
   -7.7137    1.9263  -10.0728 H   0  0  0  0  0  0  0  0  0  0  0  0
   -7.2567    3.1222   -8.8654 H   0  0  0  0  0  0  0  0  0  0  0  0
  -11.1185    3.7751   -8.9079 H   0  0  0  0  0  0  0  0  0  0  0  0
  -10.6715    4.9860   -7.7142 H   0  0  0  0  0  0  0  0  0  0  0  0
   -8.8971    1.4850  -11.9015 H   0  0  0  0  0  0  0  0  0  0  0  0
  -10.2042    2.0399  -12.9674 H   0  0  0  0  0  0  0  0  0  0  0  0
   -6.3210    4.4814  -12.6672 H   0  0  0  0  0  0  0  0  0  0  0  0
   -6.5059    2.9956  -11.7123 H   0  0  0  0  0  0  0  0  0  0  0  0
   -8.4411    7.1367  -16.6856 H   0  0  0  0  0  0  0  0  0  0  0  0
   -6.8907    6.7152  -17.4476 H   0  0  0  0  0  0  0  0  0  0  0  0
   -8.3638    6.9045  -18.4234 H   0  0  0  0  0  0  0  0  0  0  0  0
   -7.8681    3.1529  -18.2523 H   0  0  0  0  0  0  0  0  0  0  0  0
   -6.5456    4.3032  -18.3350 H   0  0  0  0  0  0  0  0  0  0  0  0
   -7.9678    4.5249  -19.3780 H   0  0  0  0  0  0  0  0  0  0  0  0
  -10.0402    3.7614  -17.1379 H   0  0  0  0  0  0  0  0  0  0  0  0
  -10.2915    5.3873  -16.4667 H   0  0  0  0  0  0  0  0  0  0  0  0
  -10.2551    5.1225  -18.2248 H   0  0  0  0  0  0  0  0  0  0  0  0
   -8.5491    1.3765   -7.9221 H   0  0  0  0  0  0  0  0  0  0  0  0
  1 14  1  0  0  0  0
  1 16  2  0  0  0  0
  1 19  1  0  0  0  0
  2  7  1  0  0  0  0
  2  9  1  0  0  0  0
  3  8  1  0  0  0  0
  3  9  1  0  0  0  0
  4  6  1  0  0  0  0
  4 15  1  0  0  0  0
  5  9  1  0  0  0  0
  5 15  1  0  0  0  0
  6 18  1  0  0  0  0
  7 20  1  0  0  0  0
  8 20  1  0  0  0  0
  9 18  1  0  0  0  0
 10 13  1  0  0  0  0
 11 13  1  0  0  0  0
 12 13  1  0  0  0  0
 13 19  1  0  0  0  0
 14 20  2  0  0  0  0
 17 20  2  0  0  0  0
  2 21  1  0  0  0  0
  2 22  1  0  0  0  0
  3 23  1  0  0  0  0
  3 24  1  0  0  0  0
  4 25  1  0  0  0  0
  4 26  1  0  0  0  0
  5 27  1  0  0  0  0
  5 28  1  0  0  0  0
  6 29  1  0  0  0  0
  6 30  1  0  0  0  0
  7 31  1  0  0  0  0
  7 32  1  0  0  0  0
  8 33  1  0  0  0  0
  8 34  1  0  0  0  0
 10 35  1  0  0  0  0
 10 36  1  0  0  0  0
 10 37  1  0  0  0  0
 11 38  1  0  0  0  0
 11 39  1  0  0  0  0
 11 40  1  0  0  0  0
 12 41  1  0  0  0  0
 12 42  1  0  0  0  0
 12 43  1  0  0  0  0
 15 44  1  0  0  0  0
M  END
> <id>
EN300-28291161

> <smiles>
CC(C)(C)OC(=O)N=S1(=O)CCC2(CC1)CNCCO2

> <IUPAC Name>
tert-butyl N-{9-oxo-1-oxa-9lambda6-thia-4-azaspiro[5.5]undecan-9-ylidene}carbamate

> <CAS>
2680660-82-4

> <URL>
https://www.enaminestore.com/catalog/EN300-28291161

> <ROCS_ShapeQuery>
_x0404_0B

> <ROCS_TanimotoCombo>
0.388 

> <ROCS_ShapeTanimoto>
0.268 

> <ROCS_ColorTanimoto>
0.120 

> <ROCS_RefTversky>
0.248 

> <ROCS_RefColorTversky>
0.125 

> <ROCS_RefTverskyCombo>
0.373 

> <ROCS_FitTversky>
1.433 

> <ROCS_FitColorTversky>
0.732 

> <ROCS_FitTverskyCombo>
2.165 

> <ROCS_ColorScore>
-9.030

> <ROCS_Overlap>
1655.012

> <ROCS_Rank>
204                 

$$$$
untitled-dbase-34341_451
  -OEChem-08212314543D

 48 50  0     1  0  0  0  0  0999 V2000
   -9.2282    3.7967   -7.2169 C   0  0  0  0  0  0  0  0  0  0  0  0
   -9.1579    2.4777   -7.6028 C   0  0  0  0  0  0  0  0  0  0  0  0
   -9.0991    4.6851   -8.3244 C   0  0  0  0  0  0  0  0  0  0  0  0
   -8.9488    4.0086   -9.5245 C   0  0  0  0  0  0  0  0  0  0  0  0
   -8.1464    5.3936  -14.8942 C   0  0  0  0  0  0  0  0  0  0  0  0
   -9.1283    6.1771   -8.2693 C   0  0  0  0  0  0  0  0  0  0  0  0
   -9.4238    2.9648  -12.7967 C   0  0  0  0  0  0  0  0  0  0  0  0
   -9.8134    4.1681  -11.9230 C   0  0  0  0  0  0  0  0  0  0  0  0
   -7.2929    4.5216  -11.3537 C   0  0  0  0  0  0  0  0  0  0  0  0
   -8.5193    6.7797   -9.5399 C   0  0  0  0  0  0  0  0  0  0  0  0
   -8.2166    3.1664  -13.7207 C   0  0  0  0  0  0  0  0  0  0  0  0
   -6.9671    5.0949  -12.7377 C   0  0  0  0  0  0  0  0  0  0  0  0
   -8.7652    4.6916  -10.8871 C   0  0  2  0  0  0  0  0  0  0  0  0
   -6.5716    5.8490  -17.2396 C   0  0  0  0  0  0  0  0  0  0  0  0
   -8.2857    4.4565  -18.4362 C   0  0  0  0  0  0  0  0  0  0  0  0
   -8.9650    6.6189  -17.3542 C   0  0  0  0  0  0  0  0  0  0  0  0
   -8.0348    5.4097  -17.2697 C   0  0  0  0  0  0  0  0  0  0  0  0
   -9.0720    6.1538  -10.7494 N   0  0  0  0  0  0  0  0  0  0  0  0
   -7.7964    4.5653  -13.8207 N   0  0  0  0  0  0  0  0  0  0  0  0
   -8.2943    6.6114  -14.8094 O   0  0  0  0  0  0  0  0  0  0  0  0
   -8.3217    4.6973  -16.0610 O   0  0  0  0  0  0  0  0  0  0  0  0
   -8.9338    2.3148   -9.2889 S   0  0  0  0  0  0  0  0  0  0  0  0
   -9.3614    4.1079   -6.1887 H   0  0  0  0  0  0  0  0  0  0  0  0
   -9.2213    1.6022   -6.9726 H   0  0  0  0  0  0  0  0  0  0  0  0
  -10.1702    6.5060   -8.1634 H   0  0  0  0  0  0  0  0  0  0  0  0
   -8.5780    6.5373   -7.3920 H   0  0  0  0  0  0  0  0  0  0  0  0
   -9.1931    2.1245  -12.1196 H   0  0  0  0  0  0  0  0  0  0  0  0
  -10.2948    2.6237  -13.3819 H   0  0  0  0  0  0  0  0  0  0  0  0
  -10.0916    4.9874  -12.6022 H   0  0  0  0  0  0  0  0  0  0  0  0
  -10.7411    3.8969  -11.4003 H   0  0  0  0  0  0  0  0  0  0  0  0
   -7.0319    3.4637  -11.3475 H   0  0  0  0  0  0  0  0  0  0  0  0
   -6.6162    5.0027  -10.6470 H   0  0  0  0  0  0  0  0  0  0  0  0
   -8.7322    7.8547   -9.5683 H   0  0  0  0  0  0  0  0  0  0  0  0
   -7.4265    6.6838   -9.5273 H   0  0  0  0  0  0  0  0  0  0  0  0
   -7.3578    2.5515  -13.4017 H   0  0  0  0  0  0  0  0  0  0  0  0
   -8.4822    2.8016  -14.7269 H   0  0  0  0  0  0  0  0  0  0  0  0
   -7.0600    6.1779  -12.7080 H   0  0  0  0  0  0  0  0  0  0  0  0
   -5.9327    4.8667  -12.9895 H   0  0  0  0  0  0  0  0  0  0  0  0
   -6.3873    6.5333  -16.4036 H   0  0  0  0  0  0  0  0  0  0  0  0
   -5.8954    4.9932  -17.1439 H   0  0  0  0  0  0  0  0  0  0  0  0
   -6.3090    6.3973  -18.1515 H   0  0  0  0  0  0  0  0  0  0  0  0
   -9.3344    4.1387  -18.4617 H   0  0  0  0  0  0  0  0  0  0  0  0
   -7.6890    3.5434  -18.3294 H   0  0  0  0  0  0  0  0  0  0  0  0
   -8.0406    4.9205  -19.3970 H   0  0  0  0  0  0  0  0  0  0  0  0
  -10.0146    6.3041  -17.3759 H   0  0  0  0  0  0  0  0  0  0  0  0
   -8.8247    7.2958  -16.5052 H   0  0  0  0  0  0  0  0  0  0  0  0
   -8.7914    7.1802  -18.2795 H   0  0  0  0  0  0  0  0  0  0  0  0
  -10.0868    6.2789  -10.7449 H   0  0  0  0  0  0  0  0  0  0  0  0
  1  2  2  0  0  0  0
  1  3  1  0  0  0  0
  2 22  1  0  0  0  0
  3  4  2  0  0  0  0
  3  6  1  0  0  0  0
  4 13  1  0  0  0  0
  4 22  1  0  0  0  0
  5 19  1  0  0  0  0
  5 20  2  0  0  0  0
  5 21  1  0  0  0  0
  6 10  1  0  0  0  0
  7  8  1  0  0  0  0
  7 11  1  0  0  0  0
  8 13  1  0  0  0  0
  9 12  1  0  0  0  0
  9 13  1  0  0  0  0
 10 18  1  0  0  0  0
 11 19  1  0  0  0  0
 12 19  1  0  0  0  0
 13 18  1  0  0  0  0
 14 17  1  0  0  0  0
 15 17  1  0  0  0  0
 16 17  1  0  0  0  0
 17 21  1  0  0  0  0
  1 23  1  0  0  0  0
  2 24  1  0  0  0  0
  6 25  1  0  0  0  0
  6 26  1  0  0  0  0
  7 27  1  0  0  0  0
  7 28  1  0  0  0  0
  8 29  1  0  0  0  0
  8 30  1  0  0  0  0
  9 31  1  0  0  0  0
  9 32  1  0  0  0  0
 10 33  1  0  0  0  0
 10 34  1  0  0  0  0
 11 35  1  0  0  0  0
 11 36  1  0  0  0  0
 12 37  1  0  0  0  0
 12 38  1  0  0  0  0
 14 39  1  0  0  0  0
 14 40  1  0  0  0  0
 14 41  1  0  0  0  0
 15 42  1  0  0  0  0
 15 43  1  0  0  0  0
 15 44  1  0  0  0  0
 16 45  1  0  0  0  0
 16 46  1  0  0  0  0
 16 47  1  0  0  0  0
 18 48  1  0  0  0  0
M  END
> <id>
EN300-1075838

> <smiles>
CC(C)(C)OC(=O)N1CCCC2(CC1)NCCC=3C=CSC32

> <IUPAC Name>
tert-butyl 5',6'-dihydro-4'H-spiro[azepane-4,7'-thieno[2,3-c]pyridine]-1-carboxylate

> <CAS>
2137457-71-5

> <URL>
https://www.enaminestore.com/catalog/EN300-1075838

> <ROCS_ShapeQuery>
_x0404_0B

> <ROCS_TanimotoCombo>
0.388 

> <ROCS_ShapeTanimoto>
0.331 

> <ROCS_ColorTanimoto>
0.057 

> <ROCS_RefTversky>
0.296 

> <ROCS_RefColorTversky>
0.061 

> <ROCS_RefTverskyCombo>
0.357 

> <ROCS_FitTversky>
1.563 

> <ROCS_FitColorTversky>
0.424 

> <ROCS_FitTverskyCombo>
1.988 

> <ROCS_ColorScore>
-4.431

> <ROCS_Overlap>
1973.635

> <ROCS_Rank>
205                 

$$$$
untitled-dbase-4101_1223
  -OEChem-08212314543D

 45 46  0     1  0  0  0  0  0999 V2000
   -8.8348    2.2689   -9.4250 C   0  0  0  0  0  0  0  0  0  0  0  0
   -8.4047    5.6202  -14.1030 C   0  0  0  0  0  0  0  0  0  0  0  0
   -7.7002    5.6250   -8.5538 C   0  0  0  0  0  0  0  0  0  0  0  0
   -8.0623    6.4338   -9.7889 C   0  0  0  0  0  0  0  0  0  0  0  0
   -7.3922    4.1811   -8.9259 C   0  0  0  0  0  0  0  0  0  0  0  0
   -9.4319    6.3666  -11.9147 C   0  0  0  0  0  0  0  0  0  0  0  0
   -8.3155    4.2285  -12.0345 C   0  0  0  0  0  0  0  0  0  0  0  0
   -9.2709    5.8159  -10.4951 C   0  0  1  0  0  0  0  0  0  0  0  0
   -9.1249    4.3073  -10.7437 C   0  0  2  0  0  0  0  0  0  0  0  0
   -6.6627    5.2106  -16.3313 C   0  0  0  0  0  0  0  0  0  0  0  0
   -7.9925    3.1215  -16.7515 C   0  0  0  0  0  0  0  0  0  0  0  0
   -9.1174    5.3642  -16.8652 C   0  0  0  0  0  0  0  0  0  0  0  0
   -8.0271    4.5387  -16.1837 C   0  0  0  0  0  0  0  0  0  0  0  0
   -8.8153    1.3811  -10.3805 N   0  0  0  0  0  0  0  0  0  0  0  0
   -8.5092    3.5675   -9.6440 N   0  0  0  0  0  0  0  0  0  0  0  0
   -8.7050    5.4269  -12.7655 N   0  0  0  0  0  0  0  0  0  0  0  0
   -9.3690    3.0907   -7.2638 N   0  0  0  0  0  0  0  0  0  0  0  0
   -9.1829    2.0213   -8.1152 N   0  0  0  0  0  0  0  0  0  0  0  0
   -8.2182    6.7211  -14.6165 O   0  0  0  0  0  0  0  0  0  0  0  0
   -8.3365    4.4373  -14.7892 O   0  0  0  0  0  0  0  0  0  0  0  0
   -6.8259    6.0714   -8.0667 H   0  0  0  0  0  0  0  0  0  0  0  0
   -8.5216    5.6575   -7.8274 H   0  0  0  0  0  0  0  0  0  0  0  0
   -8.2891    7.4681   -9.5045 H   0  0  0  0  0  0  0  0  0  0  0  0
   -7.1953    6.4772  -10.4602 H   0  0  0  0  0  0  0  0  0  0  0  0
   -6.4906    4.1320   -9.5478 H   0  0  0  0  0  0  0  0  0  0  0  0
   -7.1737    3.6252   -8.0061 H   0  0  0  0  0  0  0  0  0  0  0  0
  -10.4804    6.3409  -12.2314 H   0  0  0  0  0  0  0  0  0  0  0  0
   -9.0522    7.3837  -12.0492 H   0  0  0  0  0  0  0  0  0  0  0  0
   -7.2334    4.2833  -11.8711 H   0  0  0  0  0  0  0  0  0  0  0  0
   -8.5379    3.3305  -12.6201 H   0  0  0  0  0  0  0  0  0  0  0  0
  -10.1699    6.0166   -9.8989 H   0  0  0  0  0  0  0  0  0  0  0  0
  -10.1302    3.9068  -10.9387 H   0  0  0  0  0  0  0  0  0  0  0  0
   -6.6833    6.2281  -15.9249 H   0  0  0  0  0  0  0  0  0  0  0  0
   -5.8776    4.6466  -15.8171 H   0  0  0  0  0  0  0  0  0  0  0  0
   -6.3856    5.3051  -17.3875 H   0  0  0  0  0  0  0  0  0  0  0  0
   -8.9694    2.6356  -16.6477 H   0  0  0  0  0  0  0  0  0  0  0  0
   -7.2778    2.4982  -16.2019 H   0  0  0  0  0  0  0  0  0  0  0  0
   -7.7139    3.1171  -17.8102 H   0  0  0  0  0  0  0  0  0  0  0  0
  -10.0962    4.8825  -16.7595 H   0  0  0  0  0  0  0  0  0  0  0  0
   -9.1816    6.3731  -16.4449 H   0  0  0  0  0  0  0  0  0  0  0  0
   -8.9281    5.4467  -17.9416 H   0  0  0  0  0  0  0  0  0  0  0  0
   -9.0946    0.4741   -9.9906 H   0  0  0  0  0  0  0  0  0  0  0  0
  -10.1993    2.9139   -6.6999 H   0  0  0  0  0  0  0  0  0  0  0  0
   -9.5799    3.9163   -7.8230 H   0  0  0  0  0  0  0  0  0  0  0  0
   -9.4564    1.0961   -7.8013 H   0  0  0  0  0  0  0  0  0  0  0  0
  1 14  2  0  0  0  0
  1 15  1  0  0  0  0
  1 18  1  0  0  0  0
  2 16  1  0  0  0  0
  2 19  2  0  0  0  0
  2 20  1  0  0  0  0
  3  4  1  0  0  0  0
  3  5  1  0  0  0  0
  4  8  1  0  0  0  0
  5 15  1  0  0  0  0
  6  8  1  0  0  0  0
  6 16  1  0  0  0  0
  7  9  1  0  0  0  0
  7 16  1  0  0  0  0
  8  9  1  0  0  0  0
  9 15  1  0  0  0  0
 10 13  1  0  0  0  0
 11 13  1  0  0  0  0
 12 13  1  0  0  0  0
 13 20  1  0  0  0  0
 17 18  1  0  0  0  0
  3 21  1  0  0  0  0
  3 22  1  0  0  0  0
  4 23  1  0  0  0  0
  4 24  1  0  0  0  0
  5 25  1  0  0  0  0
  5 26  1  0  0  0  0
  6 27  1  0  0  0  0
  6 28  1  0  0  0  0
  7 29  1  0  0  0  0
  7 30  1  0  0  0  0
  8 31  1  0  0  0  0
  9 32  1  0  0  0  0
 10 33  1  0  0  0  0
 10 34  1  0  0  0  0
 10 35  1  0  0  0  0
 11 36  1  0  0  0  0
 11 37  1  0  0  0  0
 11 38  1  0  0  0  0
 12 39  1  0  0  0  0
 12 40  1  0  0  0  0
 12 41  1  0  0  0  0
 14 42  1  0  0  0  0
 17 43  1  0  0  0  0
 17 44  1  0  0  0  0
 18 45  1  0  0  0  0
M  END
> <id>
EN300-172023

> <smiles>
CC(C)(C)OC(=O)N1CC2CCCN(C2C1)C(=N)NN

> <MDLNUMBER>
MFCD27980931

> <IUPAC Name>
tert-butyl 1-(N-aminocarbamimidoyl)-octahydro-1H-pyrrolo[3,4-b]pyridine-6-carboxylate

> <CAS>
1704281-90-2

> <URL>
https://www.enaminestore.com/catalog/EN300-172023

> <ROCS_ShapeQuery>
_x0404_0B

> <ROCS_TanimotoCombo>
0.388 

> <ROCS_ShapeTanimoto>
0.302 

> <ROCS_ColorTanimoto>
0.086 

> <ROCS_RefTversky>
0.273 

> <ROCS_RefColorTversky>
0.092 

> <ROCS_RefTverskyCombo>
0.365 

> <ROCS_FitTversky>
1.533 

> <ROCS_FitColorTversky>
0.567 

> <ROCS_FitTverskyCombo>
2.100 

> <ROCS_ColorScore>
-6.634

> <ROCS_Overlap>
1822.031

> <ROCS_Rank>
206                 

$$$$
untitled-dbase-14421_70
  -OEChem-08212314543D

 46 47  0     1  0  0  0  0  0999 V2000
   -8.6127    5.6337  -14.1522 C   0  0  0  0  0  0  0  0  0  0  0  0
   -7.5154    5.0318  -10.6910 C   0  0  0  0  0  0  0  0  0  0  0  0
   -9.9321    4.2341  -10.8597 C   0  0  0  0  0  0  0  0  0  0  0  0
   -8.0186    5.9833  -11.7720 C   0  0  0  0  0  0  0  0  0  0  0  0
   -9.6092    4.1455  -12.3476 C   0  0  0  0  0  0  0  0  0  0  0  0
   -9.7498    3.1123   -7.6792 C   0  0  0  0  0  0  0  0  0  0  0  0
   -8.1812    2.9036   -9.5277 C   0  0  0  0  0  0  0  0  0  0  0  0
   -9.0235    4.4529   -7.5714 C   0  0  2  0  0  0  0  0  0  0  0  0
   -8.6709    4.3030   -9.9660 C   0  0  0  0  0  0  0  0  0  0  0  0
   -9.7091    5.3696   -6.5664 C   0  0  0  0  0  0  0  0  0  0  0  0
   -8.8442    3.4755  -17.2241 C   0  0  0  0  0  0  0  0  0  0  0  0
   -9.6884    5.8206  -16.9481 C   0  0  0  0  0  0  0  0  0  0  0  0
   -7.2302    5.3453  -16.8076 C   0  0  0  0  0  0  0  0  0  0  0  0
   -8.6316    4.8075  -16.4957 C   0  0  0  0  0  0  0  0  0  0  0  0
   -9.1324    2.2145   -8.6557 N   0  0  0  0  0  0  0  0  0  0  0  0
   -8.7582    5.2529  -12.8048 N   0  0  0  0  0  0  0  0  0  0  0  0
   -8.7569    4.5983  -15.0712 N   0  0  0  0  0  0  0  0  0  0  0  0
   -8.3690    6.7930  -14.5004 O   0  0  0  0  0  0  0  0  0  0  0  0
   -9.0235    5.1238   -8.8330 O   0  0  0  0  0  0  0  0  0  0  0  0
   -6.8410    4.2925  -11.1484 H   0  0  0  0  0  0  0  0  0  0  0  0
   -6.9006    5.6125   -9.9928 H   0  0  0  0  0  0  0  0  0  0  0  0
  -10.5487    5.1289  -10.6967 H   0  0  0  0  0  0  0  0  0  0  0  0
  -10.5430    3.3669  -10.5714 H   0  0  0  0  0  0  0  0  0  0  0  0
   -8.7021    6.7209  -11.3493 H   0  0  0  0  0  0  0  0  0  0  0  0
   -7.1768    6.5222  -12.2030 H   0  0  0  0  0  0  0  0  0  0  0  0
   -9.1361    3.1763  -12.5268 H   0  0  0  0  0  0  0  0  0  0  0  0
  -10.5265    4.1787  -12.9496 H   0  0  0  0  0  0  0  0  0  0  0  0
   -9.7705    2.6105   -6.6939 H   0  0  0  0  0  0  0  0  0  0  0  0
  -10.8107    3.2653   -7.9585 H   0  0  0  0  0  0  0  0  0  0  0  0
   -7.9980    2.2700  -10.4130 H   0  0  0  0  0  0  0  0  0  0  0  0
   -7.2115    2.9822   -9.0089 H   0  0  0  0  0  0  0  0  0  0  0  0
   -7.9884    4.3057   -7.2385 H   0  0  0  0  0  0  0  0  0  0  0  0
  -10.7438    5.5406   -6.8635 H   0  0  0  0  0  0  0  0  0  0  0  0
   -9.1909    6.3274   -6.5219 H   0  0  0  0  0  0  0  0  0  0  0  0
   -9.6958    4.9134   -5.5766 H   0  0  0  0  0  0  0  0  0  0  0  0
   -8.0989    2.7325  -16.9170 H   0  0  0  0  0  0  0  0  0  0  0  0
   -9.8371    3.0614  -17.0166 H   0  0  0  0  0  0  0  0  0  0  0  0
   -8.7500    3.5992  -18.3093 H   0  0  0  0  0  0  0  0  0  0  0  0
   -9.5566    6.7829  -16.4399 H   0  0  0  0  0  0  0  0  0  0  0  0
  -10.6997    5.4674  -16.7153 H   0  0  0  0  0  0  0  0  0  0  0  0
   -9.6337    5.9991  -18.0277 H   0  0  0  0  0  0  0  0  0  0  0  0
   -7.0508    6.2993  -16.2983 H   0  0  0  0  0  0  0  0  0  0  0  0
   -6.4530    4.6416  -16.4896 H   0  0  0  0  0  0  0  0  0  0  0  0
   -7.1042    5.5229  -17.8820 H   0  0  0  0  0  0  0  0  0  0  0  0
   -8.6495    1.4521   -8.1556 H   0  0  0  0  0  0  0  0  0  0  0  0
   -8.9566    3.6662  -14.7287 H   0  0  0  0  0  0  0  0  0  0  0  0
  1 16  1  0  0  0  0
  1 17  1  0  0  0  0
  1 18  2  0  0  0  0
  2  4  1  0  0  0  0
  2  9  1  0  0  0  0
  3  5  1  0  0  0  0
  3  9  1  0  0  0  0
  4 16  1  0  0  0  0
  5 16  1  0  0  0  0
  6  8  1  0  0  0  0
  6 15  1  0  0  0  0
  7  9  1  0  0  0  0
  7 15  1  0  0  0  0
  8 10  1  0  0  0  0
  8 19  1  0  0  0  0
  9 19  1  0  0  0  0
 11 14  1  0  0  0  0
 12 14  1  0  0  0  0
 13 14  1  0  0  0  0
 14 17  1  0  0  0  0
  2 20  1  0  0  0  0
  2 21  1  0  0  0  0
  3 22  1  0  0  0  0
  3 23  1  0  0  0  0
  4 24  1  0  0  0  0
  4 25  1  0  0  0  0
  5 26  1  0  0  0  0
  5 27  1  0  0  0  0
  6 28  1  0  0  0  0
  6 29  1  0  0  0  0
  7 30  1  0  0  0  0
  7 31  1  0  0  0  0
  8 32  1  0  0  0  0
 10 33  1  0  0  0  0
 10 34  1  0  0  0  0
 10 35  1  0  0  0  0
 11 36  1  0  0  0  0
 11 37  1  0  0  0  0
 11 38  1  0  0  0  0
 12 39  1  0  0  0  0
 12 40  1  0  0  0  0
 12 41  1  0  0  0  0
 13 42  1  0  0  0  0
 13 43  1  0  0  0  0
 13 44  1  0  0  0  0
 15 45  1  0  0  0  0
 17 46  1  0  0  0  0
M  END
> <id>
EN300-842574

> <smiles>
CC1CNCC2(CCN(CC2)C(=O)NC(C)(C)C)O1

> <IUPAC Name>
N-tert-butyl-2-methyl-1-oxa-4,9-diazaspiro[5.5]undecane-9-carboxamide

> <CAS>
2138022-19-0

> <URL>
https://www.enaminestore.com/catalog/EN300-842574

> <ROCS_ShapeQuery>
_x0404_0B

> <ROCS_TanimotoCombo>
0.388 

> <ROCS_ShapeTanimoto>
0.296 

> <ROCS_ColorTanimoto>
0.092 

> <ROCS_RefTversky>
0.267 

> <ROCS_RefColorTversky>
0.097 

> <ROCS_RefTverskyCombo>
0.364 

> <ROCS_FitTversky>
1.574 

> <ROCS_FitColorTversky>
0.617 

> <ROCS_FitTverskyCombo>
2.191 

> <ROCS_ColorScore>
-7.025

> <ROCS_Overlap>
1780.656

> <ROCS_Rank>
207                 

$$$$
untitled-dbase-44991_1
  -OEChem-08212314543D

 40 42  0     0  0  0  0  0  0999 V2000
   -8.6781    4.1594   -7.1167 C   0  0  0  0  0  0  0  0  0  0  0  0
   -8.9865    2.8066   -6.9492 C   0  0  0  0  0  0  0  0  0  0  0  0
   -9.3846    2.5433   -9.3296 C   0  0  0  0  0  0  0  0  0  0  0  0
   -9.0773    3.9049   -9.5258 C   0  0  0  0  0  0  0  0  0  0  0  0
   -9.0261    4.7592  -10.6642 C   0  0  0  0  0  0  0  0  0  0  0  0
   -8.7319    4.6821   -8.4140 C   0  0  0  0  0  0  0  0  0  0  0  0
   -9.3348    2.0092   -8.0371 C   0  0  0  0  0  0  0  0  0  0  0  0
   -8.6620    6.0109  -10.2158 C   0  0  0  0  0  0  0  0  0  0  0  0
   -8.4348    5.4798  -14.2445 C   0  0  0  0  0  0  0  0  0  0  0  0
   -9.3062    4.4631  -12.0972 C   0  0  0  0  0  0  0  0  0  0  0  0
   -8.4775    7.2100  -11.0695 C   0  0  0  0  0  0  0  0  0  0  0  0
   -9.2015    6.9714  -12.4040 C   0  0  0  0  0  0  0  0  0  0  0  0
   -6.4584    4.5045  -16.0702 C   0  0  0  0  0  0  0  0  0  0  0  0
   -7.8621    2.4249  -16.1900 C   0  0  0  0  0  0  0  0  0  0  0  0
   -8.8118    4.6207  -16.9548 C   0  0  0  0  0  0  0  0  0  0  0  0
   -7.8723    3.9352  -15.9637 C   0  0  0  0  0  0  0  0  0  0  0  0
   -8.4826    5.9610   -8.8651 N   0  0  0  0  0  0  0  0  0  0  0  0
   -8.9245    5.6222  -12.9408 N   0  0  0  0  0  0  0  0  0  0  0  0
   -8.1096    6.4176  -14.9702 O   0  0  0  0  0  0  0  0  0  0  0  0
   -8.3592    4.1694  -14.6373 O   0  0  0  0  0  0  0  0  0  0  0  0
   -9.7462    0.1822   -7.7674 Br  0  0  0  0  0  0  0  0  0  0  0  0
   -8.4067    4.7789   -6.2683 H   0  0  0  0  0  0  0  0  0  0  0  0
   -8.9484    2.3869   -5.9464 H   0  0  0  0  0  0  0  0  0  0  0  0
   -9.6567    1.9230  -10.1795 H   0  0  0  0  0  0  0  0  0  0  0  0
   -8.7070    3.6100  -12.4332 H   0  0  0  0  0  0  0  0  0  0  0  0
  -10.3638    4.2207  -12.2347 H   0  0  0  0  0  0  0  0  0  0  0  0
   -8.9012    8.0870  -10.5666 H   0  0  0  0  0  0  0  0  0  0  0  0
   -7.4151    7.4034  -11.2519 H   0  0  0  0  0  0  0  0  0  0  0  0
  -10.2771    7.1275  -12.2749 H   0  0  0  0  0  0  0  0  0  0  0  0
   -8.8562    7.6868  -13.1611 H   0  0  0  0  0  0  0  0  0  0  0  0
   -6.4614    5.5883  -15.9084 H   0  0  0  0  0  0  0  0  0  0  0  0
   -5.7829    4.0459  -15.3407 H   0  0  0  0  0  0  0  0  0  0  0  0
   -6.0463    4.3428  -17.0729 H   0  0  0  0  0  0  0  0  0  0  0  0
   -8.8746    2.0122  -16.1145 H   0  0  0  0  0  0  0  0  0  0  0  0
   -7.2647    1.9193  -15.4227 H   0  0  0  0  0  0  0  0  0  0  0  0
   -7.4548    2.1664  -17.1728 H   0  0  0  0  0  0  0  0  0  0  0  0
   -9.8261    4.2125  -16.8786 H   0  0  0  0  0  0  0  0  0  0  0  0
   -8.8602    5.7009  -16.7836 H   0  0  0  0  0  0  0  0  0  0  0  0
   -8.4848    4.4459  -17.9863 H   0  0  0  0  0  0  0  0  0  0  0  0
   -8.2095    6.7388   -8.2799 H   0  0  0  0  0  0  0  0  0  0  0  0
  1  2  1  0  0  0  0
  1  6  2  0  0  0  0
  2  7  2  0  0  0  0
  3  4  2  0  0  0  0
  3  7  1  0  0  0  0
  4  5  1  0  0  0  0
  4  6  1  0  0  0  0
  5  8  2  0  0  0  0
  5 10  1  0  0  0  0
  6 17  1  0  0  0  0
  7 21  1  0  0  0  0
  8 11  1  0  0  0  0
  8 17  1  0  0  0  0
  9 18  1  0  0  0  0
  9 19  2  0  0  0  0
  9 20  1  0  0  0  0
 10 18  1  0  0  0  0
 11 12  1  0  0  0  0
 12 18  1  0  0  0  0
 13 16  1  0  0  0  0
 14 16  1  0  0  0  0
 15 16  1  0  0  0  0
 16 20  1  0  0  0  0
  1 22  1  0  0  0  0
  2 23  1  0  0  0  0
  3 24  1  0  0  0  0
 10 25  1  0  0  0  0
 10 26  1  0  0  0  0
 11 27  1  0  0  0  0
 11 28  1  0  0  0  0
 12 29  1  0  0  0  0
 12 30  1  0  0  0  0
 13 31  1  0  0  0  0
 13 32  1  0  0  0  0
 13 33  1  0  0  0  0
 14 34  1  0  0  0  0
 14 35  1  0  0  0  0
 14 36  1  0  0  0  0
 15 37  1  0  0  0  0
 15 38  1  0  0  0  0
 15 39  1  0  0  0  0
 17 40  1  0  0  0  0
M  END
> <id>
EN300-7391592

> <smiles>
CC(C)(C)OC(=O)N1CCC=2NC=3C=CC(Br)=CC3C2C1

> <MDLNUMBER>
MFCD29034972

> <IUPAC Name>
tert-butyl 8-bromo-1H,2H,3H,4H,5H-pyrido[4,3-b]indole-2-carboxylate

> <CAS>
1234685-60-9

> <URL>
https://www.enaminestore.com/catalog/EN300-7391592

> <ROCS_ShapeQuery>
_x0404_0B

> <ROCS_TanimotoCombo>
0.388 

> <ROCS_ShapeTanimoto>
0.311 

> <ROCS_ColorTanimoto>
0.077 

> <ROCS_RefTversky>
0.282 

> <ROCS_RefColorTversky>
0.082 

> <ROCS_RefTverskyCombo>
0.363 

> <ROCS_FitTversky>
1.503 

> <ROCS_FitColorTversky>
0.563 

> <ROCS_FitTverskyCombo>
2.066 

> <ROCS_ColorScore>
-5.887

> <ROCS_Overlap>
1878.933

> <ROCS_Rank>
208                 

$$$$
untitled-dbase-14981_13
  -OEChem-08212314543D

 45 47  0     1  0  0  0  0  0999 V2000
   -9.7627    2.2039   -7.8481 C   0  0  0  0  0  0  0  0  0  0  0  0
   -9.2204    2.6650   -6.6715 C   0  0  0  0  0  0  0  0  0  0  0  0
   -8.5419    4.0320   -8.1746 C   0  0  0  0  0  0  0  0  0  0  0  0
   -8.6566    5.6785  -14.3546 C   0  0  0  0  0  0  0  0  0  0  0  0
   -7.9683    6.5076  -10.8687 C   0  0  0  0  0  0  0  0  0  0  0  0
   -9.6020    3.0450  -10.2136 C   0  0  0  0  0  0  0  0  0  0  0  0
   -8.7825    6.7814  -12.1359 C   0  0  0  0  0  0  0  0  0  0  0  0
   -9.4564    4.3838  -12.3595 C   0  0  0  0  0  0  0  0  0  0  0  0
   -9.4270    4.4366  -10.8278 C   0  0  2  0  0  0  0  0  0  0  0  0
   -8.1033    5.0653  -10.3570 C   0  0  2  0  0  0  0  0  0  0  0  0
   -9.3650    2.1018   -5.3208 C   0  0  0  0  0  0  0  0  0  0  0  0
   -7.1436    4.8704  -16.6445 C   0  0  0  0  0  0  0  0  0  0  0  0
   -8.8502    3.0450  -16.8989 C   0  0  0  0  0  0  0  0  0  0  0  0
   -9.5562    5.4495  -17.0674 C   0  0  0  0  0  0  0  0  0  0  0  0
   -8.5965    4.4658  -16.3995 C   0  0  0  0  0  0  0  0  0  0  0  0
   -8.4678    3.7959   -6.8793 N   0  0  0  0  0  0  0  0  0  0  0  0
   -9.3229    3.0828   -8.7906 N   0  0  0  0  0  0  0  0  0  0  0  0
   -7.9922    5.0322   -8.9029 N   0  0  0  0  0  0  0  0  0  0  0  0
   -8.9201    5.6003  -12.9831 N   0  0  0  0  0  0  0  0  0  0  0  0
   -8.3028    6.7008  -14.9386 O   0  0  0  0  0  0  0  0  0  0  0  0
   -8.8410    4.4772  -14.9884 O   0  0  0  0  0  0  0  0  0  0  0  0
  -10.3977    1.3611   -8.0832 H   0  0  0  0  0  0  0  0  0  0  0  0
   -6.9031    6.7345  -11.0702 H   0  0  0  0  0  0  0  0  0  0  0  0
   -8.2823    7.2192  -10.0786 H   0  0  0  0  0  0  0  0  0  0  0  0
  -10.6276    2.6816  -10.3508 H   0  0  0  0  0  0  0  0  0  0  0  0
   -8.9064    2.3176  -10.6510 H   0  0  0  0  0  0  0  0  0  0  0  0
   -9.7691    7.1785  -11.8594 H   0  0  0  0  0  0  0  0  0  0  0  0
   -8.2879    7.5557  -12.7414 H   0  0  0  0  0  0  0  0  0  0  0  0
   -8.8462    3.5395  -12.7322 H   0  0  0  0  0  0  0  0  0  0  0  0
  -10.4875    4.1850  -12.7010 H   0  0  0  0  0  0  0  0  0  0  0  0
  -10.2611    5.0698  -10.5007 H   0  0  0  0  0  0  0  0  0  0  0  0
   -7.2546    4.4817  -10.7668 H   0  0  0  0  0  0  0  0  0  0  0  0
   -8.5726    1.3634   -5.1055 H   0  0  0  0  0  0  0  0  0  0  0  0
   -9.3157    2.8781   -4.5355 H   0  0  0  0  0  0  0  0  0  0  0  0
  -10.3370    1.5942   -5.1803 H   0  0  0  0  0  0  0  0  0  0  0  0
   -6.9574    5.8896  -16.2874 H   0  0  0  0  0  0  0  0  0  0  0  0
   -6.4459    4.1929  -16.1416 H   0  0  0  0  0  0  0  0  0  0  0  0
   -6.9134    4.8715  -17.7161 H   0  0  0  0  0  0  0  0  0  0  0  0
   -9.8915    2.7505  -16.7251 H   0  0  0  0  0  0  0  0  0  0  0  0
   -8.2304    2.3235  -16.3545 H   0  0  0  0  0  0  0  0  0  0  0  0
   -8.6365    2.9485  -17.9682 H   0  0  0  0  0  0  0  0  0  0  0  0
  -10.5984    5.1594  -16.8918 H   0  0  0  0  0  0  0  0  0  0  0  0
   -9.4135    6.4687  -16.6940 H   0  0  0  0  0  0  0  0  0  0  0  0
   -9.4154    5.4540  -18.1544 H   0  0  0  0  0  0  0  0  0  0  0  0
   -7.3599    5.7034   -8.4640 H   0  0  0  0  0  0  0  0  0  0  0  0
  1  2  2  0  0  0  0
  1 17  1  0  0  0  0
  2 11  1  0  0  0  0
  2 16  1  0  0  0  0
  3 16  2  0  0  0  0
  3 17  1  0  0  0  0
  3 18  1  0  0  0  0
  4 19  1  0  0  0  0
  4 20  2  0  0  0  0
  4 21  1  0  0  0  0
  5  7  1  0  0  0  0
  5 10  1  0  0  0  0
  6  9  1  0  0  0  0
  6 17  1  0  0  0  0
  7 19  1  0  0  0  0
  8  9  1  0  0  0  0
  8 19  1  0  0  0  0
  9 10  1  0  0  0  0
 10 18  1  0  0  0  0
 12 15  1  0  0  0  0
 13 15  1  0  0  0  0
 14 15  1  0  0  0  0
 15 21  1  0  0  0  0
  1 22  1  0  0  0  0
  5 23  1  0  0  0  0
  5 24  1  0  0  0  0
  6 25  1  0  0  0  0
  6 26  1  0  0  0  0
  7 27  1  0  0  0  0
  7 28  1  0  0  0  0
  8 29  1  0  0  0  0
  8 30  1  0  0  0  0
  9 31  1  0  0  0  0
 10 32  1  0  0  0  0
 11 33  1  0  0  0  0
 11 34  1  0  0  0  0
 11 35  1  0  0  0  0
 12 36  1  0  0  0  0
 12 37  1  0  0  0  0
 12 38  1  0  0  0  0
 13 39  1  0  0  0  0
 13 40  1  0  0  0  0
 13 41  1  0  0  0  0
 14 42  1  0  0  0  0
 14 43  1  0  0  0  0
 14 44  1  0  0  0  0
 18 45  1  0  0  0  0
M  END
> <id>
EN300-1118518

> <smiles>
CC1=CN2CC3CN(CCC3NC2=N1)C(=O)OC(C)(C)C

> <MDLNUMBER>
MFCD30202080

> <IUPAC Name>
tert-butyl 5-methyl-2,4,7,11-tetraazatricyclo[7.4.0.0,3,7]trideca-3,5-diene-11-carboxylate

> <CAS>
1694528-94-3

> <URL>
https://www.enaminestore.com/catalog/EN300-1118518

> <ROCS_ShapeQuery>
_x0404_0B

> <ROCS_TanimotoCombo>
0.387 

> <ROCS_ShapeTanimoto>
0.317 

> <ROCS_ColorTanimoto>
0.070 

> <ROCS_RefTversky>
0.286 

> <ROCS_RefColorTversky>
0.076 

> <ROCS_RefTverskyCombo>
0.362 

> <ROCS_FitTversky>
1.518 

> <ROCS_FitColorTversky>
0.481 

> <ROCS_FitTverskyCombo>
1.999 

> <ROCS_ColorScore>
-5.487

> <ROCS_Overlap>
1909.294

> <ROCS_Rank>
209                 

$$$$
untitled-dbase-45518_0
  -OEChem-08212314543D

 37 38  0     0  0  0  0  0  0999 V2000
   -9.0472    5.9964  -10.0468 C   0  0  0  0  0  0  0  0  0  0  0  0
   -8.7736    6.4263  -12.4146 C   0  0  0  0  0  0  0  0  0  0  0  0
   -8.8056    4.6475  -10.2742 C   0  0  0  0  0  0  0  0  0  0  0  0
   -8.5232    5.0698  -12.6721 C   0  0  0  0  0  0  0  0  0  0  0  0
   -8.5334    4.1910  -11.5699 C   0  0  0  0  0  0  0  0  0  0  0  0
   -9.0281    6.8840  -11.1155 C   0  0  0  0  0  0  0  0  0  0  0  0
   -8.2075    5.3210  -15.1601 C   0  0  0  0  0  0  0  0  0  0  0  0
   -8.2445    3.0722  -14.0707 C   0  0  0  0  0  0  0  0  0  0  0  0
   -7.5820    2.4916  -12.8409 C   0  0  0  0  0  0  0  0  0  0  0  0
   -6.7237    6.1572  -17.4703 C   0  0  0  0  0  0  0  0  0  0  0  0
   -7.7855    4.2002  -18.6330 C   0  0  0  0  0  0  0  0  0  0  0  0
   -9.2233    6.0595  -17.7477 C   0  0  0  0  0  0  0  0  0  0  0  0
   -8.8319    3.7071   -9.1125 C   0  0  0  0  0  0  0  0  0  0  0  0
   -7.9484    5.2455  -17.5317 C   0  0  0  0  0  0  0  0  0  0  0  0
   -8.3026    4.5391  -13.9924 N   0  0  0  0  0  0  0  0  0  0  0  0
   -8.2426    6.5465  -15.2236 O   0  0  0  0  0  0  0  0  0  0  0  0
   -8.3068    2.8400  -11.6675 O   0  0  0  0  0  0  0  0  0  0  0  0
   -8.0592    4.5463  -16.2859 O   0  0  0  0  0  0  0  0  0  0  0  0
   -9.1017    4.3191   -7.9231 F   0  0  0  0  0  0  0  0  0  0  0  0
   -9.7700    2.7233   -9.2311 F   0  0  0  0  0  0  0  0  0  0  0  0
   -7.6427    3.0639   -8.9352 F   0  0  0  0  0  0  0  0  0  0  0  0
   -9.3659    8.7215  -10.8138 Br  0  0  0  0  0  0  0  0  0  0  0  0
   -9.2514    6.3479   -9.0383 H   0  0  0  0  0  0  0  0  0  0  0  0
   -8.8057    7.1620  -13.2089 H   0  0  0  0  0  0  0  0  0  0  0  0
   -7.6936    2.7503  -14.9596 H   0  0  0  0  0  0  0  0  0  0  0  0
   -9.2794    2.7211  -14.1636 H   0  0  0  0  0  0  0  0  0  0  0  0
   -7.5731    1.3985  -12.9080 H   0  0  0  0  0  0  0  0  0  0  0  0
   -6.5386    2.8184  -12.7446 H   0  0  0  0  0  0  0  0  0  0  0  0
   -6.8367    6.9089  -16.6809 H   0  0  0  0  0  0  0  0  0  0  0  0
   -5.8071    5.5891  -17.2809 H   0  0  0  0  0  0  0  0  0  0  0  0
   -6.6005    6.7102  -18.4085 H   0  0  0  0  0  0  0  0  0  0  0  0
   -8.6620    3.5438  -18.6807 H   0  0  0  0  0  0  0  0  0  0  0  0
   -6.9250    3.5519  -18.4317 H   0  0  0  0  0  0  0  0  0  0  0  0
   -7.6471    4.6654  -19.6143 H   0  0  0  0  0  0  0  0  0  0  0  0
  -10.1019    5.4057  -17.7918 H   0  0  0  0  0  0  0  0  0  0  0  0
   -9.3760    6.7900  -16.9467 H   0  0  0  0  0  0  0  0  0  0  0  0
   -9.1872    6.5937  -18.7040 H   0  0  0  0  0  0  0  0  0  0  0  0
  1  3  1  0  0  0  0
  1  6  2  0  0  0  0
  2  4  2  0  0  0  0
  2  6  1  0  0  0  0
  3  5  2  0  0  0  0
  3 13  1  0  0  0  0
  4  5  1  0  0  0  0
  4 15  1  0  0  0  0
  5 17  1  0  0  0  0
  6 22  1  0  0  0  0
  7 15  1  0  0  0  0
  7 16  2  0  0  0  0
  7 18  1  0  0  0  0
  8  9  1  0  0  0  0
  8 15  1  0  0  0  0
  9 17  1  0  0  0  0
 10 14  1  0  0  0  0
 11 14  1  0  0  0  0
 12 14  1  0  0  0  0
 13 19  1  0  0  0  0
 13 20  1  0  0  0  0
 13 21  1  0  0  0  0
 14 18  1  0  0  0  0
  1 23  1  0  0  0  0
  2 24  1  0  0  0  0
  8 25  1  0  0  0  0
  8 26  1  0  0  0  0
  9 27  1  0  0  0  0
  9 28  1  0  0  0  0
 10 29  1  0  0  0  0
 10 30  1  0  0  0  0
 10 31  1  0  0  0  0
 11 32  1  0  0  0  0
 11 33  1  0  0  0  0
 11 34  1  0  0  0  0
 12 35  1  0  0  0  0
 12 36  1  0  0  0  0
 12 37  1  0  0  0  0
M  END
> <id>
EN300-28301970

> <smiles>
CC(C)(C)OC(=O)N1CCOC=2C(=CC(Br)=CC12)C(F)(F)F

> <IUPAC Name>
tert-butyl 6-bromo-8-(trifluoromethyl)-3,4-dihydro-2H-1,4-benzoxazine-4-carboxylate

> <CAS>
2680895-10-5

> <URL>
https://www.enaminestore.com/catalog/EN300-28301970

> <ROCS_ShapeQuery>
_x0404_0B

> <ROCS_TanimotoCombo>
0.387 

> <ROCS_ShapeTanimoto>
0.343 

> <ROCS_ColorTanimoto>
0.044 

> <ROCS_RefTversky>
0.305 

> <ROCS_RefColorTversky>
0.048 

> <ROCS_RefTverskyCombo>
0.353 

> <ROCS_FitTversky>
1.574 

> <ROCS_FitColorTversky>
0.365 

> <ROCS_FitTverskyCombo>
1.939 

> <ROCS_ColorScore>
-3.460

> <ROCS_Overlap>
2035.118

> <ROCS_Rank>
210                 

$$$$
untitled-dbase-14430_71
  -OEChem-08212314543D

 48 50  0     1  0  0  0  0  0999 V2000
   -8.6785    2.7626   -9.6578 C   0  0  0  0  0  0  0  0  0  0  0  0
   -8.9998    2.0119   -8.5459 C   0  0  0  0  0  0  0  0  0  0  0  0
   -8.9483    4.1138   -9.3191 C   0  0  0  0  0  0  0  0  0  0  0  0
   -9.4215    4.0656   -8.0273 C   0  0  0  0  0  0  0  0  0  0  0  0
   -8.0644    5.7720  -14.4338 C   0  0  0  0  0  0  0  0  0  0  0  0
   -9.8397    5.2083   -7.1986 C   0  0  0  0  0  0  0  0  0  0  0  0
   -7.4079    5.5433  -10.7155 C   0  0  0  0  0  0  0  0  0  0  0  0
   -9.9174    5.4811  -11.1974 C   0  0  0  0  0  0  0  0  0  0  0  0
  -10.0265    6.4204   -8.1289 C   0  0  0  0  0  0  0  0  0  0  0  0
   -7.3265    5.0302  -12.1506 C   0  0  0  0  0  0  0  0  0  0  0  0
   -9.5172    6.2378  -12.4735 C   0  0  1  0  0  0  0  0  0  0  0  0
   -8.8243    5.4083  -10.0956 C   0  0  1  0  0  0  0  0  0  0  0  0
   -9.4324    7.7536  -12.2851 C   0  0  0  0  0  0  0  0  0  0  0  0
   -6.3083    5.9161  -16.6879 C   0  0  0  0  0  0  0  0  0  0  0  0
   -6.3499    3.4050  -16.6476 C   0  0  0  0  0  0  0  0  0  0  0  0
   -8.4724    4.6846  -17.0552 C   0  0  0  0  0  0  0  0  0  0  0  0
   -7.1290    4.6787  -16.3271 C   0  0  0  0  0  0  0  0  0  0  0  0
   -8.9416    6.5389   -9.1213 N   0  0  0  0  0  0  0  0  0  0  0  0
   -8.2722    5.7030  -13.0488 N   0  0  0  0  0  0  0  0  0  0  0  0
   -8.4597    6.6914  -15.1483 O   0  0  0  0  0  0  0  0  0  0  0  0
   -9.4556    2.8068   -7.5387 O   0  0  0  0  0  0  0  0  0  0  0  0
   -7.3750    4.6905  -14.9163 O   0  0  0  0  0  0  0  0  0  0  0  0
   -8.3005    2.3794  -10.5953 H   0  0  0  0  0  0  0  0  0  0  0  0
   -8.9656    0.9552   -8.3250 H   0  0  0  0  0  0  0  0  0  0  0  0
  -10.7712    4.9927   -6.6649 H   0  0  0  0  0  0  0  0  0  0  0  0
   -9.0618    5.4218   -6.4560 H   0  0  0  0  0  0  0  0  0  0  0  0
   -6.6772    4.9884  -10.1091 H   0  0  0  0  0  0  0  0  0  0  0  0
   -7.0800    6.5925  -10.6875 H   0  0  0  0  0  0  0  0  0  0  0  0
  -10.8528    5.8897  -10.7983 H   0  0  0  0  0  0  0  0  0  0  0  0
  -10.1655    4.4523  -11.4957 H   0  0  0  0  0  0  0  0  0  0  0  0
  -10.9971    6.3672   -8.6345 H   0  0  0  0  0  0  0  0  0  0  0  0
  -10.0456    7.3292   -7.5174 H   0  0  0  0  0  0  0  0  0  0  0  0
   -6.3220    5.1694  -12.5709 H   0  0  0  0  0  0  0  0  0  0  0  0
   -7.5117    3.9485  -12.1548 H   0  0  0  0  0  0  0  0  0  0  0  0
  -10.3211    6.0747  -13.1699 H   0  0  0  0  0  0  0  0  0  0  0  0
   -8.6330    7.9923  -11.5868 H   0  0  0  0  0  0  0  0  0  0  0  0
  -10.3754    8.1276  -11.8920 H   0  0  0  0  0  0  0  0  0  0  0  0
   -9.2278    8.2311  -13.2411 H   0  0  0  0  0  0  0  0  0  0  0  0
   -6.8641    6.8325  -16.4593 H   0  0  0  0  0  0  0  0  0  0  0  0
   -5.3575    5.9417  -16.1457 H   0  0  0  0  0  0  0  0  0  0  0  0
   -6.0948    5.9440  -17.7625 H   0  0  0  0  0  0  0  0  0  0  0  0
   -6.9350    2.5146  -16.3904 H   0  0  0  0  0  0  0  0  0  0  0  0
   -5.4293    3.3511  -16.0554 H   0  0  0  0  0  0  0  0  0  0  0  0
   -6.0837    3.3503  -17.7082 H   0  0  0  0  0  0  0  0  0  0  0  0
   -9.0612    3.7971  -16.7966 H   0  0  0  0  0  0  0  0  0  0  0  0
   -9.0611    5.5739  -16.8082 H   0  0  0  0  0  0  0  0  0  0  0  0
   -8.3271    4.6536  -18.1411 H   0  0  0  0  0  0  0  0  0  0  0  0
   -9.0141    7.4311   -9.6056 H   0  0  0  0  0  0  0  0  0  0  0  0
  1  2  2  0  0  0  0
  1  3  1  0  0  0  0
  2 21  1  0  0  0  0
  3  4  2  0  0  0  0
  3 12  1  0  0  0  0
  4  6  1  0  0  0  0
  4 21  1  0  0  0  0
  5 19  1  0  0  0  0
  5 20  2  0  0  0  0
  5 22  1  0  0  0  0
  6  9  1  0  0  0  0
  7 10  1  0  0  0  0
  7 12  1  0  0  0  0
  8 11  1  0  0  0  0
  8 12  1  0  0  0  0
  9 18  1  0  0  0  0
 10 19  1  0  0  0  0
 11 13  1  0  0  0  0
 11 19  1  0  0  0  0
 12 18  1  0  0  0  0
 14 17  1  0  0  0  0
 15 17  1  0  0  0  0
 16 17  1  0  0  0  0
 17 22  1  0  0  0  0
  1 23  1  0  0  0  0
  2 24  1  0  0  0  0
  6 25  1  0  0  0  0
  6 26  1  0  0  0  0
  7 27  1  0  0  0  0
  7 28  1  0  0  0  0
  8 29  1  0  0  0  0
  8 30  1  0  0  0  0
  9 31  1  0  0  0  0
  9 32  1  0  0  0  0
 10 33  1  0  0  0  0
 10 34  1  0  0  0  0
 11 35  1  0  0  0  0
 13 36  1  0  0  0  0
 13 37  1  0  0  0  0
 13 38  1  0  0  0  0
 14 39  1  0  0  0  0
 14 40  1  0  0  0  0
 14 41  1  0  0  0  0
 15 42  1  0  0  0  0
 15 43  1  0  0  0  0
 15 44  1  0  0  0  0
 16 45  1  0  0  0  0
 16 46  1  0  0  0  0
 16 47  1  0  0  0  0
 18 48  1  0  0  0  0
M  END
> <id>
EN300-1076496

> <smiles>
CC1CC2(CCN1C(=O)OC(C)(C)C)NCCC=3OC=CC32

> <IUPAC Name>
tert-butyl 6'-methyl-6,7-dihydro-5H-spiro[furo[3,2-c]pyridine-4,4'-piperidine]-1'-carboxylate

> <CAS>
2022848-54-8

> <URL>
https://www.enaminestore.com/catalog/EN300-1076496

> <ROCS_ShapeQuery>
_x0404_0B

> <ROCS_TanimotoCombo>
0.386 

> <ROCS_ShapeTanimoto>
0.311 

> <ROCS_ColorTanimoto>
0.075 

> <ROCS_RefTversky>
0.283 

> <ROCS_RefColorTversky>
0.081 

> <ROCS_RefTverskyCombo>
0.364 

> <ROCS_FitTversky>
1.467 

> <ROCS_FitColorTversky>
0.511 

> <ROCS_FitTverskyCombo>
1.978 

> <ROCS_ColorScore>
-5.823

> <ROCS_Overlap>
1891.211

> <ROCS_Rank>
211                 

$$$$
untitled-dbase-34614_14
  -OEChem-08212314543D

 42 44  0     1  0  0  0  0  0999 V2000
   -8.5644    5.6701  -14.3435 C   0  0  0  0  0  0  0  0  0  0  0  0
   -8.6971    5.5321   -9.3848 C   0  0  0  0  0  0  0  0  0  0  0  0
   -8.0758    3.0102  -10.6676 C   0  0  0  0  0  0  0  0  0  0  0  0
   -9.8600    3.5149   -8.1176 C   0  0  0  0  0  0  0  0  0  0  0  0
   -8.6428    6.0037  -11.8791 C   0  0  0  0  0  0  0  0  0  0  0  0
   -9.2867    3.8537  -12.7509 C   0  0  0  0  0  0  0  0  0  0  0  0
   -8.5946    4.3175   -8.4734 C   0  0  1  0  0  0  0  0  0  0  0  0
   -9.3325    5.2308  -10.7509 C   0  0  1  0  0  0  0  0  0  0  0  0
   -9.2848    3.7623  -11.2248 C   0  0  2  0  0  0  0  0  0  0  0  0
   -8.0715    3.0292   -9.1379 C   0  0  1  0  0  0  0  0  0  0  0  0
   -7.1012    5.5145  -16.7939 C   0  0  0  0  0  0  0  0  0  0  0  0
   -8.9039    3.9403  -17.5563 C   0  0  0  0  0  0  0  0  0  0  0  0
   -9.4798    6.3160  -16.9798 C   0  0  0  0  0  0  0  0  0  0  0  0
   -8.5734    5.1291  -16.6565 C   0  0  0  0  0  0  0  0  0  0  0  0
   -9.1718    2.2762   -8.5086 N   0  0  0  0  0  0  0  0  0  0  0  0
   -8.8266    5.1954  -13.0686 N   0  0  0  0  0  0  0  0  0  0  0  0
   -8.1572    6.8036  -14.5883 O   0  0  0  0  0  0  0  0  0  0  0  0
   -8.8146    4.7264  -15.3037 O   0  0  0  0  0  0  0  0  0  0  0  0
   -9.2639    6.3268   -8.8844 H   0  0  0  0  0  0  0  0  0  0  0  0
   -7.6844    5.9339   -9.5227 H   0  0  0  0  0  0  0  0  0  0  0  0
   -8.1258    1.9859  -11.0439 H   0  0  0  0  0  0  0  0  0  0  0  0
   -7.1509    3.4414  -11.0516 H   0  0  0  0  0  0  0  0  0  0  0  0
  -10.1665    3.5607   -7.0572 H   0  0  0  0  0  0  0  0  0  0  0  0
  -10.7565    3.7444   -8.7243 H   0  0  0  0  0  0  0  0  0  0  0  0
   -9.1397    6.9712  -12.0575 H   0  0  0  0  0  0  0  0  0  0  0  0
   -7.5753    6.2039  -11.6949 H   0  0  0  0  0  0  0  0  0  0  0  0
   -8.5926    3.1355  -13.2235 H   0  0  0  0  0  0  0  0  0  0  0  0
  -10.2866    3.6791  -13.1871 H   0  0  0  0  0  0  0  0  0  0  0  0
   -8.0393    4.6008   -7.5810 H   0  0  0  0  0  0  0  0  0  0  0  0
  -10.4245    5.5505  -10.6898 H   0  0  0  0  0  0  0  0  0  0  0  0
  -10.1655    3.2453  -10.9079 H   0  0  0  0  0  0  0  0  0  0  0  0
   -7.0556    2.7509   -8.7640 H   0  0  0  0  0  0  0  0  0  0  0  0
   -6.8600    6.3675  -16.1496 H   0  0  0  0  0  0  0  0  0  0  0  0
   -6.4401    4.6823  -16.5311 H   0  0  0  0  0  0  0  0  0  0  0  0
   -6.8730    5.8274  -17.8193 H   0  0  0  0  0  0  0  0  0  0  0  0
   -9.9593    3.6603  -17.4609 H   0  0  0  0  0  0  0  0  0  0  0  0
   -8.3229    3.0575  -17.2658 H   0  0  0  0  0  0  0  0  0  0  0  0
   -8.6974    4.1604  -18.6087 H   0  0  0  0  0  0  0  0  0  0  0  0
  -10.5359    6.0398  -16.8813 H   0  0  0  0  0  0  0  0  0  0  0  0
   -9.2819    7.1663  -16.3190 H   0  0  0  0  0  0  0  0  0  0  0  0
   -9.3408    6.6413  -18.0171 H   0  0  0  0  0  0  0  0  0  0  0  0
   -8.8646    1.7119   -7.6973 H   0  0  0  0  0  0  0  0  0  0  0  0
  1 16  1  0  0  0  0
  1 17  2  0  0  0  0
  1 18  1  0  0  0  0
  2  7  1  1  0  0  0
  2  8  1  0  0  0  0
  3  9  1  6  0  0  0
  3 10  1  1  0  0  0
  4  7  1  0  0  0  0
  4 15  1  0  0  0  0
  5  8  1  6  0  0  0
  5 16  1  0  0  0  0
  6  9  1  0  0  0  0
  6 16  1  0  0  0  0
  7 10  1  0  0  0  0
  8  9  1  0  0  0  0
 10 15  1  0  0  0  0
 11 14  1  0  0  0  0
 12 14  1  0  0  0  0
 13 14  1  0  0  0  0
 14 18  1  0  0  0  0
  2 19  1  0  0  0  0
  2 20  1  0  0  0  0
  3 21  1  0  0  0  0
  3 22  1  0  0  0  0
  4 23  1  0  0  0  0
  4 24  1  0  0  0  0
  5 25  1  0  0  0  0
  5 26  1  0  0  0  0
  6 27  1  0  0  0  0
  6 28  1  0  0  0  0
  7 29  1  0  0  0  0
  8 30  1  0  0  0  0
  9 31  1  0  0  0  0
 10 32  1  0  0  0  0
 11 33  1  0  0  0  0
 11 34  1  0  0  0  0
 11 35  1  0  0  0  0
 12 36  1  0  0  0  0
 12 37  1  0  0  0  0
 12 38  1  0  0  0  0
 13 39  1  0  0  0  0
 13 40  1  0  0  0  0
 13 41  1  0  0  0  0
 15 42  1  0  0  0  0
M  END
> <id>
EN300-90574

> <smiles>
CC(C)(C)OC(=O)N1C[C@@H]2C[C@H]3CN[C@H]3C[C@@H]2C1

> <MDLNUMBER>
MFCD20441699

> <IUPAC Name>
tert-butyl (2aS,3aR,6aS,7aS)-decahydro-1H-azeto[2,3-f]isoindole-5-carboxylate

> <CAS>
1486470-57-8

> <URL>
https://www.enaminestore.com/catalog/EN300-90574

> <ROCS_ShapeQuery>
_x0404_0B

> <ROCS_TanimotoCombo>
0.386 

> <ROCS_ShapeTanimoto>
0.301 

> <ROCS_ColorTanimoto>
0.085 

> <ROCS_RefTversky>
0.270 

> <ROCS_RefColorTversky>
0.090 

> <ROCS_RefTverskyCombo>
0.360 

> <ROCS_FitTversky>
1.621 

> <ROCS_FitColorTversky>
0.613 

> <ROCS_FitTverskyCombo>
2.234 

> <ROCS_ColorScore>
-6.469

> <ROCS_Overlap>
1798.880

> <ROCS_Rank>
212                 

$$$$
untitled-dbase-23262_31
  -OEChem-08212314543D

 48 51  0     1  0  0  0  0  0999 V2000
   -7.1258    2.6129  -18.0074 C   0  0  0  0  0  0  0  0  0  0  0  0
   -6.7483    1.4102  -17.4227 C   0  0  0  0  0  0  0  0  0  0  0  0
   -7.6076    3.6501  -17.2111 C   0  0  0  0  0  0  0  0  0  0  0  0
   -6.8423    1.2441  -16.0400 C   0  0  0  0  0  0  0  0  0  0  0  0
   -7.7171    3.4939  -15.8186 C   0  0  0  0  0  0  0  0  0  0  0  0
   -7.3181    2.2808  -15.2254 C   0  0  0  0  0  0  0  0  0  0  0  0
   -7.1383    2.2973  -11.1185 C   0  0  0  0  0  0  0  0  0  0  0  0
   -7.2387    1.1132  -11.7380 C   0  0  0  0  0  0  0  0  0  0  0  0
   -8.2887    4.6581  -15.0732 C   0  0  0  0  0  0  0  0  0  0  0  0
   -9.4985    3.7756  -10.5868 C   0  0  0  0  0  0  0  0  0  0  0  0
   -7.3236    2.5466   -9.6566 C   0  0  0  0  0  0  0  0  0  0  0  0
   -7.1197    0.9501  -13.2284 C   0  0  0  0  0  0  0  0  0  0  0  0
   -8.0141    6.5124  -11.9766 C   0  0  0  0  0  0  0  0  0  0  0  0
   -7.8697    5.8059  -10.6191 C   0  0  0  0  0  0  0  0  0  0  0  0
   -9.9657    5.3364  -13.3616 C   0  0  0  0  0  0  0  0  0  0  0  0
   -8.8093    3.9123   -8.0167 C   0  0  0  0  0  0  0  0  0  0  0  0
   -9.6176    2.0797   -8.5589 C   0  0  0  0  0  0  0  0  0  0  0  0
   -9.4310    5.9074  -12.0614 C   0  0  1  0  0  0  0  0  0  0  0  0
   -8.7395    3.1096   -9.3601 C   0  0  0  0  0  0  0  0  0  0  0  0
   -9.0624    4.3652  -13.9576 N   0  0  0  0  0  0  0  0  0  0  0  0
   -9.0926    2.6531   -7.3074 N   0  0  0  0  0  0  0  0  0  0  0  0
   -8.9683    4.9581  -11.0522 N   0  0  0  0  0  0  0  0  0  0  0  0
   -8.1104    5.7919  -15.5140 O   0  0  0  0  0  0  0  0  0  0  0  0
  -10.5064    3.2726  -11.1006 O   0  0  0  0  0  0  0  0  0  0  0  0
   -7.3854    2.2022  -13.8646 O   0  0  0  0  0  0  0  0  0  0  0  0
   -7.0359    2.7492  -19.0798 H   0  0  0  0  0  0  0  0  0  0  0  0
   -6.3719    0.5984  -18.0397 H   0  0  0  0  0  0  0  0  0  0  0  0
   -7.8829    4.5920  -17.6891 H   0  0  0  0  0  0  0  0  0  0  0  0
   -6.5356    0.2945  -15.5987 H   0  0  0  0  0  0  0  0  0  0  0  0
   -6.9290    3.1828  -11.7445 H   0  0  0  0  0  0  0  0  0  0  0  0
   -7.4343    0.2167  -11.1586 H   0  0  0  0  0  0  0  0  0  0  0  0
   -7.1636    1.5998   -9.1229 H   0  0  0  0  0  0  0  0  0  0  0  0
   -6.5658    3.2437   -9.2738 H   0  0  0  0  0  0  0  0  0  0  0  0
   -6.0824    0.6882  -13.4638 H   0  0  0  0  0  0  0  0  0  0  0  0
   -7.7481    0.1320  -13.6003 H   0  0  0  0  0  0  0  0  0  0  0  0
   -8.0072    7.6035  -11.9077 H   0  0  0  0  0  0  0  0  0  0  0  0
   -7.3056    6.1985  -12.7435 H   0  0  0  0  0  0  0  0  0  0  0  0
   -6.9404    5.2507  -10.4751 H   0  0  0  0  0  0  0  0  0  0  0  0
   -8.0720    6.4499   -9.7655 H   0  0  0  0  0  0  0  0  0  0  0  0
  -10.9333    4.8124  -13.1887 H   0  0  0  0  0  0  0  0  0  0  0  0
  -10.1870    6.1337  -14.1113 H   0  0  0  0  0  0  0  0  0  0  0  0
   -7.8879    4.4081   -7.6994 H   0  0  0  0  0  0  0  0  0  0  0  0
   -9.6327    4.6328   -7.9534 H   0  0  0  0  0  0  0  0  0  0  0  0
  -10.7002    2.2133   -8.6694 H   0  0  0  0  0  0  0  0  0  0  0  0
   -9.3928    1.0189   -8.6967 H   0  0  0  0  0  0  0  0  0  0  0  0
  -10.1950    6.6272  -11.5786 H   0  0  0  0  0  0  0  0  0  0  0  0
   -8.9947    3.4402  -13.5436 H   0  0  0  0  0  0  0  0  0  0  0  0
   -8.2526    2.1830   -6.9717 H   0  0  0  0  0  0  0  0  0  0  0  0
  1  2  2  0  0  0  0
  1  3  1  0  0  0  0
  2  4  1  0  0  0  0
  3  5  2  0  0  0  0
  4  6  2  0  0  0  0
  5  6  1  0  0  0  0
  5  9  1  0  0  0  0
  6 25  1  0  0  0  0
  7  8  2  0  0  0  0
  7 11  1  0  0  0  0
  8 12  1  0  0  0  0
  9 20  1  0  0  0  0
  9 23  2  0  0  0  0
 10 19  1  0  0  0  0
 10 22  1  0  0  0  0
 10 24  2  0  0  0  0
 11 19  1  0  0  0  0
 12 25  1  0  0  0  0
 13 14  1  0  0  0  0
 13 18  1  0  0  0  0
 14 22  1  0  0  0  0
 15 18  1  0  0  0  0
 15 20  1  0  0  0  0
 16 19  1  0  0  0  0
 16 21  1  0  0  0  0
 17 19  1  0  0  0  0
 17 21  1  0  0  0  0
 18 22  1  0  0  0  0
  1 26  1  0  0  0  0
  2 27  1  0  0  0  0
  3 28  1  0  0  0  0
  4 29  1  0  0  0  0
  7 30  1  0  0  0  0
  8 31  1  0  0  0  0
 11 32  1  0  0  0  0
 11 33  1  0  0  0  0
 12 34  1  0  0  0  0
 12 35  1  0  0  0  0
 13 36  1  0  0  0  0
 13 37  1  0  0  0  0
 14 38  1  0  0  0  0
 14 39  1  0  0  0  0
 15 40  1  0  0  0  0
 15 41  1  0  0  0  0
 16 42  1  0  0  0  0
 16 43  1  0  0  0  0
 17 44  1  0  0  0  0
 17 45  1  0  0  0  0
 18 46  1  0  0  0  0
 20 47  1  0  0  0  0
 21 48  1  0  0  0  0
M  END
> <id>
EN300-6477910

> <smiles>
OC(=O)C(F)(F)F.O=C1NCC2CCN2C(=O)C3(CNC3)C/C=C/COC=4C=CC=CC14

> <MDLNUMBER>
MFCD31667273

> <IUPAC Name>
(12'E)-15'-oxa-3',8'-diazaspiro[azetidine-3,10'-tricyclo[14.4.0.0,5,8]icosane]-1'(16'),12',17',19'-tetraene-2',9'-dione; trifluoroacetic acid

> <URL>
https://www.enaminestore.com/catalog/EN300-6477910

> <Saltdate>
OC(=O)C(F)(F)F

> <ROCS_ShapeQuery>
_x0404_0B

> <ROCS_TanimotoCombo>
0.386 

> <ROCS_ShapeTanimoto>
0.254 

> <ROCS_ColorTanimoto>
0.131 

> <ROCS_RefTversky>
0.246 

> <ROCS_RefColorTversky>
0.136 

> <ROCS_RefTverskyCombo>
0.382 

> <ROCS_FitTversky>
1.155 

> <ROCS_FitColorTversky>
0.797 

> <ROCS_FitTverskyCombo>
1.952 

> <ROCS_ColorScore>
-9.828

> <ROCS_Overlap>
1642.123

> <ROCS_Rank>
213                 

$$$$
untitled-dbase-8817_0
  -OEChem-08212314543D

 36 37  0     0  0  0  0  0  0999 V2000
   -8.2753    5.3445   -8.8683 C   0  0  0  0  0  0  0  0  0  0  0  0
   -8.5453    5.5029  -10.2177 C   0  0  0  0  0  0  0  0  0  0  0  0
   -9.0836    4.3942  -10.8624 C   0  0  0  0  0  0  0  0  0  0  0  0
   -9.0612    3.2160   -8.9028 C   0  0  0  0  0  0  0  0  0  0  0  0
   -8.5948    5.6734  -14.3672 C   0  0  0  0  0  0  0  0  0  0  0  0
   -8.2211    6.7685  -10.9489 C   0  0  0  0  0  0  0  0  0  0  0  0
   -9.4156    4.4344  -12.3306 C   0  0  0  0  0  0  0  0  0  0  0  0
   -9.0147    6.8888  -12.2461 C   0  0  0  0  0  0  0  0  0  0  0  0
   -6.9384    4.7894  -16.5270 C   0  0  0  0  0  0  0  0  0  0  0  0
   -8.6304    2.9581  -16.8312 C   0  0  0  0  0  0  0  0  0  0  0  0
   -9.3167    5.3563  -17.1246 C   0  0  0  0  0  0  0  0  0  0  0  0
   -8.4054    4.3944  -16.3636 C   0  0  0  0  0  0  0  0  0  0  0  0
   -8.5256    4.2140   -8.1782 N   0  0  0  0  0  0  0  0  0  0  0  0
   -9.3582    3.2372  -10.2160 N   0  0  0  0  0  0  0  0  0  0  0  0
   -8.9478    5.6465  -13.0138 N   0  0  0  0  0  0  0  0  0  0  0  0
   -9.3411    2.0160   -8.2132 N   0  0  0  0  0  0  0  0  0  0  0  0
   -8.2005    6.6747  -14.9621 O   0  0  0  0  0  0  0  0  0  0  0  0
   -8.7409    4.4528  -14.9724 O   0  0  0  0  0  0  0  0  0  0  0  0
   -7.8366    6.1474   -8.2842 H   0  0  0  0  0  0  0  0  0  0  0  0
   -8.4429    7.6352  -10.3156 H   0  0  0  0  0  0  0  0  0  0  0  0
   -7.1468    6.7808  -11.1699 H   0  0  0  0  0  0  0  0  0  0  0  0
   -8.9970    3.5460  -12.8144 H   0  0  0  0  0  0  0  0  0  0  0  0
  -10.5050    4.4042  -12.4501 H   0  0  0  0  0  0  0  0  0  0  0  0
  -10.0750    7.0755  -12.0340 H   0  0  0  0  0  0  0  0  0  0  0  0
   -8.6457    7.7353  -12.8339 H   0  0  0  0  0  0  0  0  0  0  0  0
   -6.7727    5.8197  -16.1924 H   0  0  0  0  0  0  0  0  0  0  0  0
   -6.2768    4.1283  -15.9577 H   0  0  0  0  0  0  0  0  0  0  0  0
   -6.6391    4.7547  -17.5808 H   0  0  0  0  0  0  0  0  0  0  0  0
   -9.6817    2.6704  -16.7158 H   0  0  0  0  0  0  0  0  0  0  0  0
   -8.0494    2.2544  -16.2242 H   0  0  0  0  0  0  0  0  0  0  0  0
   -8.3481    2.8259  -17.8807 H   0  0  0  0  0  0  0  0  0  0  0  0
  -10.3690    5.0731  -17.0076 H   0  0  0  0  0  0  0  0  0  0  0  0
   -9.1954    6.3872  -16.7765 H   0  0  0  0  0  0  0  0  0  0  0  0
   -9.1057    5.3246  -18.1997 H   0  0  0  0  0  0  0  0  0  0  0  0
   -9.7829    1.2655   -8.7030 H   0  0  0  0  0  0  0  0  0  0  0  0
   -9.1792    1.9724   -7.2282 H   0  0  0  0  0  0  0  0  0  0  0  0
  1  2  2  0  0  0  0
  1 13  1  0  0  0  0
  2  3  1  0  0  0  0
  2  6  1  0  0  0  0
  3  7  1  0  0  0  0
  3 14  2  0  0  0  0
  4 13  2  0  0  0  0
  4 14  1  0  0  0  0
  4 16  1  0  0  0  0
  5 15  1  0  0  0  0
  5 17  2  0  0  0  0
  5 18  1  0  0  0  0
  6  8  1  0  0  0  0
  7 15  1  0  0  0  0
  8 15  1  0  0  0  0
  9 12  1  0  0  0  0
 10 12  1  0  0  0  0
 11 12  1  0  0  0  0
 12 18  1  0  0  0  0
  1 19  1  0  0  0  0
  6 20  1  0  0  0  0
  6 21  1  0  0  0  0
  7 22  1  0  0  0  0
  7 23  1  0  0  0  0
  8 24  1  0  0  0  0
  8 25  1  0  0  0  0
  9 26  1  0  0  0  0
  9 27  1  0  0  0  0
  9 28  1  0  0  0  0
 10 29  1  0  0  0  0
 10 30  1  0  0  0  0
 10 31  1  0  0  0  0
 11 32  1  0  0  0  0
 11 33  1  0  0  0  0
 11 34  1  0  0  0  0
 16 35  1  0  0  0  0
 16 36  1  0  0  0  0
M  END
> <id>
EN300-305111

> <smiles>
CC(C)(C)OC(=O)N1CCC=2C=NC(N)=NC2C1

> <MDLNUMBER>
MFCD22565681

> <IUPAC Name>
tert-butyl 2-amino-5H,6H,7H,8H-pyrido[3,4-d]pyrimidine-7-carboxylate

> <CAS>
1395079-01-2

> <Purity>
95

> <URL>
https://www.enaminestore.com/catalog/EN300-305111

> <ROCS_ShapeQuery>
_x0404_0B

> <ROCS_TanimotoCombo>
0.386 

> <ROCS_ShapeTanimoto>
0.301 

> <ROCS_ColorTanimoto>
0.085 

> <ROCS_RefTversky>
0.270 

> <ROCS_RefColorTversky>
0.090 

> <ROCS_RefTverskyCombo>
0.360 

> <ROCS_FitTversky>
1.611 

> <ROCS_FitColorTversky>
0.572 

> <ROCS_FitTverskyCombo>
2.183 

> <ROCS_ColorScore>
-6.523

> <ROCS_Overlap>
1800.822

> <ROCS_Rank>
214                 

$$$$
untitled-dbase-26252_43
  -OEChem-08212314543D

 43 44  0     1  0  0  0  0  0999 V2000
   -8.9240    5.8747   -8.8257 C   0  0  0  0  0  0  0  0  0  0  0  0
   -9.0868    4.9415   -7.8063 C   0  0  0  0  0  0  0  0  0  0  0  0
   -8.6899    3.1697   -9.3928 C   0  0  0  0  0  0  0  0  0  0  0  0
   -8.6440    5.4700  -10.1455 C   0  0  0  0  0  0  0  0  0  0  0  0
   -8.5150    4.0915  -10.4435 C   0  0  0  0  0  0  0  0  0  0  0  0
   -8.9720    3.5888   -8.0909 C   0  0  0  0  0  0  0  0  0  0  0  0
   -8.5914    5.7777  -14.4961 C   0  0  0  0  0  0  0  0  0  0  0  0
   -8.4926    6.5482  -11.1961 C   0  0  0  0  0  0  0  0  0  0  0  0
   -9.5362    6.4510  -12.3086 C   0  0  0  0  0  0  0  0  0  0  0  0
   -9.3252    4.0207  -12.8402 C   0  0  0  0  0  0  0  0  0  0  0  0
   -8.1967    3.6261  -11.8649 C   0  0  2  0  0  0  0  0  0  0  0  0
   -7.9126    2.1231  -12.0160 C   0  0  0  0  0  0  0  0  0  0  0  0
   -7.2935    5.9973  -17.0380 C   0  0  0  0  0  0  0  0  0  0  0  0
   -7.9993    3.6136  -17.3967 C   0  0  0  0  0  0  0  0  0  0  0  0
   -9.7380    5.4013  -17.0986 C   0  0  0  0  0  0  0  0  0  0  0  0
   -8.3378    4.9326  -16.7055 C   0  0  0  0  0  0  0  0  0  0  0  0
   -9.1886    5.4152  -13.2795 N   0  0  0  0  0  0  0  0  0  0  0  0
   -8.3284    6.9341  -14.8219 O   0  0  0  0  0  0  0  0  0  0  0  0
   -9.1385    2.6669   -7.1017 O   0  0  0  0  0  0  0  0  0  0  0  0
   -8.3154    4.6977  -15.2929 O   0  0  0  0  0  0  0  0  0  0  0  0
   -9.0188    6.9288   -8.5817 H   0  0  0  0  0  0  0  0  0  0  0  0
   -9.3065    5.2763   -6.7970 H   0  0  0  0  0  0  0  0  0  0  0  0
   -8.6083    2.1012   -9.5859 H   0  0  0  0  0  0  0  0  0  0  0  0
   -8.5046    7.5297  -10.7232 H   0  0  0  0  0  0  0  0  0  0  0  0
   -7.5127    6.4552  -11.6697 H   0  0  0  0  0  0  0  0  0  0  0  0
  -10.5024    6.2044  -11.8588 H   0  0  0  0  0  0  0  0  0  0  0  0
   -9.6574    7.4021  -12.8363 H   0  0  0  0  0  0  0  0  0  0  0  0
   -9.3154    3.3868  -13.7210 H   0  0  0  0  0  0  0  0  0  0  0  0
  -10.2793    3.8861  -12.3452 H   0  0  0  0  0  0  0  0  0  0  0  0
   -7.3380    4.1516  -12.2280 H   0  0  0  0  0  0  0  0  0  0  0  0
   -8.7654    1.5523  -11.6562 H   0  0  0  0  0  0  0  0  0  0  0  0
   -7.0318    1.8579  -11.4360 H   0  0  0  0  0  0  0  0  0  0  0  0
   -7.7382    1.8880  -13.0633 H   0  0  0  0  0  0  0  0  0  0  0  0
   -7.5329    6.9457  -16.5437 H   0  0  0  0  0  0  0  0  0  0  0  0
   -6.2896    5.6880  -16.7292 H   0  0  0  0  0  0  0  0  0  0  0  0
   -7.2759    6.2053  -18.1139 H   0  0  0  0  0  0  0  0  0  0  0  0
   -8.7460    2.8467  -17.1609 H   0  0  0  0  0  0  0  0  0  0  0  0
   -7.0364    3.2250  -17.0459 H   0  0  0  0  0  0  0  0  0  0  0  0
   -7.9514    3.7280  -18.4844 H   0  0  0  0  0  0  0  0  0  0  0  0
  -10.4872    4.6378  -16.8602 H   0  0  0  0  0  0  0  0  0  0  0  0
  -10.0126    6.3276  -16.5836 H   0  0  0  0  0  0  0  0  0  0  0  0
   -9.8029    5.5714  -18.1794 H   0  0  0  0  0  0  0  0  0  0  0  0
   -9.3311    3.1082   -6.2588 H   0  0  0  0  0  0  0  0  0  0  0  0
  1  2  1  0  0  0  0
  1  4  2  0  0  0  0
  2  6  2  0  0  0  0
  3  5  2  0  0  0  0
  3  6  1  0  0  0  0
  4  5  1  0  0  0  0
  4  8  1  0  0  0  0
  5 11  1  0  0  0  0
  6 19  1  0  0  0  0
  7 17  1  0  0  0  0
  7 18  2  0  0  0  0
  7 20  1  0  0  0  0
  8  9  1  0  0  0  0
  9 17  1  0  0  0  0
 10 11  1  0  0  0  0
 10 17  1  0  0  0  0
 11 12  1  0  0  0  0
 13 16  1  0  0  0  0
 14 16  1  0  0  0  0
 15 16  1  0  0  0  0
 16 20  1  0  0  0  0
  1 21  1  0  0  0  0
  2 22  1  0  0  0  0
  3 23  1  0  0  0  0
  8 24  1  0  0  0  0
  8 25  1  0  0  0  0
  9 26  1  0  0  0  0
  9 27  1  0  0  0  0
 10 28  1  0  0  0  0
 10 29  1  0  0  0  0
 11 30  1  0  0  0  0
 12 31  1  0  0  0  0
 12 32  1  0  0  0  0
 12 33  1  0  0  0  0
 13 34  1  0  0  0  0
 13 35  1  0  0  0  0
 13 36  1  0  0  0  0
 14 37  1  0  0  0  0
 14 38  1  0  0  0  0
 14 39  1  0  0  0  0
 15 40  1  0  0  0  0
 15 41  1  0  0  0  0
 15 42  1  0  0  0  0
 19 43  1  0  0  0  0
M  END
> <id>
EN300-6729711

> <smiles>
CC1CN(CCC=2C=CC(O)=CC12)C(=O)OC(C)(C)C

> <MDLNUMBER>
MFCD31737404

> <IUPAC Name>
tert-butyl 8-hydroxy-1-methyl-2,3,4,5-tetrahydro-1H-3-benzazepine-3-carboxylate

> <CAS>
851544-71-3

> <Purity>
95

> <URL>
https://www.enaminestore.com/catalog/EN300-6729711

> <ROCS_ShapeQuery>
_x0404_0B

> <ROCS_TanimotoCombo>
0.385 

> <ROCS_ShapeTanimoto>
0.322 

> <ROCS_ColorTanimoto>
0.063 

> <ROCS_RefTversky>
0.287 

> <ROCS_RefColorTversky>
0.067 

> <ROCS_RefTverskyCombo>
0.354 

> <ROCS_FitTversky>
1.615 

> <ROCS_FitColorTversky>
0.512 

> <ROCS_FitTverskyCombo>
2.127 

> <ROCS_ColorScore>
-4.854

> <ROCS_Overlap>
1914.129

> <ROCS_Rank>
215                 

$$$$
untitled-dbase-14418_115
  -OEChem-08212314543D

 45 47  0     0  0  0  0  0  0999 V2000
   -9.3157    2.8128   -9.5966 C   0  0  0  0  0  0  0  0  0  0  0  0
   -9.2607    2.1197   -8.4049 C   0  0  0  0  0  0  0  0  0  0  0  0
   -9.0692    4.1725   -9.2782 C   0  0  0  0  0  0  0  0  0  0  0  0
   -8.8758    4.1880   -7.9153 C   0  0  0  0  0  0  0  0  0  0  0  0
   -8.7113    5.6622  -14.5111 C   0  0  0  0  0  0  0  0  0  0  0  0
   -8.5933    5.3669   -7.0783 C   0  0  0  0  0  0  0  0  0  0  0  0
   -7.6733    5.4170  -10.9651 C   0  0  0  0  0  0  0  0  0  0  0  0
  -10.2235    5.5597  -11.0532 C   0  0  0  0  0  0  0  0  0  0  0  0
   -8.1641    6.5129   -8.0140 C   0  0  0  0  0  0  0  0  0  0  0  0
   -7.8116    6.2002  -12.2662 C   0  0  0  0  0  0  0  0  0  0  0  0
   -9.9987    4.9977  -12.4555 C   0  0  0  0  0  0  0  0  0  0  0  0
   -8.9798    5.4199  -10.1268 C   0  0  0  0  0  0  0  0  0  0  0  0
   -7.7364    4.4953  -16.9343 C   0  0  0  0  0  0  0  0  0  0  0  0
   -9.9434    3.2997  -17.0297 C   0  0  0  0  0  0  0  0  0  0  0  0
   -9.8748    5.8085  -17.1273 C   0  0  0  0  0  0  0  0  0  0  0  0
   -9.2152    4.5550  -16.5542 C   0  0  0  0  0  0  0  0  0  0  0  0
   -9.0156    6.6146   -9.2186 N   0  0  0  0  0  0  0  0  0  0  0  0
   -8.8510    5.6246  -13.1202 N   0  0  0  0  0  0  0  0  0  0  0  0
   -8.1090    6.5420  -15.1234 O   0  0  0  0  0  0  0  0  0  0  0  0
   -8.9926    2.9593   -7.3665 O   0  0  0  0  0  0  0  0  0  0  0  0
   -9.3173    4.5982  -15.1263 O   0  0  0  0  0  0  0  0  0  0  0  0
   -9.5124    2.3862  -10.5700 H   0  0  0  0  0  0  0  0  0  0  0  0
   -9.3868    1.0798   -8.1412 H   0  0  0  0  0  0  0  0  0  0  0  0
   -9.4722    5.6617   -6.4967 H   0  0  0  0  0  0  0  0  0  0  0  0
   -7.7832    5.1298   -6.3798 H   0  0  0  0  0  0  0  0  0  0  0  0
   -7.3892    4.3862  -11.2103 H   0  0  0  0  0  0  0  0  0  0  0  0
   -6.8441    5.8301  -10.3785 H   0  0  0  0  0  0  0  0  0  0  0  0
  -10.5431    6.6076  -11.1289 H   0  0  0  0  0  0  0  0  0  0  0  0
  -11.0749    5.0306  -10.5988 H   0  0  0  0  0  0  0  0  0  0  0  0
   -8.1632    7.4665   -7.4729 H   0  0  0  0  0  0  0  0  0  0  0  0
   -7.1293    6.3370   -8.3294 H   0  0  0  0  0  0  0  0  0  0  0  0
   -8.0869    7.2441  -12.0769 H   0  0  0  0  0  0  0  0  0  0  0  0
   -6.8448    6.2179  -12.7778 H   0  0  0  0  0  0  0  0  0  0  0  0
   -9.8481    3.9130  -12.3890 H   0  0  0  0  0  0  0  0  0  0  0  0
  -10.8736    5.1474  -13.1003 H   0  0  0  0  0  0  0  0  0  0  0  0
   -7.2102    5.3945  -16.5947 H   0  0  0  0  0  0  0  0  0  0  0  0
   -7.2435    3.6192  -16.5004 H   0  0  0  0  0  0  0  0  0  0  0  0
   -7.6137    4.4578  -18.0228 H   0  0  0  0  0  0  0  0  0  0  0  0
  -11.0048    3.3383  -16.7591 H   0  0  0  0  0  0  0  0  0  0  0  0
   -9.5343    2.4047  -16.5473 H   0  0  0  0  0  0  0  0  0  0  0  0
   -9.8666    3.1746  -18.1146 H   0  0  0  0  0  0  0  0  0  0  0  0
  -10.9355    5.8516  -16.8547 H   0  0  0  0  0  0  0  0  0  0  0  0
   -9.3882    6.7208  -16.7673 H   0  0  0  0  0  0  0  0  0  0  0  0
   -9.8370    5.8026  -18.2226 H   0  0  0  0  0  0  0  0  0  0  0  0
   -9.9727    6.8187   -8.9360 H   0  0  0  0  0  0  0  0  0  0  0  0
  1  2  2  0  0  0  0
  1  3  1  0  0  0  0
  2 20  1  0  0  0  0
  3  4  2  0  0  0  0
  3 12  1  0  0  0  0
  4  6  1  0  0  0  0
  4 20  1  0  0  0  0
  5 18  1  0  0  0  0
  5 19  2  0  0  0  0
  5 21  1  0  0  0  0
  6  9  1  0  0  0  0
  7 10  1  0  0  0  0
  7 12  1  0  0  0  0
  8 11  1  0  0  0  0
  8 12  1  0  0  0  0
  9 17  1  0  0  0  0
 10 18  1  0  0  0  0
 11 18  1  0  0  0  0
 12 17  1  0  0  0  0
 13 16  1  0  0  0  0
 14 16  1  0  0  0  0
 15 16  1  0  0  0  0
 16 21  1  0  0  0  0
  1 22  1  0  0  0  0
  2 23  1  0  0  0  0
  6 24  1  0  0  0  0
  6 25  1  0  0  0  0
  7 26  1  0  0  0  0
  7 27  1  0  0  0  0
  8 28  1  0  0  0  0
  8 29  1  0  0  0  0
  9 30  1  0  0  0  0
  9 31  1  0  0  0  0
 10 32  1  0  0  0  0
 10 33  1  0  0  0  0
 11 34  1  0  0  0  0
 11 35  1  0  0  0  0
 13 36  1  0  0  0  0
 13 37  1  0  0  0  0
 13 38  1  0  0  0  0
 14 39  1  0  0  0  0
 14 40  1  0  0  0  0
 14 41  1  0  0  0  0
 15 42  1  0  0  0  0
 15 43  1  0  0  0  0
 15 44  1  0  0  0  0
 17 45  1  0  0  0  0
M  END
> <id>
EN300-1076437

> <smiles>
CC(C)(C)OC(=O)N1CCC2(CC1)NCCC=3OC=CC32

> <IUPAC Name>
tert-butyl 6,7-dihydro-5H-spiro[furo[3,2-c]pyridine-4,4'-piperidine]-1'-carboxylate

> <CAS>
1997938-94-9

> <URL>
https://www.enaminestore.com/catalog/EN300-1076437

> <ROCS_ShapeQuery>
_x0404_0B

> <ROCS_TanimotoCombo>
0.385 

> <ROCS_ShapeTanimoto>
0.310 

> <ROCS_ColorTanimoto>
0.075 

> <ROCS_RefTversky>
0.281 

> <ROCS_RefColorTversky>
0.081 

> <ROCS_RefTverskyCombo>
0.362 

> <ROCS_FitTversky>
1.502 

> <ROCS_FitColorTversky>
0.512 

> <ROCS_FitTverskyCombo>
2.014 

> <ROCS_ColorScore>
-5.838

> <ROCS_Overlap>
1876.400

> <ROCS_Rank>
216                 

$$$$
untitled-dbase-5633_131
  -OEChem-08212314543D

 46 48  0     0  0  0  0  0  0999 V2000
   -9.1287    2.1748   -8.2714 C   0  0  0  0  0  0  0  0  0  0  0  0
   -9.1705    2.8843   -9.4977 C   0  0  0  0  0  0  0  0  0  0  0  0
   -8.9656    3.1004   -7.2653 C   0  0  0  0  0  0  0  0  0  0  0  0
   -9.0347    4.2334   -9.2157 C   0  0  0  0  0  0  0  0  0  0  0  0
   -8.6646    5.6027  -14.5036 C   0  0  0  0  0  0  0  0  0  0  0  0
  -10.2157    5.4744  -11.0712 C   0  0  0  0  0  0  0  0  0  0  0  0
   -7.6645    5.4561  -10.9300 C   0  0  0  0  0  0  0  0  0  0  0  0
   -8.7655    5.5951   -7.1507 C   0  0  0  0  0  0  0  0  0  0  0  0
   -9.9248    4.8808  -12.4487 C   0  0  0  0  0  0  0  0  0  0  0  0
   -7.8003    6.1912  -12.2594 C   0  0  0  0  0  0  0  0  0  0  0  0
   -8.2854    6.6962   -8.0883 C   0  0  0  0  0  0  0  0  0  0  0  0
   -8.9856    5.4604  -10.1114 C   0  0  0  0  0  0  0  0  0  0  0  0
   -7.5946    4.5003  -16.9172 C   0  0  0  0  0  0  0  0  0  0  0  0
   -9.7078    3.1461  -17.0175 C   0  0  0  0  0  0  0  0  0  0  0  0
   -9.8224    5.6528  -17.1262 C   0  0  0  0  0  0  0  0  0  0  0  0
   -9.0757    4.4533  -16.5443 C   0  0  0  0  0  0  0  0  0  0  0  0
   -8.9072    4.3334   -7.8495 N   0  0  0  0  0  0  0  0  0  0  0  0
   -9.0874    6.7164   -9.3161 N   0  0  0  0  0  0  0  0  0  0  0  0
   -8.8076    5.5612  -13.1131 N   0  0  0  0  0  0  0  0  0  0  0  0
   -8.1251    6.5218  -15.1168 O   0  0  0  0  0  0  0  0  0  0  0  0
   -9.1879    4.4949  -15.1172 O   0  0  0  0  0  0  0  0  0  0  0  0
   -9.2116    1.1057   -8.1363 H   0  0  0  0  0  0  0  0  0  0  0  0
   -9.2920    2.4565  -10.4837 H   0  0  0  0  0  0  0  0  0  0  0  0
   -8.8868    2.9792   -6.1934 H   0  0  0  0  0  0  0  0  0  0  0  0
  -10.6094    6.4940  -11.1910 H   0  0  0  0  0  0  0  0  0  0  0  0
  -11.0400    4.9016  -10.6167 H   0  0  0  0  0  0  0  0  0  0  0  0
   -7.3532    4.4260  -11.1398 H   0  0  0  0  0  0  0  0  0  0  0  0
   -6.8544    5.9073  -10.3454 H   0  0  0  0  0  0  0  0  0  0  0  0
   -8.0458    5.4248   -6.3421 H   0  0  0  0  0  0  0  0  0  0  0  0
   -9.7358    5.8549   -6.7156 H   0  0  0  0  0  0  0  0  0  0  0  0
   -9.7007    3.8126  -12.3387 H   0  0  0  0  0  0  0  0  0  0  0  0
  -10.7932    4.9442  -13.1157 H   0  0  0  0  0  0  0  0  0  0  0  0
   -8.1057    7.2339  -12.1105 H   0  0  0  0  0  0  0  0  0  0  0  0
   -6.8242    6.2187  -12.7541 H   0  0  0  0  0  0  0  0  0  0  0  0
   -8.3138    7.6715   -7.5899 H   0  0  0  0  0  0  0  0  0  0  0  0
   -7.2380    6.5088   -8.3491 H   0  0  0  0  0  0  0  0  0  0  0  0
   -7.1373    5.4371  -16.5792 H   0  0  0  0  0  0  0  0  0  0  0  0
   -7.0411    3.6645  -16.4770 H   0  0  0  0  0  0  0  0  0  0  0  0
   -7.4640    4.4674  -18.0049 H   0  0  0  0  0  0  0  0  0  0  0  0
  -10.7705    3.1081  -16.7521 H   0  0  0  0  0  0  0  0  0  0  0  0
   -9.2366    2.2855  -16.5291 H   0  0  0  0  0  0  0  0  0  0  0  0
   -9.6166    3.0224  -18.1015 H   0  0  0  0  0  0  0  0  0  0  0  0
  -10.8848    5.6193  -16.8588 H   0  0  0  0  0  0  0  0  0  0  0  0
   -9.4056    6.5997  -16.7681 H   0  0  0  0  0  0  0  0  0  0  0  0
   -9.7787    5.6451  -18.2213 H   0  0  0  0  0  0  0  0  0  0  0  0
  -10.0566    6.9277   -9.0882 H   0  0  0  0  0  0  0  0  0  0  0  0
  1  2  1  0  0  0  0
  1  3  2  0  0  0  0
  2  4  2  0  0  0  0
  3 17  1  0  0  0  0
  4 12  1  0  0  0  0
  4 17  1  0  0  0  0
  5 19  1  0  0  0  0
  5 20  2  0  0  0  0
  5 21  1  0  0  0  0
  6  9  1  0  0  0  0
  6 12  1  0  0  0  0
  7 10  1  0  0  0  0
  7 12  1  0  0  0  0
  8 11  1  0  0  0  0
  8 17  1  0  0  0  0
  9 19  1  0  0  0  0
 10 19  1  0  0  0  0
 11 18  1  0  0  0  0
 12 18  1  0  0  0  0
 13 16  1  0  0  0  0
 14 16  1  0  0  0  0
 15 16  1  0  0  0  0
 16 21  1  0  0  0  0
  1 22  1  0  0  0  0
  2 23  1  0  0  0  0
  3 24  1  0  0  0  0
  6 25  1  0  0  0  0
  6 26  1  0  0  0  0
  7 27  1  0  0  0  0
  7 28  1  0  0  0  0
  8 29  1  0  0  0  0
  8 30  1  0  0  0  0
  9 31  1  0  0  0  0
  9 32  1  0  0  0  0
 10 33  1  0  0  0  0
 10 34  1  0  0  0  0
 11 35  1  0  0  0  0
 11 36  1  0  0  0  0
 13 37  1  0  0  0  0
 13 38  1  0  0  0  0
 13 39  1  0  0  0  0
 14 40  1  0  0  0  0
 14 41  1  0  0  0  0
 14 42  1  0  0  0  0
 15 43  1  0  0  0  0
 15 44  1  0  0  0  0
 15 45  1  0  0  0  0
 18 46  1  0  0  0  0
M  END
> <id>
EN300-209440

> <smiles>
CC(C)(C)OC(=O)N1CCC2(CC1)NCCN3C=CC=C32

> <MDLNUMBER>
MFCD28714538

> <IUPAC Name>
tert-butyl 3',4'-dihydro-2'H-spiro[piperidine-4,1'-pyrrolo[1,2-a]pyrazine]-1-carboxylate

> <CAS>
1392466-65-7

> <Purity>
95

> <URL>
https://www.enaminestore.com/catalog/EN300-209440

> <ROCS_ShapeQuery>
_x0404_0B

> <ROCS_TanimotoCombo>
0.385 

> <ROCS_ShapeTanimoto>
0.310 

> <ROCS_ColorTanimoto>
0.075 

> <ROCS_RefTversky>
0.281 

> <ROCS_RefColorTversky>
0.080 

> <ROCS_RefTverskyCombo>
0.361 

> <ROCS_FitTversky>
1.501 

> <ROCS_FitColorTversky>
0.552 

> <ROCS_FitTverskyCombo>
2.053 

> <ROCS_ColorScore>
-5.771

> <ROCS_Overlap>
1876.351

> <ROCS_Rank>
217                 

$$$$
untitled-dbase-30543_221
  -OEChem-08212314543D

 40 41  0     1  0  0  0  0  0999 V2000
   -8.5212    4.9305  -18.0074 C   0  0  0  0  0  0  0  0  0  0  0  0
   -7.7559    3.7936  -17.8089 C   0  0  0  0  0  0  0  0  0  0  0  0
   -8.9708    5.6543  -16.9065 C   0  0  0  0  0  0  0  0  0  0  0  0
   -7.4646    3.3740  -16.5108 C   0  0  0  0  0  0  0  0  0  0  0  0
   -8.6677    5.2588  -15.5846 C   0  0  0  0  0  0  0  0  0  0  0  0
   -7.9382    4.0690  -15.3741 C   0  0  0  0  0  0  0  0  0  0  0  0
   -8.8296    5.3795  -10.9642 C   0  0  0  0  0  0  0  0  0  0  0  0
   -9.1898    6.1596  -14.4877 C   0  0  0  0  0  0  0  0  0  0  0  0
   -8.3332    6.2416  -13.2292 C   0  0  0  0  0  0  0  0  0  0  0  0
   -8.5980    3.7700  -12.8839 C   0  0  0  0  0  0  0  0  0  0  0  0
   -7.5753    3.5267  -13.9994 C   0  0  1  0  0  0  0  0  0  0  0  0
   -9.4769    5.3898   -8.1754 C   0  0  0  0  0  0  0  0  0  0  0  0
   -8.9871    2.9271   -8.2417 C   0  0  0  0  0  0  0  0  0  0  0  0
   -7.1688    4.5784   -8.7660 C   0  0  0  0  0  0  0  0  0  0  0  0
   -8.6662    4.2879   -8.8561 C   0  0  0  0  0  0  0  0  0  0  0  0
   -8.5690    5.1223  -12.3200 N   0  0  0  0  0  0  0  0  0  0  0  0
   -8.8766    6.5033  -10.4668 O   0  0  0  0  0  0  0  0  0  0  0  0
   -7.4127    2.1020  -14.0765 O   0  0  0  0  0  0  0  0  0  0  0  0
   -9.0384    4.2359  -10.2382 O   0  0  0  0  0  0  0  0  0  0  0  0
   -8.7715    5.2542  -19.0118 H   0  0  0  0  0  0  0  0  0  0  0  0
   -7.3857    3.2273  -18.6581 H   0  0  0  0  0  0  0  0  0  0  0  0
   -9.5716    6.5466  -17.0836 H   0  0  0  0  0  0  0  0  0  0  0  0
   -6.8519    2.4793  -16.3849 H   0  0  0  0  0  0  0  0  0  0  0  0
   -9.2882    7.1889  -14.8833 H   0  0  0  0  0  0  0  0  0  0  0  0
  -10.2285    5.8643  -14.2417 H   0  0  0  0  0  0  0  0  0  0  0  0
   -7.2586    6.2815  -13.4648 H   0  0  0  0  0  0  0  0  0  0  0  0
   -8.5720    7.1777  -12.7034 H   0  0  0  0  0  0  0  0  0  0  0  0
   -9.6045    3.5783  -13.2881 H   0  0  0  0  0  0  0  0  0  0  0  0
   -8.4643    3.0506  -12.0579 H   0  0  0  0  0  0  0  0  0  0  0  0
   -6.6338    3.9199  -13.6685 H   0  0  0  0  0  0  0  0  0  0  0  0
   -9.2495    6.3681   -8.6135 H   0  0  0  0  0  0  0  0  0  0  0  0
  -10.5536    5.2112   -8.2632 H   0  0  0  0  0  0  0  0  0  0  0  0
   -9.2236    5.4611   -7.1114 H   0  0  0  0  0  0  0  0  0  0  0  0
   -8.4076    2.1334   -8.7271 H   0  0  0  0  0  0  0  0  0  0  0  0
  -10.0429    2.6719   -8.3881 H   0  0  0  0  0  0  0  0  0  0  0  0
   -8.7711    2.9072   -7.1686 H   0  0  0  0  0  0  0  0  0  0  0  0
   -6.5871    3.7882   -9.2542 H   0  0  0  0  0  0  0  0  0  0  0  0
   -6.9146    5.5345   -9.2349 H   0  0  0  0  0  0  0  0  0  0  0  0
   -6.8391    4.6045   -7.7211 H   0  0  0  0  0  0  0  0  0  0  0  0
   -7.1834    1.8014  -13.1835 H   0  0  0  0  0  0  0  0  0  0  0  0
  1  2  2  0  0  0  0
  1  3  1  0  0  0  0
  2  4  1  0  0  0  0
  3  5  2  0  0  0  0
  4  6  2  0  0  0  0
  5  6  1  0  0  0  0
  5  8  1  0  0  0  0
  6 11  1  0  0  0  0
  7 16  1  0  0  0  0
  7 17  2  0  0  0  0
  7 19  1  0  0  0  0
  8  9  1  0  0  0  0
  9 16  1  0  0  0  0
 10 11  1  0  0  0  0
 10 16  1  0  0  0  0
 11 18  1  0  0  0  0
 12 15  1  0  0  0  0
 13 15  1  0  0  0  0
 14 15  1  0  0  0  0
 15 19  1  0  0  0  0
  1 20  1  0  0  0  0
  2 21  1  0  0  0  0
  3 22  1  0  0  0  0
  4 23  1  0  0  0  0
  8 24  1  0  0  0  0
  8 25  1  0  0  0  0
  9 26  1  0  0  0  0
  9 27  1  0  0  0  0
 10 28  1  0  0  0  0
 10 29  1  0  0  0  0
 11 30  1  0  0  0  0
 12 31  1  0  0  0  0
 12 32  1  0  0  0  0
 12 33  1  0  0  0  0
 13 34  1  0  0  0  0
 13 35  1  0  0  0  0
 13 36  1  0  0  0  0
 14 37  1  0  0  0  0
 14 38  1  0  0  0  0
 14 39  1  0  0  0  0
 18 40  1  0  0  0  0
M  END
> <id>
EN300-26666153

> <smiles>
CC(C)(C)OC(=O)N1CCC=2C=CC=CC2C(O)C1

> <IUPAC Name>
tert-butyl 1-hydroxy-2,3,4,5-tetrahydro-1H-3-benzazepine-3-carboxylate

> <CAS>
2413869-51-7

> <URL>
https://www.enaminestore.com/catalog/EN300-26666153

> <ROCS_ShapeQuery>
_x0404_0B

> <ROCS_TanimotoCombo>
0.385 

> <ROCS_ShapeTanimoto>
0.297 

> <ROCS_ColorTanimoto>
0.088 

> <ROCS_RefTversky>
0.268 

> <ROCS_RefColorTversky>
0.092 

> <ROCS_RefTverskyCombo>
0.360 

> <ROCS_FitTversky>
1.560 

> <ROCS_FitColorTversky>
0.700 

> <ROCS_FitTverskyCombo>
2.259 

> <ROCS_ColorScore>
-6.632

> <ROCS_Overlap>
1788.954

> <ROCS_Rank>
218                 

$$$$
untitled-dbase-14720_105
  -OEChem-08212314543D

 48 50  0     1  0  0  0  0  0999 V2000
   -8.7651    2.8794   -9.4908 C   0  0  0  0  0  0  0  0  0  0  0  0
   -9.0260    2.0441   -8.4260 C   0  0  0  0  0  0  0  0  0  0  0  0
   -8.9359    4.2646   -9.1617 C   0  0  0  0  0  0  0  0  0  0  0  0
   -9.3371    4.3970   -7.8442 C   0  0  0  0  0  0  0  0  0  0  0  0
   -8.1374    5.7007  -14.4649 C   0  0  0  0  0  0  0  0  0  0  0  0
   -9.5965    5.7034   -7.1731 C   0  0  0  0  0  0  0  0  0  0  0  0
   -7.3753    5.4092  -10.8182 C   0  0  0  0  0  0  0  0  0  0  0  0
   -9.9068    5.5190  -11.1323 C   0  0  0  0  0  0  0  0  0  0  0  0
   -9.7647    6.7944   -8.2357 C   0  0  0  0  0  0  0  0  0  0  0  0
   -7.4608    4.8636  -12.2409 C   0  0  0  0  0  0  0  0  0  0  0  0
   -9.5611    6.2403  -12.4457 C   0  0  1  0  0  0  0  0  0  0  0  0
   -8.7524    5.4675  -10.0918 C   0  0  1  0  0  0  0  0  0  0  0  0
   -9.3922    7.7515  -12.2682 C   0  0  0  0  0  0  0  0  0  0  0  0
   -6.3201    5.7305  -16.6753 C   0  0  0  0  0  0  0  0  0  0  0  0
   -6.5602    3.2302  -16.6679 C   0  0  0  0  0  0  0  0  0  0  0  0
   -8.5645    4.6777  -17.1098 C   0  0  0  0  0  0  0  0  0  0  0  0
   -7.2443    4.5579  -16.3499 C   0  0  0  0  0  0  0  0  0  0  0  0
   -8.7191    6.7110   -9.2653 N   0  0  0  0  0  0  0  0  0  0  0  0
   -8.3722    5.6400  -13.0840 N   0  0  0  0  0  0  0  0  0  0  0  0
   -8.4412    6.6562  -15.1770 O   0  0  0  0  0  0  0  0  0  0  0  0
   -7.5235    4.5739  -14.9454 O   0  0  0  0  0  0  0  0  0  0  0  0
   -9.4824    2.9139   -7.0271 S   0  0  0  0  0  0  0  0  0  0  0  0
   -8.4681    2.5091  -10.4642 H   0  0  0  0  0  0  0  0  0  0  0  0
   -8.9734    0.9646   -8.4072 H   0  0  0  0  0  0  0  0  0  0  0  0
  -10.4951    5.6577   -6.5478 H   0  0  0  0  0  0  0  0  0  0  0  0
   -8.7465    5.9468   -6.5235 H   0  0  0  0  0  0  0  0  0  0  0  0
   -6.6759    4.7768  -10.2521 H   0  0  0  0  0  0  0  0  0  0  0  0
   -6.9180    6.4095  -10.8395 H   0  0  0  0  0  0  0  0  0  0  0  0
  -10.8129    5.9479  -10.6970 H   0  0  0  0  0  0  0  0  0  0  0  0
  -10.1744    4.4879  -11.3932 H   0  0  0  0  0  0  0  0  0  0  0  0
  -10.7605    6.7417   -8.6908 H   0  0  0  0  0  0  0  0  0  0  0  0
   -9.7015    7.7729   -7.7457 H   0  0  0  0  0  0  0  0  0  0  0  0
   -6.4801    4.8605  -12.7319 H   0  0  0  0  0  0  0  0  0  0  0  0
   -7.7864    3.8168  -12.2023 H   0  0  0  0  0  0  0  0  0  0  0  0
  -10.4082    6.1092  -13.0822 H   0  0  0  0  0  0  0  0  0  0  0  0
   -8.5384    7.9519  -11.6244 H   0  0  0  0  0  0  0  0  0  0  0  0
  -10.2886    8.1700  -11.8155 H   0  0  0  0  0  0  0  0  0  0  0  0
   -9.2281    8.2184  -13.2371 H   0  0  0  0  0  0  0  0  0  0  0  0
   -6.8075    6.6854  -16.4484 H   0  0  0  0  0  0  0  0  0  0  0  0
   -5.3839    5.6750  -16.1102 H   0  0  0  0  0  0  0  0  0  0  0  0
   -6.0785    5.7530  -17.7441 H   0  0  0  0  0  0  0  0  0  0  0  0
   -7.2197    2.3861  -16.4360 H   0  0  0  0  0  0  0  0  0  0  0  0
   -5.6616    3.0973  -16.0546 H   0  0  0  0  0  0  0  0  0  0  0  0
   -6.2728    3.1661  -17.7223 H   0  0  0  0  0  0  0  0  0  0  0  0
   -9.2276    3.8368  -16.8766 H   0  0  0  0  0  0  0  0  0  0  0  0
   -9.0874    5.6081  -16.8657 H   0  0  0  0  0  0  0  0  0  0  0  0
   -8.3953    4.6470  -18.1922 H   0  0  0  0  0  0  0  0  0  0  0  0
   -8.7422    7.5398   -9.8497 H   0  0  0  0  0  0  0  0  0  0  0  0
  1  2  2  0  0  0  0
  1  3  1  0  0  0  0
  2 22  1  0  0  0  0
  3  4  2  0  0  0  0
  3 12  1  0  0  0  0
  4  6  1  0  0  0  0
  4 22  1  0  0  0  0
  5 19  1  0  0  0  0
  5 20  2  0  0  0  0
  5 21  1  0  0  0  0
  6  9  1  0  0  0  0
  7 10  1  0  0  0  0
  7 12  1  0  0  0  0
  8 11  1  0  0  0  0
  8 12  1  0  0  0  0
  9 18  1  0  0  0  0
 10 19  1  0  0  0  0
 11 13  1  0  0  0  0
 11 19  1  0  0  0  0
 12 18  1  0  0  0  0
 14 17  1  0  0  0  0
 15 17  1  0  0  0  0
 16 17  1  0  0  0  0
 17 21  1  0  0  0  0
  1 23  1  0  0  0  0
  2 24  1  0  0  0  0
  6 25  1  0  0  0  0
  6 26  1  0  0  0  0
  7 27  1  0  0  0  0
  7 28  1  0  0  0  0
  8 29  1  0  0  0  0
  8 30  1  0  0  0  0
  9 31  1  0  0  0  0
  9 32  1  0  0  0  0
 10 33  1  0  0  0  0
 10 34  1  0  0  0  0
 11 35  1  0  0  0  0
 13 36  1  0  0  0  0
 13 37  1  0  0  0  0
 13 38  1  0  0  0  0
 14 39  1  0  0  0  0
 14 40  1  0  0  0  0
 14 41  1  0  0  0  0
 15 42  1  0  0  0  0
 15 43  1  0  0  0  0
 15 44  1  0  0  0  0
 16 45  1  0  0  0  0
 16 46  1  0  0  0  0
 16 47  1  0  0  0  0
 18 48  1  0  0  0  0
M  END
> <id>
EN300-1076176

> <smiles>
CC1CC2(CCN1C(=O)OC(C)(C)C)NCCC=3SC=CC32

> <IUPAC Name>
tert-butyl 6-methyl-6',7'-dihydro-5'H-spiro[piperidine-4,4'-thieno[3,2-c]pyridine]-1-carboxylate

> <CAS>
2023155-55-5

> <URL>
https://www.enaminestore.com/catalog/EN300-1076176

> <ROCS_ShapeQuery>
_x0404_0B

> <ROCS_TanimotoCombo>
0.385 

> <ROCS_ShapeTanimoto>
0.312 

> <ROCS_ColorTanimoto>
0.074 

> <ROCS_RefTversky>
0.283 

> <ROCS_RefColorTversky>
0.079 

> <ROCS_RefTverskyCombo>
0.361 

> <ROCS_FitTversky>
1.490 

> <ROCS_FitColorTversky>
0.543 

> <ROCS_FitTverskyCombo>
2.033 

> <ROCS_ColorScore>
-5.673

> <ROCS_Overlap>
1886.198

> <ROCS_Rank>
219                 

$$$$
untitled-dbase-41807_217
  -OEChem-08212314543D

 41 42  0     0  0  0  0  0  0999 V2000
   -9.0241    5.4312   -7.8017 C   0  0  0  0  0  0  0  0  0  0  0  0
   -9.4864    3.2168   -8.3804 C   0  0  0  0  0  0  0  0  0  0  0  0
   -8.5865    5.7524  -14.5368 C   0  0  0  0  0  0  0  0  0  0  0  0
   -8.2251    5.4914   -9.0768 C   0  0  0  0  0  0  0  0  0  0  0  0
   -9.9293    3.7624   -9.7125 C   0  0  0  0  0  0  0  0  0  0  0  0
   -7.8966    4.1749  -11.1806 C   0  0  0  0  0  0  0  0  0  0  0  0
   -9.7888    5.8848  -11.0396 C   0  0  0  0  0  0  0  0  0  0  0  0
   -8.3306    4.1190  -12.6417 C   0  0  0  0  0  0  0  0  0  0  0  0
   -9.0170    6.4861  -12.2089 C   0  0  0  0  0  0  0  0  0  0  0  0
   -8.9607    4.8285  -10.2558 C   0  0  0  0  0  0  0  0  0  0  0  0
   -7.4758    5.3387  -17.1404 C   0  0  0  0  0  0  0  0  0  0  0  0
   -9.2407    3.5720  -17.4108 C   0  0  0  0  0  0  0  0  0  0  0  0
   -9.9117    5.9682  -17.0698 C   0  0  0  0  0  0  0  0  0  0  0  0
   -8.8796    4.8926  -16.7341 C   0  0  0  0  0  0  0  0  0  0  0  0
   -8.6322    5.4533  -13.1717 N   0  0  0  0  0  0  0  0  0  0  0  0
   -9.2541    6.4156   -7.1085 O   0  0  0  0  0  0  0  0  0  0  0  0
   -9.3813    2.0177   -8.1494 O   0  0  0  0  0  0  0  0  0  0  0  0
   -8.3078    6.8589  -14.9948 O   0  0  0  0  0  0  0  0  0  0  0  0
   -9.3487    4.1667   -7.4141 O   0  0  0  0  0  0  0  0  0  0  0  0
   -8.8957    4.6709  -15.3194 O   0  0  0  0  0  0  0  0  0  0  0  0
   -8.0284    6.5411   -9.3062 H   0  0  0  0  0  0  0  0  0  0  0  0
   -7.2689    4.9991   -8.8850 H   0  0  0  0  0  0  0  0  0  0  0  0
   -9.9977    2.9147  -10.3989 H   0  0  0  0  0  0  0  0  0  0  0  0
  -10.9313    4.1736   -9.5878 H   0  0  0  0  0  0  0  0  0  0  0  0
   -7.6638    3.1611  -10.8345 H   0  0  0  0  0  0  0  0  0  0  0  0
   -6.9614    4.7458  -11.1170 H   0  0  0  0  0  0  0  0  0  0  0  0
  -10.0713    6.6959  -10.3592 H   0  0  0  0  0  0  0  0  0  0  0  0
  -10.7216    5.4562  -11.4146 H   0  0  0  0  0  0  0  0  0  0  0  0
   -7.5466    3.6404  -13.2398 H   0  0  0  0  0  0  0  0  0  0  0  0
   -9.2356    3.5112  -12.7621 H   0  0  0  0  0  0  0  0  0  0  0  0
   -9.6255    7.2201  -12.7467 H   0  0  0  0  0  0  0  0  0  0  0  0
   -8.1417    7.0169  -11.8267 H   0  0  0  0  0  0  0  0  0  0  0  0
   -7.2128    6.2863  -16.6567 H   0  0  0  0  0  0  0  0  0  0  0  0
   -6.7218    4.5911  -16.8734 H   0  0  0  0  0  0  0  0  0  0  0  0
   -7.4194    5.5168  -18.2204 H   0  0  0  0  0  0  0  0  0  0  0  0
  -10.2471    3.2481  -17.1222 H   0  0  0  0  0  0  0  0  0  0  0  0
   -8.5579    2.7737  -17.0981 H   0  0  0  0  0  0  0  0  0  0  0  0
   -9.2023    3.6534  -18.5019 H   0  0  0  0  0  0  0  0  0  0  0  0
  -10.9187    5.6484  -16.7785 H   0  0  0  0  0  0  0  0  0  0  0  0
   -9.6890    6.9129  -16.5632 H   0  0  0  0  0  0  0  0  0  0  0  0
   -9.9459    6.1518  -18.1498 H   0  0  0  0  0  0  0  0  0  0  0  0
  1  4  1  0  0  0  0
  1 16  2  0  0  0  0
  1 19  1  0  0  0  0
  2  5  1  0  0  0  0
  2 17  2  0  0  0  0
  2 19  1  0  0  0  0
  3 15  1  0  0  0  0
  3 18  2  0  0  0  0
  3 20  1  0  0  0  0
  4 10  1  0  0  0  0
  5 10  1  0  0  0  0
  6  8  1  0  0  0  0
  6 10  1  0  0  0  0
  7  9  1  0  0  0  0
  7 10  1  0  0  0  0
  8 15  1  0  0  0  0
  9 15  1  0  0  0  0
 11 14  1  0  0  0  0
 12 14  1  0  0  0  0
 13 14  1  0  0  0  0
 14 20  1  0  0  0  0
  4 21  1  0  0  0  0
  4 22  1  0  0  0  0
  5 23  1  0  0  0  0
  5 24  1  0  0  0  0
  6 25  1  0  0  0  0
  6 26  1  0  0  0  0
  7 27  1  0  0  0  0
  7 28  1  0  0  0  0
  8 29  1  0  0  0  0
  8 30  1  0  0  0  0
  9 31  1  0  0  0  0
  9 32  1  0  0  0  0
 11 33  1  0  0  0  0
 11 34  1  0  0  0  0
 11 35  1  0  0  0  0
 12 36  1  0  0  0  0
 12 37  1  0  0  0  0
 12 38  1  0  0  0  0
 13 39  1  0  0  0  0
 13 40  1  0  0  0  0
 13 41  1  0  0  0  0
M  END
> <id>
EN300-12446595

> <smiles>
CC(C)(C)OC(=O)N1CCC2(CC1)CC(=O)OC(=O)C2

> <MDLNUMBER>
MFCD13184456

> <IUPAC Name>
tert-butyl 2,4-dioxo-3-oxa-9-azaspiro[5.5]undecane-9-carboxylate

> <CAS>
1140029-11-3

> <Purity>
95

> <URL>
https://www.enaminestore.com/catalog/EN300-12446595

> <ROCS_ShapeQuery>
_x0404_0B

> <ROCS_TanimotoCombo>
0.385 

> <ROCS_ShapeTanimoto>
0.319 

> <ROCS_ColorTanimoto>
0.067 

> <ROCS_RefTversky>
0.285 

> <ROCS_RefColorTversky>
0.071 

> <ROCS_RefTverskyCombo>
0.355 

> <ROCS_FitTversky>
1.594 

> <ROCS_FitColorTversky>
0.538 

> <ROCS_FitTverskyCombo>
2.132 

> <ROCS_ColorScore>
-5.099

> <ROCS_Overlap>
1899.449

> <ROCS_Rank>
220                 

$$$$
untitled-dbase-14875_21
  -OEChem-08212314543D

 42 43  0     0  0  0  0  0  0999 V2000
   -9.1980    3.1262   -9.0470 C   0  0  0  0  0  0  0  0  0  0  0  0
   -8.8312    4.2723   -9.8000 C   0  0  0  0  0  0  0  0  0  0  0  0
   -8.9142    5.6044   -9.4553 C   0  0  0  0  0  0  0  0  0  0  0  0
   -8.1058    5.5862  -11.4269 C   0  0  0  0  0  0  0  0  0  0  0  0
   -8.3874    5.5503  -15.0492 C   0  0  0  0  0  0  0  0  0  0  0  0
   -7.5441    5.8635  -12.7656 C   0  0  0  0  0  0  0  0  0  0  0  0
   -8.0118    3.2028  -11.9500 C   0  0  0  0  0  0  0  0  0  0  0  0
   -8.4512    3.5335  -13.4127 C   0  0  0  0  0  0  0  0  0  0  0  0
   -9.9682    3.2568  -13.5131 C   0  0  0  0  0  0  0  0  0  0  0  0
   -7.6781    2.5638  -14.3284 C   0  0  0  0  0  0  0  0  0  0  0  0
   -7.4849    6.2104  -17.6872 C   0  0  0  0  0  0  0  0  0  0  0  0
   -8.4299    3.9834  -18.3629 C   0  0  0  0  0  0  0  0  0  0  0  0
   -9.9500    5.7616  -17.4488 C   0  0  0  0  0  0  0  0  0  0  0  0
   -8.5489    5.1547  -17.3902 C   0  0  0  0  0  0  0  0  0  0  0  0
   -9.4978    2.1892   -8.4314 N   0  0  0  0  0  0  0  0  0  0  0  0
   -8.4608    6.4169  -10.4708 N   0  0  0  0  0  0  0  0  0  0  0  0
   -8.3119    4.2912  -11.0516 N   0  0  0  0  0  0  0  0  0  0  0  0
   -8.1623    4.9826  -13.7772 N   0  0  0  0  0  0  0  0  0  0  0  0
   -9.3721    6.1016   -8.2844 N   0  0  0  0  0  0  0  0  0  0  0  0
   -8.6174    6.7444  -15.2397 O   0  0  0  0  0  0  0  0  0  0  0  0
   -8.3280    4.6437  -16.0703 O   0  0  0  0  0  0  0  0  0  0  0  0
   -7.7565    6.8960  -13.0622 H   0  0  0  0  0  0  0  0  0  0  0  0
   -6.4592    5.7340  -12.7388 H   0  0  0  0  0  0  0  0  0  0  0  0
   -8.5578    2.3332  -11.5634 H   0  0  0  0  0  0  0  0  0  0  0  0
   -6.9418    2.9770  -11.8970 H   0  0  0  0  0  0  0  0  0  0  0  0
  -10.3028    3.4780  -14.5200 H   0  0  0  0  0  0  0  0  0  0  0  0
  -10.4912    3.8884  -12.8044 H   0  0  0  0  0  0  0  0  0  0  0  0
  -10.1540    2.2138  -13.2841 H   0  0  0  0  0  0  0  0  0  0  0  0
   -7.9528    2.7579  -15.3577 H   0  0  0  0  0  0  0  0  0  0  0  0
   -7.9369    1.5467  -14.0615 H   0  0  0  0  0  0  0  0  0  0  0  0
   -6.6156    2.7236  -14.1922 H   0  0  0  0  0  0  0  0  0  0  0  0
   -7.5670    7.0529  -16.9911 H   0  0  0  0  0  0  0  0  0  0  0  0
   -6.4741    5.7961  -17.6141 H   0  0  0  0  0  0  0  0  0  0  0  0
   -7.6166    6.6263  -18.6927 H   0  0  0  0  0  0  0  0  0  0  0  0
   -9.1914    3.2234  -18.1535 H   0  0  0  0  0  0  0  0  0  0  0  0
   -7.4594    3.4852  -18.2571 H   0  0  0  0  0  0  0  0  0  0  0  0
   -8.5412    4.3085  -19.4023 H   0  0  0  0  0  0  0  0  0  0  0  0
  -10.7133    5.0045  -17.2358 H   0  0  0  0  0  0  0  0  0  0  0  0
  -10.0653    6.5801  -16.7309 H   0  0  0  0  0  0  0  0  0  0  0  0
  -10.1667    6.1454  -18.4523 H   0  0  0  0  0  0  0  0  0  0  0  0
   -9.3611    7.1103   -8.0776 H   0  0  0  0  0  0  0  0  0  0  0  0
   -9.6649    5.4906   -7.5089 H   0  0  0  0  0  0  0  0  0  0  0  0
  1  2  1  0  0  0  0
  1 15  3  0  0  0  0
  2  3  2  0  0  0  0
  2 17  1  0  0  0  0
  3 16  1  0  0  0  0
  3 19  1  0  0  0  0
  4  6  1  0  0  0  0
  4 16  2  0  0  0  0
  4 17  1  0  0  0  0
  5 18  1  0  0  0  0
  5 20  2  0  0  0  0
  5 21  1  0  0  0  0
  6 18  1  0  0  0  0
  7  8  1  0  0  0  0
  7 17  1  0  0  0  0
  8  9  1  0  0  0  0
  8 10  1  0  0  0  0
  8 18  1  0  0  0  0
 11 14  1  0  0  0  0
 12 14  1  0  0  0  0
 13 14  1  0  0  0  0
 14 21  1  0  0  0  0
  6 22  1  0  0  0  0
  6 23  1  0  0  0  0
  7 24  1  0  0  0  0
  7 25  1  0  0  0  0
  9 26  1  0  0  0  0
  9 27  1  0  0  0  0
  9 28  1  0  0  0  0
 10 29  1  0  0  0  0
 10 30  1  0  0  0  0
 10 31  1  0  0  0  0
 11 32  1  0  0  0  0
 11 33  1  0  0  0  0
 11 34  1  0  0  0  0
 12 35  1  0  0  0  0
 12 36  1  0  0  0  0
 12 37  1  0  0  0  0
 13 38  1  0  0  0  0
 13 39  1  0  0  0  0
 13 40  1  0  0  0  0
 19 41  1  0  0  0  0
 19 42  1  0  0  0  0
M  END
> <id>
EN300-1129423

> <smiles>
CC(C)(C)OC(=O)N1CC2=NC(N)=C(C#N)N2CC1(C)C

> <IUPAC Name>
tert-butyl 2-amino-3-cyano-6,6-dimethyl-5H,6H,7H,8H-imidazo[1,2-a]pyrazine-7-carboxylate

> <CAS>
2138031-91-9

> <URL>
https://www.enaminestore.com/catalog/EN300-1129423

> <ROCS_ShapeQuery>
_x0404_0B

> <ROCS_TanimotoCombo>
0.385 

> <ROCS_ShapeTanimoto>
0.322 

> <ROCS_ColorTanimoto>
0.063 

> <ROCS_RefTversky>
0.289 

> <ROCS_RefColorTversky>
0.070 

> <ROCS_RefTverskyCombo>
0.360 

> <ROCS_FitTversky>
1.544 

> <ROCS_FitColorTversky>
0.382 

> <ROCS_FitTverskyCombo>
1.926 

> <ROCS_ColorScore>
-5.080

> <ROCS_Overlap>
1930.517

> <ROCS_Rank>
221                 

$$$$
untitled-dbase-13382_37
  -OEChem-08212314543D

 47 48  0     0  0  0  0  0  0999 V2000
   -7.9902    4.3185  -12.7198 C   0  0  0  0  0  0  0  0  0  0  0  0
   -8.2953    5.5809  -13.2783 C   0  0  0  0  0  0  0  0  0  0  0  0
   -7.7758    3.5082  -13.8078 C   0  0  0  0  0  0  0  0  0  0  0  0
   -9.1952    5.0523   -9.3204 C   0  0  0  0  0  0  0  0  0  0  0  0
   -7.9301    4.0423  -11.2649 C   0  0  0  0  0  0  0  0  0  0  0  0
   -8.6141    6.7717  -12.4548 C   0  0  0  0  0  0  0  0  0  0  0  0
   -8.1428    6.5490  -11.0079 C   0  0  0  0  0  0  0  0  0  0  0  0
   -8.8638    2.7884  -16.6007 C   0  0  0  0  0  0  0  0  0  0  0  0
   -6.4156    3.4094  -16.5777 C   0  0  0  0  0  0  0  0  0  0  0  0
   -8.1295    5.0584  -17.2936 C   0  0  0  0  0  0  0  0  0  0  0  0
   -9.7797    3.7230   -6.8539 C   0  0  0  0  0  0  0  0  0  0  0  0
  -10.3857    1.7445   -8.2778 C   0  0  0  0  0  0  0  0  0  0  0  0
   -8.0365    2.6325   -8.3055 C   0  0  0  0  0  0  0  0  0  0  0  0
   -7.8486    3.9112  -16.2917 C   0  0  0  0  0  0  0  0  0  0  0  0
   -9.5149    2.9944   -8.1707 C   0  0  0  0  0  0  0  0  0  0  0  0
   -8.2831    5.5774  -14.6125 N   0  0  0  0  0  0  0  0  0  0  0  0
   -7.9613    4.3025  -14.9046 N   0  0  0  0  0  0  0  0  0  0  0  0
   -8.4815    5.1969  -10.5165 N   0  0  0  0  0  0  0  0  0  0  0  0
   -7.4476    2.2045  -13.9216 N   0  0  0  0  0  0  0  0  0  0  0  0
   -9.2170    5.8891   -8.4198 O   0  0  0  0  0  0  0  0  0  0  0  0
   -9.8722    3.8631   -9.2520 O   0  0  0  0  0  0  0  0  0  0  0  0
   -8.4809    3.1283  -11.0254 H   0  0  0  0  0  0  0  0  0  0  0  0
   -6.8911    3.9164  -10.9414 H   0  0  0  0  0  0  0  0  0  0  0  0
   -8.1345    7.6675  -12.8642 H   0  0  0  0  0  0  0  0  0  0  0  0
   -9.6979    6.9375  -12.4660 H   0  0  0  0  0  0  0  0  0  0  0  0
   -7.0506    6.6377  -10.9466 H   0  0  0  0  0  0  0  0  0  0  0  0
   -8.5680    7.3200  -10.3574 H   0  0  0  0  0  0  0  0  0  0  0  0
   -9.8905    3.1191  -16.4057 H   0  0  0  0  0  0  0  0  0  0  0  0
   -8.8245    2.4698  -17.6478 H   0  0  0  0  0  0  0  0  0  0  0  0
   -8.6726    1.9048  -15.9805 H   0  0  0  0  0  0  0  0  0  0  0  0
   -5.6592    4.1742  -16.3724 H   0  0  0  0  0  0  0  0  0  0  0  0
   -6.1689    2.5415  -15.9553 H   0  0  0  0  0  0  0  0  0  0  0  0
   -6.3061    3.1115  -17.6270 H   0  0  0  0  0  0  0  0  0  0  0  0
   -7.4418    5.8978  -17.1339 H   0  0  0  0  0  0  0  0  0  0  0  0
   -7.9975    4.7303  -18.3311 H   0  0  0  0  0  0  0  0  0  0  0  0
   -9.1465    5.4520  -17.1821 H   0  0  0  0  0  0  0  0  0  0  0  0
   -9.1565    4.6208   -6.7732 H   0  0  0  0  0  0  0  0  0  0  0  0
  -10.8297    4.0189   -6.7607 H   0  0  0  0  0  0  0  0  0  0  0  0
   -9.5213    3.0895   -5.9977 H   0  0  0  0  0  0  0  0  0  0  0  0
  -10.1991    1.2186   -9.2211 H   0  0  0  0  0  0  0  0  0  0  0  0
  -11.4494    2.0086   -8.2769 H   0  0  0  0  0  0  0  0  0  0  0  0
  -10.2001    1.0507   -7.4514 H   0  0  0  0  0  0  0  0  0  0  0  0
   -7.8464    2.1099   -9.2499 H   0  0  0  0  0  0  0  0  0  0  0  0
   -7.3987    3.5215   -8.2679 H   0  0  0  0  0  0  0  0  0  0  0  0
   -7.7283    1.9488   -7.5062 H   0  0  0  0  0  0  0  0  0  0  0  0
   -7.2583    1.6122  -13.0990 H   0  0  0  0  0  0  0  0  0  0  0  0
   -7.2774    1.7592  -14.8359 H   0  0  0  0  0  0  0  0  0  0  0  0
  1  2  1  0  0  0  0
  1  3  2  0  0  0  0
  1  5  1  0  0  0  0
  2  6  1  0  0  0  0
  2 16  2  0  0  0  0
  3 17  1  0  0  0  0
  3 19  1  0  0  0  0
  4 18  1  0  0  0  0
  4 20  2  0  0  0  0
  4 21  1  0  0  0  0
  5 18  1  0  0  0  0
  6  7  1  0  0  0  0
  7 18  1  0  0  0  0
  8 14  1  0  0  0  0
  9 14  1  0  0  0  0
 10 14  1  0  0  0  0
 11 15  1  0  0  0  0
 12 15  1  0  0  0  0
 13 15  1  0  0  0  0
 14 17  1  0  0  0  0
 15 21  1  0  0  0  0
 16 17  1  0  0  0  0
  5 22  1  0  0  0  0
  5 23  1  0  0  0  0
  6 24  1  0  0  0  0
  6 25  1  0  0  0  0
  7 26  1  0  0  0  0
  7 27  1  0  0  0  0
  8 28  1  0  0  0  0
  8 29  1  0  0  0  0
  8 30  1  0  0  0  0
  9 31  1  0  0  0  0
  9 32  1  0  0  0  0
  9 33  1  0  0  0  0
 10 34  1  0  0  0  0
 10 35  1  0  0  0  0
 10 36  1  0  0  0  0
 11 37  1  0  0  0  0
 11 38  1  0  0  0  0
 11 39  1  0  0  0  0
 12 40  1  0  0  0  0
 12 41  1  0  0  0  0
 12 42  1  0  0  0  0
 13 43  1  0  0  0  0
 13 44  1  0  0  0  0
 13 45  1  0  0  0  0
 19 46  1  0  0  0  0
 19 47  1  0  0  0  0
M  END
> <id>
EN300-784193

> <smiles>
CC(C)(C)OC(=O)N1CCC2=NN(C(N)=C2C1)C(C)(C)C

> <MDLNUMBER>
MFCD31461623

> <IUPAC Name>
tert-butyl 3-amino-2-tert-butyl-2H,4H,5H,6H,7H-pyrazolo[4,3-c]pyridine-5-carboxylate

> <CAS>
1781388-08-6

> <URL>
https://www.enaminestore.com/catalog/EN300-784193

> <ROCS_ShapeQuery>
_x0404_0B

> <ROCS_TanimotoCombo>
0.385 

> <ROCS_ShapeTanimoto>
0.281 

> <ROCS_ColorTanimoto>
0.104 

> <ROCS_RefTversky>
0.260 

> <ROCS_RefColorTversky>
0.110 

> <ROCS_RefTverskyCombo>
0.369 

> <ROCS_FitTversky>
1.396 

> <ROCS_FitColorTversky>
0.694 

> <ROCS_FitTverskyCombo>
2.089 

> <ROCS_ColorScore>
-7.908

> <ROCS_Overlap>
1734.446

> <ROCS_Rank>
222                 

$$$$
untitled-dbase-37382_258
  -OEChem-08212314543D

 43 44  0     0  0  0  0  0  0999 V2000
   -9.0191    3.8890   -9.1598 C   0  0  0  0  0  0  0  0  0  0  0  0
   -8.4024    5.6620  -14.4854 C   0  0  0  0  0  0  0  0  0  0  0  0
   -8.8110    2.7236   -6.7004 C   0  0  0  0  0  0  0  0  0  0  0  0
   -9.4821    4.0855   -6.8559 C   0  0  0  0  0  0  0  0  0  0  0  0
   -9.2347    1.8095   -7.8409 C   0  0  0  0  0  0  0  0  0  0  0  0
   -8.5661    3.4184  -11.5391 C   0  0  0  0  0  0  0  0  0  0  0  0
   -8.7113    5.7812  -10.7166 C   0  0  0  0  0  0  0  0  0  0  0  0
   -7.7935    4.0828  -12.6738 C   0  0  0  0  0  0  0  0  0  0  0  0
   -9.1935    6.0721  -12.1347 C   0  0  0  0  0  0  0  0  0  0  0  0
   -6.9884    5.7370  -16.9710 C   0  0  0  0  0  0  0  0  0  0  0  0
   -8.0895    3.5314  -17.4527 C   0  0  0  0  0  0  0  0  0  0  0  0
   -9.4955    5.5881  -17.1346 C   0  0  0  0  0  0  0  0  0  0  0  0
   -8.2164    4.8638  -16.7173 C   0  0  0  0  0  0  0  0  0  0  0  0
   -9.2084    4.7042   -8.1632 N   0  0  0  0  0  0  0  0  0  0  0  0
   -9.0186    2.5098   -9.0855 N   0  0  0  0  0  0  0  0  0  0  0  0
   -8.7778    4.3469  -10.4240 N   0  0  0  0  0  0  0  0  0  0  0  0
   -8.4619    5.2958  -13.1384 N   0  0  0  0  0  0  0  0  0  0  0  0
   -8.4391    6.8222  -14.8904 O   0  0  0  0  0  0  0  0  0  0  0  0
   -8.2907    4.5779  -15.3160 O   0  0  0  0  0  0  0  0  0  0  0  0
   -7.7202    2.8429   -6.7061 H   0  0  0  0  0  0  0  0  0  0  0  0
   -9.0845    2.2772   -5.7383 H   0  0  0  0  0  0  0  0  0  0  0  0
  -10.5668    3.9999   -6.7221 H   0  0  0  0  0  0  0  0  0  0  0  0
   -9.1121    4.7563   -6.0728 H   0  0  0  0  0  0  0  0  0  0  0  0
   -8.6567    0.8803   -7.8248 H   0  0  0  0  0  0  0  0  0  0  0  0
  -10.2949    1.5500   -7.7498 H   0  0  0  0  0  0  0  0  0  0  0  0
   -9.5300    3.0498  -11.9284 H   0  0  0  0  0  0  0  0  0  0  0  0
   -8.0217    2.5318  -11.1725 H   0  0  0  0  0  0  0  0  0  0  0  0
   -7.6744    6.1296  -10.5864 H   0  0  0  0  0  0  0  0  0  0  0  0
   -9.3252    6.3539  -10.0044 H   0  0  0  0  0  0  0  0  0  0  0  0
   -6.7708    4.3079  -12.3442 H   0  0  0  0  0  0  0  0  0  0  0  0
   -7.7116    3.4030  -13.5341 H   0  0  0  0  0  0  0  0  0  0  0  0
  -10.2609    5.8129  -12.2381 H   0  0  0  0  0  0  0  0  0  0  0  0
   -9.1155    7.1517  -12.3325 H   0  0  0  0  0  0  0  0  0  0  0  0
   -7.0756    6.6944  -16.4448 H   0  0  0  0  0  0  0  0  0  0  0  0
   -6.0677    5.2431  -16.6438 H   0  0  0  0  0  0  0  0  0  0  0  0
   -6.8926    5.9773  -18.0360 H   0  0  0  0  0  0  0  0  0  0  0  0
   -8.9684    2.9016  -17.2735 H   0  0  0  0  0  0  0  0  0  0  0  0
   -7.2246    2.9653  -17.0882 H   0  0  0  0  0  0  0  0  0  0  0  0
   -7.9799    3.6747  -18.5325 H   0  0  0  0  0  0  0  0  0  0  0  0
  -10.3765    4.9619  -16.9527 H   0  0  0  0  0  0  0  0  0  0  0  0
   -9.6221    6.5293  -16.5898 H   0  0  0  0  0  0  0  0  0  0  0  0
   -9.4873    5.8059  -18.2087 H   0  0  0  0  0  0  0  0  0  0  0  0
   -8.8991    1.9550   -9.9275 H   0  0  0  0  0  0  0  0  0  0  0  0
  1 14  2  0  0  0  0
  1 15  1  0  0  0  0
  1 16  1  0  0  0  0
  2 17  1  0  0  0  0
  2 18  2  0  0  0  0
  2 19  1  0  0  0  0
  3  4  1  0  0  0  0
  3  5  1  0  0  0  0
  4 14  1  0  0  0  0
  5 15  1  0  0  0  0
  6  8  1  0  0  0  0
  6 16  1  0  0  0  0
  7  9  1  0  0  0  0
  7 16  1  0  0  0  0
  8 17  1  0  0  0  0
  9 17  1  0  0  0  0
 10 13  1  0  0  0  0
 11 13  1  0  0  0  0
 12 13  1  0  0  0  0
 13 19  1  0  0  0  0
  3 20  1  0  0  0  0
  3 21  1  0  0  0  0
  4 22  1  0  0  0  0
  4 23  1  0  0  0  0
  5 24  1  0  0  0  0
  5 25  1  0  0  0  0
  6 26  1  0  0  0  0
  6 27  1  0  0  0  0
  7 28  1  0  0  0  0
  7 29  1  0  0  0  0
  8 30  1  0  0  0  0
  8 31  1  0  0  0  0
  9 32  1  0  0  0  0
  9 33  1  0  0  0  0
 10 34  1  0  0  0  0
 10 35  1  0  0  0  0
 10 36  1  0  0  0  0
 11 37  1  0  0  0  0
 11 38  1  0  0  0  0
 11 39  1  0  0  0  0
 12 40  1  0  0  0  0
 12 41  1  0  0  0  0
 12 42  1  0  0  0  0
 15 43  1  0  0  0  0
M  END
> <id>
EN300-7355821

> <smiles>
Cl.CC(C)(C)OC(=O)N1CCN(CC1)C2=NCCCN2

> <MDLNUMBER>
MFCD31924392

> <IUPAC Name>
tert-butyl 4-(1,4,5,6-tetrahydropyrimidin-2-yl)piperazine-1-carboxylate hydrochloride

> <CAS>
2344677-97-8

> <Purity>
95

> <URL>
https://www.enaminestore.com/catalog/EN300-7355821

> <Saltdate>
Cl

> <ROCS_ShapeQuery>
_x0404_0B

> <ROCS_TanimotoCombo>
0.385 

> <ROCS_ShapeTanimoto>
0.316 

> <ROCS_ColorTanimoto>
0.069 

> <ROCS_RefTversky>
0.281 

> <ROCS_RefColorTversky>
0.073 

> <ROCS_RefTverskyCombo>
0.354 

> <ROCS_FitTversky>
1.637 

> <ROCS_FitColorTversky>
0.558 

> <ROCS_FitTverskyCombo>
2.195 

> <ROCS_ColorScore>
-5.290

> <ROCS_Overlap>
1874.377

> <ROCS_Rank>
223                 

$$$$
untitled-dbase-26902_258
  -OEChem-08212314543D

 43 44  0     0  0  0  0  0  0999 V2000
   -9.0191    3.8890   -9.1598 C   0  0  0  0  0  0  0  0  0  0  0  0
   -8.4024    5.6620  -14.4854 C   0  0  0  0  0  0  0  0  0  0  0  0
   -8.8110    2.7236   -6.7004 C   0  0  0  0  0  0  0  0  0  0  0  0
   -9.4821    4.0855   -6.8559 C   0  0  0  0  0  0  0  0  0  0  0  0
   -9.2347    1.8095   -7.8409 C   0  0  0  0  0  0  0  0  0  0  0  0
   -8.5661    3.4184  -11.5391 C   0  0  0  0  0  0  0  0  0  0  0  0
   -8.7113    5.7812  -10.7166 C   0  0  0  0  0  0  0  0  0  0  0  0
   -7.7935    4.0828  -12.6738 C   0  0  0  0  0  0  0  0  0  0  0  0
   -9.1935    6.0721  -12.1347 C   0  0  0  0  0  0  0  0  0  0  0  0
   -6.9884    5.7370  -16.9710 C   0  0  0  0  0  0  0  0  0  0  0  0
   -8.0895    3.5314  -17.4527 C   0  0  0  0  0  0  0  0  0  0  0  0
   -9.4955    5.5881  -17.1346 C   0  0  0  0  0  0  0  0  0  0  0  0
   -8.2164    4.8638  -16.7173 C   0  0  0  0  0  0  0  0  0  0  0  0
   -9.2084    4.7042   -8.1632 N   0  0  0  0  0  0  0  0  0  0  0  0
   -9.0186    2.5098   -9.0855 N   0  0  0  0  0  0  0  0  0  0  0  0
   -8.7778    4.3469  -10.4240 N   0  0  0  0  0  0  0  0  0  0  0  0
   -8.4619    5.2958  -13.1384 N   0  0  0  0  0  0  0  0  0  0  0  0
   -8.4391    6.8222  -14.8904 O   0  0  0  0  0  0  0  0  0  0  0  0
   -8.2907    4.5779  -15.3160 O   0  0  0  0  0  0  0  0  0  0  0  0
   -7.7202    2.8429   -6.7061 H   0  0  0  0  0  0  0  0  0  0  0  0
   -9.0845    2.2772   -5.7383 H   0  0  0  0  0  0  0  0  0  0  0  0
  -10.5668    3.9999   -6.7221 H   0  0  0  0  0  0  0  0  0  0  0  0
   -9.1121    4.7563   -6.0728 H   0  0  0  0  0  0  0  0  0  0  0  0
   -8.6567    0.8803   -7.8248 H   0  0  0  0  0  0  0  0  0  0  0  0
  -10.2949    1.5500   -7.7498 H   0  0  0  0  0  0  0  0  0  0  0  0
   -9.5300    3.0498  -11.9284 H   0  0  0  0  0  0  0  0  0  0  0  0
   -8.0217    2.5318  -11.1725 H   0  0  0  0  0  0  0  0  0  0  0  0
   -7.6744    6.1296  -10.5864 H   0  0  0  0  0  0  0  0  0  0  0  0
   -9.3252    6.3539  -10.0044 H   0  0  0  0  0  0  0  0  0  0  0  0
   -6.7708    4.3079  -12.3442 H   0  0  0  0  0  0  0  0  0  0  0  0
   -7.7116    3.4030  -13.5341 H   0  0  0  0  0  0  0  0  0  0  0  0
  -10.2609    5.8129  -12.2381 H   0  0  0  0  0  0  0  0  0  0  0  0
   -9.1155    7.1517  -12.3325 H   0  0  0  0  0  0  0  0  0  0  0  0
   -7.0756    6.6944  -16.4448 H   0  0  0  0  0  0  0  0  0  0  0  0
   -6.0677    5.2431  -16.6438 H   0  0  0  0  0  0  0  0  0  0  0  0
   -6.8926    5.9773  -18.0360 H   0  0  0  0  0  0  0  0  0  0  0  0
   -8.9684    2.9016  -17.2735 H   0  0  0  0  0  0  0  0  0  0  0  0
   -7.2246    2.9653  -17.0882 H   0  0  0  0  0  0  0  0  0  0  0  0
   -7.9799    3.6747  -18.5325 H   0  0  0  0  0  0  0  0  0  0  0  0
  -10.3765    4.9619  -16.9527 H   0  0  0  0  0  0  0  0  0  0  0  0
   -9.6221    6.5293  -16.5898 H   0  0  0  0  0  0  0  0  0  0  0  0
   -9.4873    5.8059  -18.2087 H   0  0  0  0  0  0  0  0  0  0  0  0
   -8.8991    1.9550   -9.9275 H   0  0  0  0  0  0  0  0  0  0  0  0
  1 14  2  0  0  0  0
  1 15  1  0  0  0  0
  1 16  1  0  0  0  0
  2 17  1  0  0  0  0
  2 18  2  0  0  0  0
  2 19  1  0  0  0  0
  3  4  1  0  0  0  0
  3  5  1  0  0  0  0
  4 14  1  0  0  0  0
  5 15  1  0  0  0  0
  6  8  1  0  0  0  0
  6 16  1  0  0  0  0
  7  9  1  0  0  0  0
  7 16  1  0  0  0  0
  8 17  1  0  0  0  0
  9 17  1  0  0  0  0
 10 13  1  0  0  0  0
 11 13  1  0  0  0  0
 12 13  1  0  0  0  0
 13 19  1  0  0  0  0
  3 20  1  0  0  0  0
  3 21  1  0  0  0  0
  4 22  1  0  0  0  0
  4 23  1  0  0  0  0
  5 24  1  0  0  0  0
  5 25  1  0  0  0  0
  6 26  1  0  0  0  0
  6 27  1  0  0  0  0
  7 28  1  0  0  0  0
  7 29  1  0  0  0  0
  8 30  1  0  0  0  0
  8 31  1  0  0  0  0
  9 32  1  0  0  0  0
  9 33  1  0  0  0  0
 10 34  1  0  0  0  0
 10 35  1  0  0  0  0
 10 36  1  0  0  0  0
 11 37  1  0  0  0  0
 11 38  1  0  0  0  0
 11 39  1  0  0  0  0
 12 40  1  0  0  0  0
 12 41  1  0  0  0  0
 12 42  1  0  0  0  0
 15 43  1  0  0  0  0
M  END
> <id>
EN300-6758843

> <smiles>
CC(C)(C)OC(=O)N1CCN(CC1)C2=NCCCN2

> <MDLNUMBER>
MFCD31924629

> <IUPAC Name>
tert-butyl 4-(1,4,5,6-tetrahydropyrimidin-2-yl)piperazine-1-carboxylate

> <CAS>
2344677-96-7

> <URL>
https://www.enaminestore.com/catalog/EN300-6758843

> <ROCS_ShapeQuery>
_x0404_0B

> <ROCS_TanimotoCombo>
0.385 

> <ROCS_ShapeTanimoto>
0.316 

> <ROCS_ColorTanimoto>
0.069 

> <ROCS_RefTversky>
0.281 

> <ROCS_RefColorTversky>
0.073 

> <ROCS_RefTverskyCombo>
0.354 

> <ROCS_FitTversky>
1.637 

> <ROCS_FitColorTversky>
0.558 

> <ROCS_FitTverskyCombo>
2.195 

> <ROCS_ColorScore>
-5.290

> <ROCS_Overlap>
1874.377

> <ROCS_Rank>
224                 

$$$$
untitled-dbase-34381_7
  -OEChem-08212314543D

 49 52  0     1  0  0  0  0  0999 V2000
   -9.0775    4.2097   -7.9018 C   0  0  0  0  0  0  0  0  0  0  0  0
   -9.2780    3.1408   -7.0532 C   0  0  0  0  0  0  0  0  0  0  0  0
   -9.0006    3.6699   -9.2113 C   0  0  0  0  0  0  0  0  0  0  0  0
   -9.1782    2.3148   -9.0469 C   0  0  0  0  0  0  0  0  0  0  0  0
   -9.7932    4.9490  -14.2729 C   0  0  0  0  0  0  0  0  0  0  0  0
   -9.1898    1.2918  -10.1069 C   0  0  0  0  0  0  0  0  0  0  0  0
   -8.8913    7.1774  -11.5329 C   0  0  0  0  0  0  0  0  0  0  0  0
   -7.5883    5.2890  -10.5574 C   0  0  0  0  0  0  0  0  0  0  0  0
  -10.1146    5.0765  -10.9915 C   0  0  0  0  0  0  0  0  0  0  0  0
   -9.3589    2.0181  -11.4544 C   0  0  0  0  0  0  0  0  0  0  0  0
   -7.7309    5.8111  -13.0771 C   0  0  0  0  0  0  0  0  0  0  0  0
   -7.5942    6.3747  -11.6587 C   0  0  1  0  0  0  0  0  0  0  0  0
   -9.8851    6.1522  -12.0720 C   0  0  2  0  0  0  0  0  0  0  0  0
   -8.8168    4.3128  -10.5679 C   0  0  2  0  0  0  0  0  0  0  0  0
   -9.6466    6.4249  -16.4311 C   0  0  0  0  0  0  0  0  0  0  0  0
   -7.6647    5.0697  -17.1692 C   0  0  0  0  0  0  0  0  0  0  0  0
   -9.9725    4.0885  -17.3084 C   0  0  0  0  0  0  0  0  0  0  0  0
   -9.0492    5.0217  -16.5265 C   0  0  0  0  0  0  0  0  0  0  0  0
   -8.5124    3.2244  -11.5574 N   0  0  0  0  0  0  0  0  0  0  0  0
   -9.1713    5.5984  -13.2226 N   0  0  0  0  0  0  0  0  0  0  0  0
  -11.0078    4.7875  -14.3639 O   0  0  0  0  0  0  0  0  0  0  0  0
   -9.3399    1.9722   -7.7502 O   0  0  0  0  0  0  0  0  0  0  0  0
   -8.8920    4.5025  -15.2015 O   0  0  0  0  0  0  0  0  0  0  0  0
   -9.0001    5.2467   -7.6078 H   0  0  0  0  0  0  0  0  0  0  0  0
   -9.3958    3.0504   -5.9832 H   0  0  0  0  0  0  0  0  0  0  0  0
   -8.2414    0.7426  -10.0930 H   0  0  0  0  0  0  0  0  0  0  0  0
  -10.0030    0.5743   -9.9589 H   0  0  0  0  0  0  0  0  0  0  0  0
   -9.1045    7.4971  -10.5078 H   0  0  0  0  0  0  0  0  0  0  0  0
   -8.8629    8.0677  -12.1729 H   0  0  0  0  0  0  0  0  0  0  0  0
   -6.6476    4.7236  -10.6113 H   0  0  0  0  0  0  0  0  0  0  0  0
   -7.5463    5.8139   -9.5932 H   0  0  0  0  0  0  0  0  0  0  0  0
  -10.5457    5.5759  -10.1121 H   0  0  0  0  0  0  0  0  0  0  0  0
  -10.8930    4.3822  -11.3291 H   0  0  0  0  0  0  0  0  0  0  0  0
   -9.0931    1.3318  -12.2666 H   0  0  0  0  0  0  0  0  0  0  0  0
  -10.4108    2.2797  -11.6146 H   0  0  0  0  0  0  0  0  0  0  0  0
   -7.4335    6.5502  -13.8298 H   0  0  0  0  0  0  0  0  0  0  0  0
   -7.1689    4.8902  -13.2541 H   0  0  0  0  0  0  0  0  0  0  0  0
   -6.7106    7.0132  -11.5613 H   0  0  0  0  0  0  0  0  0  0  0  0
  -10.8343    6.6015  -12.3801 H   0  0  0  0  0  0  0  0  0  0  0  0
  -10.6405    6.3947  -15.9704 H   0  0  0  0  0  0  0  0  0  0  0  0
   -9.0109    7.0948  -15.8431 H   0  0  0  0  0  0  0  0  0  0  0  0
   -9.7810    6.8612  -17.4275 H   0  0  0  0  0  0  0  0  0  0  0  0
   -7.2323    4.0651  -17.2397 H   0  0  0  0  0  0  0  0  0  0  0  0
   -6.9721    5.6619  -16.5602 H   0  0  0  0  0  0  0  0  0  0  0  0
   -7.7005    5.5030  -18.1739 H   0  0  0  0  0  0  0  0  0  0  0  0
   -9.5442    3.0819  -17.3770 H   0  0  0  0  0  0  0  0  0  0  0  0
  -10.9595    4.0129  -16.8408 H   0  0  0  0  0  0  0  0  0  0  0  0
  -10.1011    4.4406  -18.3383 H   0  0  0  0  0  0  0  0  0  0  0  0
   -7.5398    2.9354  -11.4453 H   0  0  0  0  0  0  0  0  0  0  0  0
  1  2  2  0  0  0  0
  1  3  1  0  0  0  0
  2 22  1  0  0  0  0
  3  4  2  0  0  0  0
  3 14  1  0  0  0  0
  4  6  1  0  0  0  0
  4 22  1  0  0  0  0
  5 20  1  0  0  0  0
  5 21  2  0  0  0  0
  5 23  1  0  0  0  0
  6 10  1  0  0  0  0
  7 12  1  0  0  0  0
  7 13  1  0  0  0  0
  8 12  1  0  0  0  0
  8 14  1  0  0  0  0
  9 13  1  0  0  0  0
  9 14  1  0  0  0  0
 10 19  1  0  0  0  0
 11 12  1  0  0  0  0
 11 20  1  0  0  0  0
 13 20  1  0  0  0  0
 14 19  1  0  0  0  0
 15 18  1  0  0  0  0
 16 18  1  0  0  0  0
 17 18  1  0  0  0  0
 18 23  1  0  0  0  0
  1 24  1  0  0  0  0
  2 25  1  0  0  0  0
  6 26  1  0  0  0  0
  6 27  1  0  0  0  0
  7 28  1  0  0  0  0
  7 29  1  0  0  0  0
  8 30  1  0  0  0  0
  8 31  1  0  0  0  0
  9 32  1  0  0  0  0
  9 33  1  0  0  0  0
 10 34  1  0  0  0  0
 10 35  1  0  0  0  0
 11 36  1  0  0  0  0
 11 37  1  0  0  0  0
 12 38  1  0  0  0  0
 13 39  1  0  0  0  0
 15 40  1  0  0  0  0
 15 41  1  0  0  0  0
 15 42  1  0  0  0  0
 16 43  1  0  0  0  0
 16 44  1  0  0  0  0
 16 45  1  0  0  0  0
 17 46  1  0  0  0  0
 17 47  1  0  0  0  0
 17 48  1  0  0  0  0
 19 49  1  0  0  0  0
M  END
> <id>
EN300-1074735

> <smiles>
CC(C)(C)OC(=O)N1CC2CC1CC3(C2)NCCC=4OC=CC43

> <IUPAC Name>
tert-butyl 6',7'-dihydro-5'H-6-azaspiro[bicyclo[3.2.1]octane-3,4'-furo[3,2-c]pyridine]-6-carboxylate

> <URL>
https://www.enaminestore.com/catalog/EN300-1074735

> <ROCS_ShapeQuery>
_x0404_0B

> <ROCS_TanimotoCombo>
0.385 

> <ROCS_ShapeTanimoto>
0.308 

> <ROCS_ColorTanimoto>
0.077 

> <ROCS_RefTversky>
0.283 

> <ROCS_RefColorTversky>
0.088 

> <ROCS_RefTverskyCombo>
0.371 

> <ROCS_FitTversky>
1.395 

> <ROCS_FitColorTversky>
0.398 

> <ROCS_FitTverskyCombo>
1.792 

> <ROCS_ColorScore>
-6.349

> <ROCS_Overlap>
1889.621

> <ROCS_Rank>
225                 

$$$$
untitled-dbase-27243_43
  -OEChem-08212314543D

 48 50  0     1  0  0  0  0  0999 V2000
   -8.7072    5.5939   -7.7912 C   0  0  0  0  0  0  0  0  0  0  0  0
   -9.0265    6.6591   -8.6347 C   0  0  0  0  0  0  0  0  0  0  0  0
   -8.5436    4.3145   -8.3159 C   0  0  0  0  0  0  0  0  0  0  0  0
   -9.1899    6.4532  -10.0083 C   0  0  0  0  0  0  0  0  0  0  0  0
   -8.6944    4.1172   -9.6897 C   0  0  0  0  0  0  0  0  0  0  0  0
   -9.0263    5.1766  -10.5479 C   0  0  0  0  0  0  0  0  0  0  0  0
   -9.3023    5.2391  -14.1521 C   0  0  0  0  0  0  0  0  0  0  0  0
   -8.3229    5.4019  -15.0517 C   0  0  0  0  0  0  0  0  0  0  0  0
   -8.5128    2.7559  -10.2253 C   0  0  0  0  0  0  0  0  0  0  0  0
   -8.1389    2.2994  -15.1136 C   0  0  0  0  0  0  0  0  0  0  0  0
   -9.3153    5.9036  -12.8123 C   0  0  0  0  0  0  0  0  0  0  0  0
   -7.5130    3.2674  -16.1046 C   0  0  0  0  0  0  0  0  0  0  0  0
   -8.8198    4.7511  -18.4000 C   0  0  0  0  0  0  0  0  0  0  0  0
   -9.6272    4.5058  -17.1125 C   0  0  0  0  0  0  0  0  0  0  0  0
   -7.7389    5.4120  -17.5256 C   0  0  0  0  0  0  0  0  0  0  0  0
   -7.7335    1.1622  -12.9354 C   0  0  0  0  0  0  0  0  0  0  0  0
   -6.9429    1.3685  -11.6382 C   0  0  2  0  0  0  0  0  0  0  0  0
   -8.2851    4.5871  -16.3078 C   0  0  0  0  0  0  0  0  0  0  0  0
   -7.0161    0.1343  -10.7390 C   0  0  0  0  0  0  0  0  0  0  0  0
   -7.3414    2.5945  -10.9458 N   0  0  0  0  0  0  0  0  0  0  0  0
   -7.3957    2.1465  -13.9530 N   0  0  0  0  0  0  0  0  0  0  0  0
   -9.3768    1.9176  -10.0003 O   0  0  0  0  0  0  0  0  0  0  0  0
   -9.1990    1.7245  -15.3524 O   0  0  0  0  0  0  0  0  0  0  0  0
   -9.1969    4.8482  -11.8617 O   0  0  0  0  0  0  0  0  0  0  0  0
   -8.5885    5.7643   -6.7249 H   0  0  0  0  0  0  0  0  0  0  0  0
   -9.1403    7.6581   -8.2216 H   0  0  0  0  0  0  0  0  0  0  0  0
   -8.3168    3.4917   -7.6488 H   0  0  0  0  0  0  0  0  0  0  0  0
   -9.4285    7.3127  -10.6239 H   0  0  0  0  0  0  0  0  0  0  0  0
  -10.1644    4.6228  -14.3950 H   0  0  0  0  0  0  0  0  0  0  0  0
   -7.5658    6.1712  -14.9092 H   0  0  0  0  0  0  0  0  0  0  0  0
   -8.4565    6.5755  -12.7485 H   0  0  0  0  0  0  0  0  0  0  0  0
  -10.2442    6.4583  -12.6575 H   0  0  0  0  0  0  0  0  0  0  0  0
   -6.4751    3.4854  -15.8048 H   0  0  0  0  0  0  0  0  0  0  0  0
   -7.4191    2.7189  -17.0557 H   0  0  0  0  0  0  0  0  0  0  0  0
   -8.4882    3.8338  -18.8984 H   0  0  0  0  0  0  0  0  0  0  0  0
   -9.2937    5.4016  -19.1390 H   0  0  0  0  0  0  0  0  0  0  0  0
  -10.3438    5.3100  -16.9005 H   0  0  0  0  0  0  0  0  0  0  0  0
  -10.1655    3.5541  -17.0811 H   0  0  0  0  0  0  0  0  0  0  0  0
   -6.7079    5.2058  -17.8257 H   0  0  0  0  0  0  0  0  0  0  0  0
   -7.8644    6.4983  -17.4417 H   0  0  0  0  0  0  0  0  0  0  0  0
   -7.5155    0.1790  -13.3622 H   0  0  0  0  0  0  0  0  0  0  0  0
   -8.8112    1.2107  -12.7529 H   0  0  0  0  0  0  0  0  0  0  0  0
   -5.8609    1.5063  -11.9183 H   0  0  0  0  0  0  0  0  0  0  0  0
   -8.0475   -0.0420  -10.4397 H   0  0  0  0  0  0  0  0  0  0  0  0
   -6.4075    0.2902   -9.8504 H   0  0  0  0  0  0  0  0  0  0  0  0
   -6.6462   -0.7358  -11.2780 H   0  0  0  0  0  0  0  0  0  0  0  0
   -6.6991    3.4009  -10.9991 H   0  0  0  0  0  0  0  0  0  0  0  0
   -6.5475    2.6945  -13.8229 H   0  0  0  0  0  0  0  0  0  0  0  0
  1  2  2  0  0  0  0
  1  3  1  0  0  0  0
  2  4  1  0  0  0  0
  3  5  2  0  0  0  0
  4  6  2  0  0  0  0
  5  6  1  0  0  0  0
  5  9  1  0  0  0  0
  6 24  1  0  0  0  0
  7  8  2  0  0  0  0
  7 11  1  0  0  0  0
  8 18  1  0  0  0  0
  9 20  1  0  0  0  0
  9 22  2  0  0  0  0
 10 12  1  0  0  0  0
 10 21  1  0  0  0  0
 10 23  2  0  0  0  0
 11 24  1  0  0  0  0
 12 18  1  0  0  0  0
 13 14  1  0  0  0  0
 13 15  1  0  0  0  0
 14 18  1  0  0  0  0
 15 18  1  0  0  0  0
 16 17  1  0  0  0  0
 16 21  1  0  0  0  0
 17 19  1  1  0  0  0
 17 20  1  0  0  0  0
  1 25  1  0  0  0  0
  2 26  1  0  0  0  0
  3 27  1  0  0  0  0
  4 28  1  0  0  0  0
  7 29  1  0  0  0  0
  8 30  1  0  0  0  0
 11 31  1  0  0  0  0
 11 32  1  0  0  0  0
 12 33  1  0  0  0  0
 12 34  1  0  0  0  0
 13 35  1  0  0  0  0
 13 36  1  0  0  0  0
 14 37  1  0  0  0  0
 14 38  1  0  0  0  0
 15 39  1  0  0  0  0
 15 40  1  0  0  0  0
 16 41  1  0  0  0  0
 16 42  1  0  0  0  0
 17 43  1  0  0  0  0
 19 44  1  0  0  0  0
 19 45  1  0  0  0  0
 19 46  1  0  0  0  0
 20 47  1  0  0  0  0
 21 48  1  0  0  0  0
M  END
> <id>
EN300-6491604

> <smiles>
C[C@H]1CNC(=O)CC2(CCC2)/C=C/COC=3C=CC=CC3C(=O)N1

> <MDLNUMBER>
MFCD31720010

> <IUPAC Name>
(3E,10S)-10-methyl-2,6,7,8,9,10,11,12-octahydrospiro[1,8,11-benzoxadiazacyclotetradecine-5,1'-cyclobutan]-3-ene-7,12-dione

> <CAS>
2641565-71-9

> <URL>
https://www.enaminestore.com/catalog/EN300-6491604

> <ROCS_ShapeQuery>
_x0404_0B

> <ROCS_TanimotoCombo>
0.385 

> <ROCS_ShapeTanimoto>
0.320 

> <ROCS_ColorTanimoto>
0.065 

> <ROCS_RefTversky>
0.292 

> <ROCS_RefColorTversky>
0.070 

> <ROCS_RefTverskyCombo>
0.361 

> <ROCS_FitTversky>
1.435 

> <ROCS_FitColorTversky>
0.481 

> <ROCS_FitTverskyCombo>
1.916 

> <ROCS_ColorScore>
-5.018

> <ROCS_Overlap>
1948.513

> <ROCS_Rank>
226                 

$$$$
untitled-dbase-36985_35
  -OEChem-08212314543D

 40 42  0     0  0  0  0  0  0999 V2000
   -8.1830    4.5038  -17.9247 C   0  0  0  0  0  0  0  0  0  0  0  0
   -7.0908    5.2535  -17.4856 C   0  0  0  0  0  0  0  0  0  0  0  0
   -9.3424    4.4309  -17.1509 C   0  0  0  0  0  0  0  0  0  0  0  0
   -7.1496    5.9286  -16.2667 C   0  0  0  0  0  0  0  0  0  0  0  0
   -9.4015    5.1072  -15.9300 C   0  0  0  0  0  0  0  0  0  0  0  0
   -8.3012    5.8445  -15.4850 C   0  0  0  0  0  0  0  0  0  0  0  0
  -10.6361    5.0780  -15.1170 C   0  0  0  0  0  0  0  0  0  0  0  0
   -8.7919    5.1608   -9.9699 C   0  0  0  0  0  0  0  0  0  0  0  0
  -10.6066    5.8599  -13.8282 C   0  0  0  0  0  0  0  0  0  0  0  0
   -8.6537    4.7603  -12.5132 C   0  0  0  0  0  0  0  0  0  0  0  0
   -9.1353    6.7729  -11.9316 C   0  0  0  0  0  0  0  0  0  0  0  0
   -9.1894    6.0033  -13.2741 C   0  0  0  0  0  0  0  0  0  0  0  0
  -10.0648    4.2015   -7.6011 C   0  0  0  0  0  0  0  0  0  0  0  0
   -9.4778    1.9067   -8.4369 C   0  0  0  0  0  0  0  0  0  0  0  0
   -7.6530    3.5467   -7.8999 C   0  0  0  0  0  0  0  0  0  0  0  0
   -9.0770    3.3802   -8.4285 C   0  0  0  0  0  0  0  0  0  0  0  0
   -8.8597    5.5058  -11.2912 N   0  0  0  0  0  0  0  0  0  0  0  0
  -11.6397    4.4908  -15.5043 O   0  0  0  0  0  0  0  0  0  0  0  0
   -8.4766    5.9339   -9.0697 O   0  0  0  0  0  0  0  0  0  0  0  0
   -8.3035    6.5289  -14.2942 O   0  0  0  0  0  0  0  0  0  0  0  0
   -9.1184    3.8462   -9.7818 O   0  0  0  0  0  0  0  0  0  0  0  0
   -8.1329    3.9806  -18.8754 H   0  0  0  0  0  0  0  0  0  0  0  0
   -6.1932    5.3108  -18.0946 H   0  0  0  0  0  0  0  0  0  0  0  0
  -10.1845    3.8508  -17.5174 H   0  0  0  0  0  0  0  0  0  0  0  0
   -6.2949    6.5093  -15.9310 H   0  0  0  0  0  0  0  0  0  0  0  0
  -11.0387    6.8467  -14.0327 H   0  0  0  0  0  0  0  0  0  0  0  0
  -11.2542    5.3509  -13.1043 H   0  0  0  0  0  0  0  0  0  0  0  0
   -9.2611    3.8540  -12.5839 H   0  0  0  0  0  0  0  0  0  0  0  0
   -7.6008    4.5181  -12.6858 H   0  0  0  0  0  0  0  0  0  0  0  0
   -8.3110    7.4852  -11.8298 H   0  0  0  0  0  0  0  0  0  0  0  0
  -10.0692    7.2358  -11.6017 H   0  0  0  0  0  0  0  0  0  0  0  0
   -9.7805    5.2598   -7.5926 H   0  0  0  0  0  0  0  0  0  0  0  0
  -11.0845    4.1184   -7.9910 H   0  0  0  0  0  0  0  0  0  0  0  0
  -10.0664    3.8735   -6.5553 H   0  0  0  0  0  0  0  0  0  0  0  0
   -8.7718    1.3136   -9.0294 H   0  0  0  0  0  0  0  0  0  0  0  0
  -10.4608    1.7722   -8.9026 H   0  0  0  0  0  0  0  0  0  0  0  0
   -9.5144    1.4921   -7.4242 H   0  0  0  0  0  0  0  0  0  0  0  0
   -6.9443    2.9577   -8.4933 H   0  0  0  0  0  0  0  0  0  0  0  0
   -7.3348    4.5941   -7.9212 H   0  0  0  0  0  0  0  0  0  0  0  0
   -7.5742    3.1796   -6.8702 H   0  0  0  0  0  0  0  0  0  0  0  0
  1  2  2  0  0  0  0
  1  3  1  0  0  0  0
  2  4  1  0  0  0  0
  3  5  2  0  0  0  0
  4  6  2  0  0  0  0
  5  6  1  0  0  0  0
  5  7  1  0  0  0  0
  6 20  1  0  0  0  0
  7  9  1  0  0  0  0
  7 18  2  0  0  0  0
  8 17  1  0  0  0  0
  8 19  2  0  0  0  0
  8 21  1  0  0  0  0
  9 12  1  0  0  0  0
 10 12  1  0  0  0  0
 10 17  1  0  0  0  0
 11 12  1  0  0  0  0
 11 17  1  0  0  0  0
 12 20  1  0  0  0  0
 13 16  1  0  0  0  0
 14 16  1  0  0  0  0
 15 16  1  0  0  0  0
 16 21  1  0  0  0  0
  1 22  1  0  0  0  0
  2 23  1  0  0  0  0
  3 24  1  0  0  0  0
  4 25  1  0  0  0  0
  9 26  1  0  0  0  0
  9 27  1  0  0  0  0
 10 28  1  0  0  0  0
 10 29  1  0  0  0  0
 11 30  1  0  0  0  0
 11 31  1  0  0  0  0
 13 32  1  0  0  0  0
 13 33  1  0  0  0  0
 13 34  1  0  0  0  0
 14 35  1  0  0  0  0
 14 36  1  0  0  0  0
 14 37  1  0  0  0  0
 15 38  1  0  0  0  0
 15 39  1  0  0  0  0
 15 40  1  0  0  0  0
M  END
> <id>
EN300-300909

> <smiles>
CC(C)(C)OC(=O)N1CC2(C1)CC(=O)C=3C=CC=CC3O2

> <MDLNUMBER>
MFCD17215665

> <IUPAC Name>
tert-butyl 4'-oxo-3',4'-dihydrospiro[azetidine-3,2'-[1]benzopyran]-1-carboxylate

> <CAS>
1359701-97-5

> <Purity>
95

> <URL>
https://www.enaminestore.com/catalog/EN300-300909

> <ROCS_ShapeQuery>
_x0404_0B

> <ROCS_TanimotoCombo>
0.385 

> <ROCS_ShapeTanimoto>
0.339 

> <ROCS_ColorTanimoto>
0.046 

> <ROCS_RefTversky>
0.301 

> <ROCS_RefColorTversky>
0.050 

> <ROCS_RefTverskyCombo>
0.351 

> <ROCS_FitTversky>
1.593 

> <ROCS_FitColorTversky>
0.345 

> <ROCS_FitTverskyCombo>
1.938 

> <ROCS_ColorScore>
-3.600

> <ROCS_Overlap>
2008.824

> <ROCS_Rank>
227                 

$$$$
untitled-dbase-34316_13
  -OEChem-08212314543D

 38 39  0     0  0  0  0  0  0999 V2000
   -9.2298    2.8992   -8.6388 C   0  0  0  0  0  0  0  0  0  0  0  0
   -8.7427    6.9220   -9.5847 C   0  0  0  0  0  0  0  0  0  0  0  0
   -9.0808    4.2797   -9.0007 C   0  0  0  0  0  0  0  0  0  0  0  0
   -8.9337    6.0410  -10.6454 C   0  0  0  0  0  0  0  0  0  0  0  0
   -9.1225    4.6881  -10.3356 C   0  0  0  0  0  0  0  0  0  0  0  0
   -8.8781    5.2426   -8.0254 C   0  0  0  0  0  0  0  0  0  0  0  0
   -8.5557    5.6294  -14.3728 C   0  0  0  0  0  0  0  0  0  0  0  0
   -9.3153    3.6738  -11.4306 C   0  0  0  0  0  0  0  0  0  0  0  0
   -8.9535    6.5481  -12.0604 C   0  0  0  0  0  0  0  0  0  0  0  0
   -9.8423    4.3137  -12.7108 C   0  0  0  0  0  0  0  0  0  0  0  0
   -7.6545    5.3961  -17.0790 C   0  0  0  0  0  0  0  0  0  0  0  0
   -9.1125    3.3540  -17.1939 C   0  0  0  0  0  0  0  0  0  0  0  0
  -10.1426    5.6035  -16.7616 C   0  0  0  0  0  0  0  0  0  0  0  0
   -8.9152    4.7205  -16.5414 C   0  0  0  0  0  0  0  0  0  0  0  0
   -9.3502    1.7827   -8.3460 N   0  0  0  0  0  0  0  0  0  0  0  0
   -8.7111    6.5571   -8.2834 N   0  0  0  0  0  0  0  0  0  0  0  0
   -9.0497    5.4873  -13.0713 N   0  0  0  0  0  0  0  0  0  0  0  0
   -8.8380    4.8408   -6.6659 N   0  0  0  0  0  0  0  0  0  0  0  0
   -7.9993    6.6400  -14.7981 O   0  0  0  0  0  0  0  0  0  0  0  0
   -8.7533    4.5074  -15.1343 O   0  0  0  0  0  0  0  0  0  0  0  0
   -8.6020    7.9846   -9.7594 H   0  0  0  0  0  0  0  0  0  0  0  0
   -8.3545    3.1836  -11.6306 H   0  0  0  0  0  0  0  0  0  0  0  0
  -10.0334    2.9023  -11.1299 H   0  0  0  0  0  0  0  0  0  0  0  0
   -9.8277    7.1946  -12.2017 H   0  0  0  0  0  0  0  0  0  0  0  0
   -8.0529    7.1441  -12.2418 H   0  0  0  0  0  0  0  0  0  0  0  0
   -9.8460    3.5786  -13.5220 H   0  0  0  0  0  0  0  0  0  0  0  0
  -10.8762    4.6558  -12.5757 H   0  0  0  0  0  0  0  0  0  0  0  0
   -7.5093    6.3773  -16.6131 H   0  0  0  0  0  0  0  0  0  0  0  0
   -6.7621    4.7888  -16.8960 H   0  0  0  0  0  0  0  0  0  0  0  0
   -7.7362    5.5750  -18.1572 H   0  0  0  0  0  0  0  0  0  0  0  0
  -10.0159    2.8656  -16.8111 H   0  0  0  0  0  0  0  0  0  0  0  0
   -8.2768    2.6849  -16.9589 H   0  0  0  0  0  0  0  0  0  0  0  0
   -9.1967    3.4345  -18.2825 H   0  0  0  0  0  0  0  0  0  0  0  0
  -11.0470    5.1191  -16.3761 H   0  0  0  0  0  0  0  0  0  0  0  0
  -10.0342    6.5751  -16.2689 H   0  0  0  0  0  0  0  0  0  0  0  0
  -10.3143    5.7724  -17.8309 H   0  0  0  0  0  0  0  0  0  0  0  0
   -8.6453    5.5255   -5.9685 H   0  0  0  0  0  0  0  0  0  0  0  0
   -8.9093    3.8709   -6.4499 H   0  0  0  0  0  0  0  0  0  0  0  0
  1  3  1  0  0  0  0
  1 15  3  0  0  0  0
  2  4  2  0  0  0  0
  2 16  1  0  0  0  0
  3  5  2  0  0  0  0
  3  6  1  0  0  0  0
  4  5  1  0  0  0  0
  4  9  1  0  0  0  0
  5  8  1  0  0  0  0
  6 16  2  0  0  0  0
  6 18  1  0  0  0  0
  7 17  1  0  0  0  0
  7 19  2  0  0  0  0
  7 20  1  0  0  0  0
  8 10  1  0  0  0  0
  9 17  1  0  0  0  0
 10 17  1  0  0  0  0
 11 14  1  0  0  0  0
 12 14  1  0  0  0  0
 13 14  1  0  0  0  0
 14 20  1  0  0  0  0
  2 21  1  0  0  0  0
  8 22  1  0  0  0  0
  8 23  1  0  0  0  0
  9 24  1  0  0  0  0
  9 25  1  0  0  0  0
 10 26  1  0  0  0  0
 10 27  1  0  0  0  0
 11 28  1  0  0  0  0
 11 29  1  0  0  0  0
 11 30  1  0  0  0  0
 12 31  1  0  0  0  0
 12 32  1  0  0  0  0
 12 33  1  0  0  0  0
 13 34  1  0  0  0  0
 13 35  1  0  0  0  0
 13 36  1  0  0  0  0
 18 37  1  0  0  0  0
 18 38  1  0  0  0  0
M  END
> <id>
EN300-726419

> <smiles>
CC(C)(C)OC(=O)N1CCC=2C(C#N)=C(N)N=CC2C1

> <MDLNUMBER>
MFCD31443776

> <IUPAC Name>
tert-butyl 6-amino-5-cyano-1,2,3,4-tetrahydro-2,7-naphthyridine-2-carboxylate

> <CAS>
2138423-88-6

> <Purity>
95

> <URL>
https://www.enaminestore.com/catalog/EN300-726419

> <ROCS_ShapeQuery>
_x0404_0B

> <ROCS_TanimotoCombo>
0.384 

> <ROCS_ShapeTanimoto>
0.315 

> <ROCS_ColorTanimoto>
0.069 

> <ROCS_RefTversky>
0.283 

> <ROCS_RefColorTversky>
0.075 

> <ROCS_RefTverskyCombo>
0.358 

> <ROCS_FitTversky>
1.571 

> <ROCS_FitColorTversky>
0.476 

> <ROCS_FitTverskyCombo>
2.047 

> <ROCS_ColorScore>
-5.419

> <ROCS_Overlap>
1886.027

> <ROCS_Rank>
228                 

$$$$
untitled-dbase-31954_1
  -OEChem-08212314543D

 34 35  0     0  0  0  0  0  0999 V2000
   -8.8488    5.2809  -10.6635 C   0  0  0  0  0  0  0  0  0  0  0  0
   -8.9176    3.9830  -11.1432 C   0  0  0  0  0  0  0  0  0  0  0  0
   -8.9500    5.4461   -9.3094 C   0  0  0  0  0  0  0  0  0  0  0  0
   -9.1627    3.1753   -9.0639 C   0  0  0  0  0  0  0  0  0  0  0  0
   -8.4848    5.9187  -14.2394 C   0  0  0  0  0  0  0  0  0  0  0  0
   -8.6730    6.2572  -11.7663 C   0  0  0  0  0  0  0  0  0  0  0  0
   -8.7908    3.9781  -12.6366 C   0  0  0  0  0  0  0  0  0  0  0  0
   -6.9932    6.1003  -16.6699 C   0  0  0  0  0  0  0  0  0  0  0  0
   -8.3497    4.1292  -17.4340 C   0  0  0  0  0  0  0  0  0  0  0  0
   -9.4923    6.2993  -16.8928 C   0  0  0  0  0  0  0  0  0  0  0  0
   -8.3299    5.3706  -16.5448 C   0  0  0  0  0  0  0  0  0  0  0  0
   -9.0746    2.8932  -10.3811 N   0  0  0  0  0  0  0  0  0  0  0  0
   -9.1096    4.3963   -8.4739 N   0  0  0  0  0  0  0  0  0  0  0  0
   -8.6403    5.4052  -12.9627 N   0  0  0  0  0  0  0  0  0  0  0  0
   -9.3292    2.0719   -8.1980 N   0  0  0  0  0  0  0  0  0  0  0  0
   -8.3612    7.1151  -14.4916 O   0  0  0  0  0  0  0  0  0  0  0  0
   -8.8921    6.6926   -8.7539 O   0  0  0  0  0  0  0  0  0  0  0  0
   -8.4854    4.9335  -15.1902 O   0  0  0  0  0  0  0  0  0  0  0  0
   -9.5136    6.9521  -11.8508 H   0  0  0  0  0  0  0  0  0  0  0  0
   -7.7285    6.8049  -11.6964 H   0  0  0  0  0  0  0  0  0  0  0  0
   -7.9014    3.4369  -12.9719 H   0  0  0  0  0  0  0  0  0  0  0  0
   -9.6891    3.5894  -13.1246 H   0  0  0  0  0  0  0  0  0  0  0  0
   -6.9751    6.9921  -16.0332 H   0  0  0  0  0  0  0  0  0  0  0  0
   -6.1539    5.4556  -16.3895 H   0  0  0  0  0  0  0  0  0  0  0  0
   -6.8332    6.4500  -17.6962 H   0  0  0  0  0  0  0  0  0  0  0  0
   -9.3069    3.6025  -17.3474 H   0  0  0  0  0  0  0  0  0  0  0  0
   -7.5762    3.4163  -17.1262 H   0  0  0  0  0  0  0  0  0  0  0  0
   -8.1878    4.3834  -18.4865 H   0  0  0  0  0  0  0  0  0  0  0  0
  -10.4512    5.7761  -16.8032 H   0  0  0  0  0  0  0  0  0  0  0  0
   -9.5158    7.1780  -16.2401 H   0  0  0  0  0  0  0  0  0  0  0  0
   -9.4216    6.6394  -17.9323 H   0  0  0  0  0  0  0  0  0  0  0  0
   -9.3518    2.2276   -7.2115 H   0  0  0  0  0  0  0  0  0  0  0  0
   -9.3263    1.1493   -8.5811 H   0  0  0  0  0  0  0  0  0  0  0  0
   -8.9792    6.6309   -7.7910 H   0  0  0  0  0  0  0  0  0  0  0  0
  1  2  1  0  0  0  0
  1  3  2  0  0  0  0
  1  6  1  0  0  0  0
  2  7  1  0  0  0  0
  2 12  2  0  0  0  0
  3 13  1  0  0  0  0
  3 17  1  0  0  0  0
  4 12  1  0  0  0  0
  4 13  2  0  0  0  0
  4 15  1  0  0  0  0
  5 14  1  0  0  0  0
  5 16  2  0  0  0  0
  5 18  1  0  0  0  0
  6 14  1  0  0  0  0
  7 14  1  0  0  0  0
  8 11  1  0  0  0  0
  9 11  1  0  0  0  0
 10 11  1  0  0  0  0
 11 18  1  0  0  0  0
  6 19  1  0  0  0  0
  6 20  1  0  0  0  0
  7 21  1  0  0  0  0
  7 22  1  0  0  0  0
  8 23  1  0  0  0  0
  8 24  1  0  0  0  0
  8 25  1  0  0  0  0
  9 26  1  0  0  0  0
  9 27  1  0  0  0  0
  9 28  1  0  0  0  0
 10 29  1  0  0  0  0
 10 30  1  0  0  0  0
 10 31  1  0  0  0  0
 15 32  1  0  0  0  0
 15 33  1  0  0  0  0
 17 34  1  0  0  0  0
M  END
> <id>
EN300-266272

> <smiles>
CC(C)(C)OC(=O)N1CC=2N=C(N)N=C(O)C2C1

> <MDLNUMBER>
MFCD17676926

> <IUPAC Name>
tert-butyl 2-amino-4-hydroxy-5H,6H,7H-pyrrolo[3,4-d]pyrimidine-6-carboxylate

> <CAS>
1263284-35-0

> <Purity>
95

> <URL>
https://www.enaminestore.com/catalog/EN300-266272

> <ROCS_ShapeQuery>
_x0404_0B

> <ROCS_TanimotoCombo>
0.384 

> <ROCS_ShapeTanimoto>
0.311 

> <ROCS_ColorTanimoto>
0.073 

> <ROCS_RefTversky>
0.278 

> <ROCS_RefColorTversky>
0.081 

> <ROCS_RefTverskyCombo>
0.358 

> <ROCS_FitTversky>
1.640 

> <ROCS_FitColorTversky>
0.437 

> <ROCS_FitTverskyCombo>
2.078 

> <ROCS_ColorScore>
-5.827

> <ROCS_Overlap>
1850.695

> <ROCS_Rank>
229                 

$$$$
untitled-dbase-30437_154
  -OEChem-08212314543D

 45 47  0     1  0  0  0  0  0999 V2000
   -9.2720    3.0392   -6.1472 C   0  0  0  0  0  0  0  0  0  0  0  0
   -9.6044    1.9812   -6.9885 C   0  0  0  0  0  0  0  0  0  0  0  0
   -8.7600    4.2212   -6.6831 C   0  0  0  0  0  0  0  0  0  0  0  0
   -9.4286    2.1065   -8.3654 C   0  0  0  0  0  0  0  0  0  0  0  0
   -8.5794    4.3607   -8.0678 C   0  0  0  0  0  0  0  0  0  0  0  0
   -8.9276    3.2948   -8.9061 C   0  0  0  0  0  0  0  0  0  0  0  0
   -8.2257    5.7922  -14.3565 C   0  0  0  0  0  0  0  0  0  0  0  0
   -9.9636    5.2560  -11.1416 C   0  0  0  0  0  0  0  0  0  0  0  0
   -7.5909    5.4594  -10.0821 C   0  0  0  0  0  0  0  0  0  0  0  0
   -9.7166    6.1450  -12.3496 C   0  0  0  0  0  0  0  0  0  0  0  0
   -8.0835    4.3795  -12.3053 C   0  0  0  0  0  0  0  0  0  0  0  0
   -8.0057    5.6353   -8.6241 C   0  0  1  0  0  0  0  0  0  0  0  0
   -8.5956    4.5969  -10.8694 C   0  0  2  0  0  0  0  0  0  0  0  0
   -6.1391    5.9411  -16.3037 C   0  0  0  0  0  0  0  0  0  0  0  0
   -6.8107    3.6040  -16.9328 C   0  0  0  0  0  0  0  0  0  0  0  0
   -8.4488    5.4896  -17.1958 C   0  0  0  0  0  0  0  0  0  0  0  0
   -7.2903    4.9384  -16.3658 C   0  0  0  0  0  0  0  0  0  0  0  0
   -8.6579    5.4667  -13.0825 N   0  0  0  0  0  0  0  0  0  0  0  0
   -8.2589    6.9265  -14.8283 O   0  0  0  0  0  0  0  0  0  0  0  0
   -8.7779    3.3110  -10.2674 O   0  0  0  0  0  0  0  0  0  0  0  0
   -8.9314    6.7139   -8.5236 O   0  0  0  0  0  0  0  0  0  0  0  0
   -7.7577    4.6981  -15.0338 O   0  0  0  0  0  0  0  0  0  0  0  0
   -9.4097    2.9446   -5.0744 H   0  0  0  0  0  0  0  0  0  0  0  0
   -9.9937    1.0567   -6.5724 H   0  0  0  0  0  0  0  0  0  0  0  0
   -8.5029    5.0352   -6.0095 H   0  0  0  0  0  0  0  0  0  0  0  0
   -9.6757    1.2691   -9.0136 H   0  0  0  0  0  0  0  0  0  0  0  0
  -10.2763    5.8745  -10.2883 H   0  0  0  0  0  0  0  0  0  0  0  0
  -10.7514    4.5201  -11.3471 H   0  0  0  0  0  0  0  0  0  0  0  0
   -7.5147    6.4520  -10.5598 H   0  0  0  0  0  0  0  0  0  0  0  0
   -6.5755    5.0342  -10.1318 H   0  0  0  0  0  0  0  0  0  0  0  0
  -10.5927    6.1963  -13.0036 H   0  0  0  0  0  0  0  0  0  0  0  0
   -9.4140    7.1606  -12.0832 H   0  0  0  0  0  0  0  0  0  0  0  0
   -6.9920    4.4756  -12.3726 H   0  0  0  0  0  0  0  0  0  0  0  0
   -8.3853    3.4199  -12.7418 H   0  0  0  0  0  0  0  0  0  0  0  0
   -7.1178    5.9047   -8.0115 H   0  0  0  0  0  0  0  0  0  0  0  0
   -6.4793    6.9003  -15.8972 H   0  0  0  0  0  0  0  0  0  0  0  0
   -5.3162    5.5725  -15.6826 H   0  0  0  0  0  0  0  0  0  0  0  0
   -5.7489    6.1512  -17.3061 H   0  0  0  0  0  0  0  0  0  0  0  0
   -7.6335    2.8814  -16.9792 H   0  0  0  0  0  0  0  0  0  0  0  0
   -6.0448    3.1585  -16.2877 H   0  0  0  0  0  0  0  0  0  0  0  0
   -6.3931    3.7189  -17.9383 H   0  0  0  0  0  0  0  0  0  0  0  0
   -9.2747    4.7705  -17.2405 H   0  0  0  0  0  0  0  0  0  0  0  0
   -8.8303    6.4287  -16.7821 H   0  0  0  0  0  0  0  0  0  0  0  0
   -8.1365    5.6666  -18.2314 H   0  0  0  0  0  0  0  0  0  0  0  0
   -8.4917    7.4926   -8.8996 H   0  0  0  0  0  0  0  0  0  0  0  0
  1  2  2  0  0  0  0
  1  3  1  0  0  0  0
  2  4  1  0  0  0  0
  3  5  2  0  0  0  0
  4  6  2  0  0  0  0
  5  6  1  0  0  0  0
  5 12  1  0  0  0  0
  6 20  1  0  0  0  0
  7 18  1  0  0  0  0
  7 19  2  0  0  0  0
  7 22  1  0  0  0  0
  8 10  1  0  0  0  0
  8 13  1  0  0  0  0
  9 12  1  0  0  0  0
  9 13  1  0  0  0  0
 10 18  1  0  0  0  0
 11 13  1  0  0  0  0
 11 18  1  0  0  0  0
 12 21  1  0  0  0  0
 13 20  1  0  0  0  0
 14 17  1  0  0  0  0
 15 17  1  0  0  0  0
 16 17  1  0  0  0  0
 17 22  1  0  0  0  0
  1 23  1  0  0  0  0
  2 24  1  0  0  0  0
  3 25  1  0  0  0  0
  4 26  1  0  0  0  0
  8 27  1  0  0  0  0
  8 28  1  0  0  0  0
  9 29  1  0  0  0  0
  9 30  1  0  0  0  0
 10 31  1  0  0  0  0
 10 32  1  0  0  0  0
 11 33  1  0  0  0  0
 11 34  1  0  0  0  0
 12 35  1  0  0  0  0
 14 36  1  0  0  0  0
 14 37  1  0  0  0  0
 14 38  1  0  0  0  0
 15 39  1  0  0  0  0
 15 40  1  0  0  0  0
 15 41  1  0  0  0  0
 16 42  1  0  0  0  0
 16 43  1  0  0  0  0
 16 44  1  0  0  0  0
 21 45  1  0  0  0  0
M  END
> <id>
EN300-26665948

> <smiles>
CC(C)(C)OC(=O)N1CCC2(C1)CC(O)C=3C=CC=CC3O2

> <IUPAC Name>
tert-butyl 4-hydroxy-3,4-dihydrospiro[1-benzopyran-2,3'-pyrrolidine]-1'-carboxylate

> <CAS>
2413904-68-2

> <URL>
https://www.enaminestore.com/catalog/EN300-26665948

> <ROCS_ShapeQuery>
_x0404_0B

> <ROCS_TanimotoCombo>
0.384 

> <ROCS_ShapeTanimoto>
0.324 

> <ROCS_ColorTanimoto>
0.060 

> <ROCS_RefTversky>
0.293 

> <ROCS_RefColorTversky>
0.065 

> <ROCS_RefTverskyCombo>
0.358 

> <ROCS_FitTversky>
1.504 

> <ROCS_FitColorTversky>
0.415 

> <ROCS_FitTverskyCombo>
1.918 

> <ROCS_ColorScore>
-4.720

> <ROCS_Overlap>
1953.453

> <ROCS_Rank>
230                 

$$$$
untitled-dbase-51860_34
  -OEChem-08212314543D

 51 54  0     1  0  0  0  0  0999 V2000
   -8.0759    4.1542  -17.9320 C   0  0  0  0  0  0  0  0  0  0  0  0
   -8.5994    5.4456  -17.8762 C   0  0  0  0  0  0  0  0  0  0  0  0
   -7.6100    3.5320  -16.7715 C   0  0  0  0  0  0  0  0  0  0  0  0
   -8.6600    6.1216  -16.6593 C   0  0  0  0  0  0  0  0  0  0  0  0
   -7.6764    4.1990  -15.5420 C   0  0  0  0  0  0  0  0  0  0  0  0
   -8.2093    5.4951  -15.4951 C   0  0  0  0  0  0  0  0  0  0  0  0
   -9.3653    4.8432  -11.3328 C   0  0  0  0  0  0  0  0  0  0  0  0
   -9.1164    5.8839  -12.1416 C   0  0  0  0  0  0  0  0  0  0  0  0
   -7.1520    3.5523  -14.3101 C   0  0  0  0  0  0  0  0  0  0  0  0
   -6.7845    3.5569  -10.0676 C   0  0  0  0  0  0  0  0  0  0  0  0
   -9.0428    4.8521   -9.8710 C   0  0  0  0  0  0  0  0  0  0  0  0
   -9.4616    5.9090  -13.5976 C   0  0  0  0  0  0  0  0  0  0  0  0
   -4.5975    1.9302  -12.6147 C   0  0  0  0  0  0  0  0  0  0  0  0
   -5.5256    0.9216  -13.2701 C   0  0  0  0  0  0  0  0  0  0  0  0
   -5.0225    2.2453  -11.1881 C   0  0  0  0  0  0  0  0  0  0  0  0
   -7.3966    1.7160  -11.7202 C   0  0  0  0  0  0  0  0  0  0  0  0
   -8.1852    3.5527   -7.8673 C   0  0  0  0  0  0  0  0  0  0  0  0
   -9.0669    2.2791   -9.2348 C   0  0  0  0  0  0  0  0  0  0  0  0
   -7.0042    1.2900  -13.1413 C   0  0  1  0  0  0  0  0  0  0  0  0
   -8.2416    3.5950   -9.4481 C   0  0  0  0  0  0  0  0  0  0  0  0
   -7.4531    2.2078  -14.1919 N   0  0  0  0  0  0  0  0  0  0  0  0
   -9.4100    2.7366   -7.8770 N   0  0  0  0  0  0  0  0  0  0  0  0
   -6.4408    2.5945  -11.0461 N   0  0  0  0  0  0  0  0  0  0  0  0
   -6.5250    4.2324  -13.5063 O   0  0  0  0  0  0  0  0  0  0  0  0
   -5.9318    4.3603   -9.6448 O   0  0  0  0  0  0  0  0  0  0  0  0
   -8.2610    6.2021  -14.3236 O   0  0  0  0  0  0  0  0  0  0  0  0
   -8.0275    3.6303  -18.8838 H   0  0  0  0  0  0  0  0  0  0  0  0
   -8.9494    5.9266  -18.7840 H   0  0  0  0  0  0  0  0  0  0  0  0
   -7.2116    2.5251  -16.8469 H   0  0  0  0  0  0  0  0  0  0  0  0
   -9.0432    7.1336  -16.6533 H   0  0  0  0  0  0  0  0  0  0  0  0
   -9.7676    3.9207  -11.7546 H   0  0  0  0  0  0  0  0  0  0  0  0
   -8.5801    6.7443  -11.7570 H   0  0  0  0  0  0  0  0  0  0  0  0
   -8.4780    5.7623   -9.6098 H   0  0  0  0  0  0  0  0  0  0  0  0
   -9.9865    4.9304   -9.3037 H   0  0  0  0  0  0  0  0  0  0  0  0
   -9.8847    4.9396  -13.9111 H   0  0  0  0  0  0  0  0  0  0  0  0
  -10.2043    6.7013  -13.7801 H   0  0  0  0  0  0  0  0  0  0  0  0
   -3.5720    1.5392  -12.6138 H   0  0  0  0  0  0  0  0  0  0  0  0
   -4.5791    2.8534  -13.2070 H   0  0  0  0  0  0  0  0  0  0  0  0
   -5.2483    0.7863  -14.3273 H   0  0  0  0  0  0  0  0  0  0  0  0
   -5.3685   -0.0608  -12.7950 H   0  0  0  0  0  0  0  0  0  0  0  0
   -4.8456    1.3661  -10.5326 H   0  0  0  0  0  0  0  0  0  0  0  0
   -4.3709    3.0383  -10.7858 H   0  0  0  0  0  0  0  0  0  0  0  0
   -8.4123    2.1649  -11.7304 H   0  0  0  0  0  0  0  0  0  0  0  0
   -7.4983    0.8129  -11.0817 H   0  0  0  0  0  0  0  0  0  0  0  0
   -7.3119    3.0306   -7.4678 H   0  0  0  0  0  0  0  0  0  0  0  0
   -8.2906    4.5092   -7.3562 H   0  0  0  0  0  0  0  0  0  0  0  0
   -9.9302    2.1268   -9.8934 H   0  0  0  0  0  0  0  0  0  0  0  0
   -8.4753    1.3525   -9.2372 H   0  0  0  0  0  0  0  0  0  0  0  0
   -7.5801    0.3198  -13.3546 H   0  0  0  0  0  0  0  0  0  0  0  0
   -8.0698    1.7836  -14.9272 H   0  0  0  0  0  0  0  0  0  0  0  0
   -9.4446    2.0055   -7.1728 H   0  0  0  0  0  0  0  0  0  0  0  0
  1  2  2  0  0  0  0
  1  3  1  0  0  0  0
  2  4  1  0  0  0  0
  3  5  2  0  0  0  0
  4  6  2  0  0  0  0
  5  6  1  0  0  0  0
  5  9  1  0  0  0  0
  6 26  1  0  0  0  0
  7  8  2  3  0  0  0
  7 11  1  0  0  0  0
  8 12  1  0  0  0  0
  9 21  1  0  0  0  0
  9 24  2  0  0  0  0
 10 20  1  0  0  0  0
 10 23  1  0  0  0  0
 10 25  2  0  0  0  0
 11 20  1  0  0  0  0
 12 26  1  0  0  0  0
 13 14  1  0  0  0  0
 13 15  1  0  0  0  0
 14 19  1  1  0  0  0
 15 23  1  0  0  0  0
 16 19  1  0  0  0  0
 16 23  1  0  0  0  0
 17 20  1  0  0  0  0
 17 22  1  0  0  0  0
 18 20  1  0  0  0  0
 18 22  1  0  0  0  0
 19 21  1  0  0  0  0
  1 27  1  0  0  0  0
  2 28  1  0  0  0  0
  3 29  1  0  0  0  0
  4 30  1  0  0  0  0
  7 31  1  0  0  0  0
  8 32  1  0  0  0  0
 11 33  1  0  0  0  0
 11 34  1  0  0  0  0
 12 35  1  0  0  0  0
 12 36  1  0  0  0  0
 13 37  1  0  0  0  0
 13 38  1  0  0  0  0
 14 39  1  0  0  0  0
 14 40  1  0  0  0  0
 15 41  1  0  0  0  0
 15 42  1  0  0  0  0
 16 43  1  0  0  0  0
 16 44  1  0  0  0  0
 17 45  1  0  0  0  0
 17 46  1  0  0  0  0
 18 47  1  0  0  0  0
 18 48  1  0  0  0  0
 19 49  1  0  0  0  0
 21 50  1  0  0  0  0
 22 51  1  0  0  0  0
M  END
> <id>
EN300-6481219

> <smiles>
OC(=O)C(F)(F)F.O=C1N[C@H]2CCCN(C2)C(=O)C3(CNC3)CC=CCOC=4C=CC=CC14

> <IUPAC Name>
(1'S)-10'-oxa-2',17'-diazaspiro[azetidine-3,15'-tricyclo[15.3.1.0,4,9]henicosane]-4'(9'),5',7',12'-tetraene-3',16'-dione; trifluoroacetic acid

> <CAS>
2648865-49-8

> <URL>
https://www.enaminestore.com/catalog/EN300-6481219

> <Saltdate>
OC(=O)C(F)(F)F

> <ROCS_ShapeQuery>
_x0404_0B

> <ROCS_TanimotoCombo>
0.384 

> <ROCS_ShapeTanimoto>
0.292 

> <ROCS_ColorTanimoto>
0.092 

> <ROCS_RefTversky>
0.276 

> <ROCS_RefColorTversky>
0.098 

> <ROCS_RefTverskyCombo>
0.374 

> <ROCS_FitTversky>
1.264 

> <ROCS_FitColorTversky>
0.577 

> <ROCS_FitTverskyCombo>
1.840 

> <ROCS_ColorScore>
-7.112

> <ROCS_Overlap>
1842.255

> <ROCS_Rank>
231                 

$$$$
untitled-dbase-46859_34
  -OEChem-08212314543D

 51 54  0     1  0  0  0  0  0999 V2000
   -8.0759    4.1542  -17.9320 C   0  0  0  0  0  0  0  0  0  0  0  0
   -8.5994    5.4456  -17.8762 C   0  0  0  0  0  0  0  0  0  0  0  0
   -7.6100    3.5320  -16.7715 C   0  0  0  0  0  0  0  0  0  0  0  0
   -8.6600    6.1216  -16.6593 C   0  0  0  0  0  0  0  0  0  0  0  0
   -7.6764    4.1990  -15.5420 C   0  0  0  0  0  0  0  0  0  0  0  0
   -8.2093    5.4951  -15.4951 C   0  0  0  0  0  0  0  0  0  0  0  0
   -9.3653    4.8432  -11.3328 C   0  0  0  0  0  0  0  0  0  0  0  0
   -9.1164    5.8839  -12.1416 C   0  0  0  0  0  0  0  0  0  0  0  0
   -7.1520    3.5523  -14.3101 C   0  0  0  0  0  0  0  0  0  0  0  0
   -6.7845    3.5569  -10.0676 C   0  0  0  0  0  0  0  0  0  0  0  0
   -9.0428    4.8521   -9.8710 C   0  0  0  0  0  0  0  0  0  0  0  0
   -9.4616    5.9090  -13.5976 C   0  0  0  0  0  0  0  0  0  0  0  0
   -4.5975    1.9302  -12.6147 C   0  0  0  0  0  0  0  0  0  0  0  0
   -5.5256    0.9216  -13.2701 C   0  0  0  0  0  0  0  0  0  0  0  0
   -5.0225    2.2453  -11.1881 C   0  0  0  0  0  0  0  0  0  0  0  0
   -7.3966    1.7160  -11.7202 C   0  0  0  0  0  0  0  0  0  0  0  0
   -8.1852    3.5527   -7.8673 C   0  0  0  0  0  0  0  0  0  0  0  0
   -9.0669    2.2791   -9.2348 C   0  0  0  0  0  0  0  0  0  0  0  0
   -7.0042    1.2900  -13.1413 C   0  0  1  0  0  0  0  0  0  0  0  0
   -8.2416    3.5950   -9.4481 C   0  0  0  0  0  0  0  0  0  0  0  0
   -7.4531    2.2078  -14.1919 N   0  0  0  0  0  0  0  0  0  0  0  0
   -9.4100    2.7366   -7.8770 N   0  0  0  0  0  0  0  0  0  0  0  0
   -6.4408    2.5945  -11.0461 N   0  0  0  0  0  0  0  0  0  0  0  0
   -6.5250    4.2324  -13.5063 O   0  0  0  0  0  0  0  0  0  0  0  0
   -5.9318    4.3603   -9.6448 O   0  0  0  0  0  0  0  0  0  0  0  0
   -8.2610    6.2021  -14.3236 O   0  0  0  0  0  0  0  0  0  0  0  0
   -8.0275    3.6303  -18.8838 H   0  0  0  0  0  0  0  0  0  0  0  0
   -8.9494    5.9266  -18.7840 H   0  0  0  0  0  0  0  0  0  0  0  0
   -7.2116    2.5251  -16.8469 H   0  0  0  0  0  0  0  0  0  0  0  0
   -9.0432    7.1336  -16.6533 H   0  0  0  0  0  0  0  0  0  0  0  0
   -9.7676    3.9207  -11.7546 H   0  0  0  0  0  0  0  0  0  0  0  0
   -8.5801    6.7443  -11.7570 H   0  0  0  0  0  0  0  0  0  0  0  0
   -8.4780    5.7623   -9.6098 H   0  0  0  0  0  0  0  0  0  0  0  0
   -9.9865    4.9304   -9.3037 H   0  0  0  0  0  0  0  0  0  0  0  0
   -9.8847    4.9396  -13.9111 H   0  0  0  0  0  0  0  0  0  0  0  0
  -10.2043    6.7013  -13.7801 H   0  0  0  0  0  0  0  0  0  0  0  0
   -3.5720    1.5392  -12.6138 H   0  0  0  0  0  0  0  0  0  0  0  0
   -4.5791    2.8534  -13.2070 H   0  0  0  0  0  0  0  0  0  0  0  0
   -5.2483    0.7863  -14.3273 H   0  0  0  0  0  0  0  0  0  0  0  0
   -5.3685   -0.0608  -12.7950 H   0  0  0  0  0  0  0  0  0  0  0  0
   -4.8456    1.3661  -10.5326 H   0  0  0  0  0  0  0  0  0  0  0  0
   -4.3709    3.0383  -10.7858 H   0  0  0  0  0  0  0  0  0  0  0  0
   -8.4123    2.1649  -11.7304 H   0  0  0  0  0  0  0  0  0  0  0  0
   -7.4983    0.8129  -11.0817 H   0  0  0  0  0  0  0  0  0  0  0  0
   -7.3119    3.0306   -7.4678 H   0  0  0  0  0  0  0  0  0  0  0  0
   -8.2906    4.5092   -7.3562 H   0  0  0  0  0  0  0  0  0  0  0  0
   -9.9302    2.1268   -9.8934 H   0  0  0  0  0  0  0  0  0  0  0  0
   -8.4753    1.3525   -9.2372 H   0  0  0  0  0  0  0  0  0  0  0  0
   -7.5801    0.3198  -13.3546 H   0  0  0  0  0  0  0  0  0  0  0  0
   -8.0698    1.7836  -14.9272 H   0  0  0  0  0  0  0  0  0  0  0  0
   -9.4446    2.0055   -7.1728 H   0  0  0  0  0  0  0  0  0  0  0  0
  1  2  2  0  0  0  0
  1  3  1  0  0  0  0
  2  4  1  0  0  0  0
  3  5  2  0  0  0  0
  4  6  2  0  0  0  0
  5  6  1  0  0  0  0
  5  9  1  0  0  0  0
  6 26  1  0  0  0  0
  7  8  2  3  0  0  0
  7 11  1  0  0  0  0
  8 12  1  0  0  0  0
  9 21  1  0  0  0  0
  9 24  2  0  0  0  0
 10 20  1  0  0  0  0
 10 23  1  0  0  0  0
 10 25  2  0  0  0  0
 11 20  1  0  0  0  0
 12 26  1  0  0  0  0
 13 14  1  0  0  0  0
 13 15  1  0  0  0  0
 14 19  1  1  0  0  0
 15 23  1  0  0  0  0
 16 19  1  0  0  0  0
 16 23  1  0  0  0  0
 17 20  1  0  0  0  0
 17 22  1  0  0  0  0
 18 20  1  0  0  0  0
 18 22  1  0  0  0  0
 19 21  1  0  0  0  0
  1 27  1  0  0  0  0
  2 28  1  0  0  0  0
  3 29  1  0  0  0  0
  4 30  1  0  0  0  0
  7 31  1  0  0  0  0
  8 32  1  0  0  0  0
 11 33  1  0  0  0  0
 11 34  1  0  0  0  0
 12 35  1  0  0  0  0
 12 36  1  0  0  0  0
 13 37  1  0  0  0  0
 13 38  1  0  0  0  0
 14 39  1  0  0  0  0
 14 40  1  0  0  0  0
 15 41  1  0  0  0  0
 15 42  1  0  0  0  0
 16 43  1  0  0  0  0
 16 44  1  0  0  0  0
 17 45  1  0  0  0  0
 17 46  1  0  0  0  0
 18 47  1  0  0  0  0
 18 48  1  0  0  0  0
 19 49  1  0  0  0  0
 21 50  1  0  0  0  0
 22 51  1  0  0  0  0
M  END
> <id>
EN300-6481220

> <smiles>
O=C1N[C@H]2CCCN(C2)C(=O)C3(CNC3)CC=CCOC=4C=CC=CC14

> <IUPAC Name>
(1'S)-10'-oxa-2',17'-diazaspiro[azetidine-3,15'-tricyclo[15.3.1.0,4,9]henicosane]-4'(9'),5',7',12'-tetraene-3',16'-dione

> <CAS>
2648865-48-7

> <URL>
https://www.enaminestore.com/catalog/EN300-6481220

> <ROCS_ShapeQuery>
_x0404_0B

> <ROCS_TanimotoCombo>
0.384 

> <ROCS_ShapeTanimoto>
0.292 

> <ROCS_ColorTanimoto>
0.092 

> <ROCS_RefTversky>
0.276 

> <ROCS_RefColorTversky>
0.098 

> <ROCS_RefTverskyCombo>
0.374 

> <ROCS_FitTversky>
1.264 

> <ROCS_FitColorTversky>
0.577 

> <ROCS_FitTverskyCombo>
1.840 

> <ROCS_ColorScore>
-7.112

> <ROCS_Overlap>
1842.255

> <ROCS_Rank>
232                 

$$$$
untitled-dbase-45368_245
  -OEChem-08212314543D

 53 54  0     0  0  0  0  0  0999 V2000
   -9.9904    8.5917  -10.4838 C   0  0  0  0  0  0  0  0  0  0  0  0
   -9.1706    7.5689  -10.0168 C   0  0  0  0  0  0  0  0  0  0  0  0
  -10.4473    8.5585  -11.7931 C   0  0  0  0  0  0  0  0  0  0  0  0
   -8.7889    6.5034  -10.8549 C   0  0  0  0  0  0  0  0  0  0  0  0
   -9.2467    6.4606  -12.1894 C   0  0  0  0  0  0  0  0  0  0  0  0
  -10.0821    7.5048  -12.6338 C   0  0  0  0  0  0  0  0  0  0  0  0
   -8.6707    5.6657  -14.4647 C   0  0  0  0  0  0  0  0  0  0  0  0
   -8.7612    3.6548   -8.8037 C   0  0  0  0  0  0  0  0  0  0  0  0
   -7.8887    5.4433  -10.2798 C   0  0  0  0  0  0  0  0  0  0  0  0
   -8.6947    4.0152  -12.5993 C   0  0  0  0  0  0  0  0  0  0  0  0
   -9.2987    3.6242  -11.2521 C   0  0  0  0  0  0  0  0  0  0  0  0
   -7.1489    5.1496  -16.8396 C   0  0  0  0  0  0  0  0  0  0  0  0
   -8.8795    3.4014  -17.3477 C   0  0  0  0  0  0  0  0  0  0  0  0
   -9.5492    5.8173  -17.1966 C   0  0  0  0  0  0  0  0  0  0  0  0
   -8.7019    2.9366   -6.0341 C   0  0  0  0  0  0  0  0  0  0  0  0
   -7.9090    5.2858   -5.6315 C   0  0  0  0  0  0  0  0  0  0  0  0
  -10.1767    4.8858   -6.6343 C   0  0  0  0  0  0  0  0  0  0  0  0
   -8.6096    4.7382  -16.6605 C   0  0  0  0  0  0  0  0  0  0  0  0
   -8.7385    4.3788   -6.5378 C   0  0  0  0  0  0  0  0  0  0  0  0
   -8.9065    5.3885  -13.0934 N   0  0  0  0  0  0  0  0  0  0  0  0
   -8.6169    4.1944  -10.0894 N   0  0  0  0  0  0  0  0  0  0  0  0
   -8.2967    6.7434  -14.9239 O   0  0  0  0  0  0  0  0  0  0  0  0
   -9.3572    2.6098   -8.5499 O   0  0  0  0  0  0  0  0  0  0  0  0
   -8.8659    4.5640  -15.2619 O   0  0  0  0  0  0  0  0  0  0  0  0
   -8.1518    4.4204   -7.8436 O   0  0  0  0  0  0  0  0  0  0  0  0
  -11.0755    7.4522  -14.2753 Br  0  0  0  0  0  0  0  0  0  0  0  0
  -10.2769    9.4052   -9.8249 H   0  0  0  0  0  0  0  0  0  0  0  0
   -8.8196    7.6132   -8.9901 H   0  0  0  0  0  0  0  0  0  0  0  0
  -11.1208    9.3437  -12.1281 H   0  0  0  0  0  0  0  0  0  0  0  0
   -7.0530    5.2562  -10.9508 H   0  0  0  0  0  0  0  0  0  0  0  0
   -7.4772    5.7714   -9.3273 H   0  0  0  0  0  0  0  0  0  0  0  0
   -7.5883    3.8192  -12.5582 H   0  0  0  0  0  0  0  0  0  0  0  0
   -9.0197    3.3029  -13.4102 H   0  0  0  0  0  0  0  0  0  0  0  0
  -10.3517    3.9624  -11.2073 H   0  0  0  0  0  0  0  0  0  0  0  0
   -9.3359    2.5217  -11.1582 H   0  0  0  0  0  0  0  0  0  0  0  0
   -6.9511    6.1087  -16.3477 H   0  0  0  0  0  0  0  0  0  0  0  0
   -6.4653    4.4001  -16.4277 H   0  0  0  0  0  0  0  0  0  0  0  0
   -6.9096    5.2908  -17.8998 H   0  0  0  0  0  0  0  0  0  0  0  0
   -9.9263    3.1023  -17.2218 H   0  0  0  0  0  0  0  0  0  0  0  0
   -8.2748    2.6038  -16.9011 H   0  0  0  0  0  0  0  0  0  0  0  0
   -8.6581    3.4458  -18.4190 H   0  0  0  0  0  0  0  0  0  0  0  0
  -10.5970    5.5225  -17.0682 H   0  0  0  0  0  0  0  0  0  0  0  0
   -9.3950    6.7749  -16.6888 H   0  0  0  0  0  0  0  0  0  0  0  0
   -9.3992    5.9654  -18.2721 H   0  0  0  0  0  0  0  0  0  0  0  0
   -9.2962    2.2824   -6.6820 H   0  0  0  0  0  0  0  0  0  0  0  0
   -7.6786    2.5494   -5.9935 H   0  0  0  0  0  0  0  0  0  0  0  0
   -9.1406    2.8610   -5.0325 H   0  0  0  0  0  0  0  0  0  0  0  0
   -7.9324    6.3215   -5.9892 H   0  0  0  0  0  0  0  0  0  0  0  0
   -6.8559    4.9822   -5.6339 H   0  0  0  0  0  0  0  0  0  0  0  0
   -8.2728    5.2672   -4.5991 H   0  0  0  0  0  0  0  0  0  0  0  0
  -10.2032    5.9203   -6.9956 H   0  0  0  0  0  0  0  0  0  0  0  0
  -10.7776    4.2684   -7.3098 H   0  0  0  0  0  0  0  0  0  0  0  0
  -10.6553    4.8904   -5.6483 H   0  0  0  0  0  0  0  0  0  0  0  0
  1  2  1  0  0  0  0
  1  3  2  0  0  0  0
  2  4  2  0  0  0  0
  3  6  1  0  0  0  0
  4  5  1  0  0  0  0
  4  9  1  0  0  0  0
  5  6  2  0  0  0  0
  5 20  1  0  0  0  0
  6 26  1  0  0  0  0
  7 20  1  0  0  0  0
  7 22  2  0  0  0  0
  7 24  1  0  0  0  0
  8 21  1  0  0  0  0
  8 23  2  0  0  0  0
  8 25  1  0  0  0  0
  9 21  1  0  0  0  0
 10 11  1  0  0  0  0
 10 20  1  0  0  0  0
 11 21  1  0  0  0  0
 12 18  1  0  0  0  0
 13 18  1  0  0  0  0
 14 18  1  0  0  0  0
 15 19  1  0  0  0  0
 16 19  1  0  0  0  0
 17 19  1  0  0  0  0
 18 24  1  0  0  0  0
 19 25  1  0  0  0  0
  1 27  1  0  0  0  0
  2 28  1  0  0  0  0
  3 29  1  0  0  0  0
  9 30  1  0  0  0  0
  9 31  1  0  0  0  0
 10 32  1  0  0  0  0
 10 33  1  0  0  0  0
 11 34  1  0  0  0  0
 11 35  1  0  0  0  0
 12 36  1  0  0  0  0
 12 37  1  0  0  0  0
 12 38  1  0  0  0  0
 13 39  1  0  0  0  0
 13 40  1  0  0  0  0
 13 41  1  0  0  0  0
 14 42  1  0  0  0  0
 14 43  1  0  0  0  0
 14 44  1  0  0  0  0
 15 45  1  0  0  0  0
 15 46  1  0  0  0  0
 15 47  1  0  0  0  0
 16 48  1  0  0  0  0
 16 49  1  0  0  0  0
 16 50  1  0  0  0  0
 17 51  1  0  0  0  0
 17 52  1  0  0  0  0
 17 53  1  0  0  0  0
M  END
> <id>
EN300-28304095

> <smiles>
CC(C)(C)OC(=O)N1CCN(C(=O)OC(C)(C)C)C=2C(Br)=CC=CC2C1

> <IUPAC Name>
1,4-di-tert-butyl 9-bromo-2,3,4,5-tetrahydro-1H-1,4-benzodiazepine-1,4-dicarboxylate

> <CAS>
2680850-86-4

> <URL>
https://www.enaminestore.com/catalog/EN300-28304095

> <ROCS_ShapeQuery>
_x0404_0B

> <ROCS_TanimotoCombo>
0.384 

> <ROCS_ShapeTanimoto>
0.335 

> <ROCS_ColorTanimoto>
0.049 

> <ROCS_RefTversky>
0.305 

> <ROCS_RefColorTversky>
0.054 

> <ROCS_RefTverskyCombo>
0.359 

> <ROCS_FitTversky>
1.414 

> <ROCS_FitColorTversky>
0.371 

> <ROCS_FitTverskyCombo>
1.784 

> <ROCS_ColorScore>
-3.865

> <ROCS_Overlap>
2038.832

> <ROCS_Rank>
233                 

$$$$
untitled-dbase-51881_21
  -OEChem-08212314543D

 41 42  0     0  0  0  0  0  0999 V2000
   -8.8203    3.1888   -9.3999 C   0  0  0  0  0  0  0  0  0  0  0  0
   -8.8518    4.9612   -7.7701 C   0  0  0  0  0  0  0  0  0  0  0  0
   -8.6326    4.1147  -10.4427 C   0  0  0  0  0  0  0  0  0  0  0  0
   -8.5517    5.4877  -10.1330 C   0  0  0  0  0  0  0  0  0  0  0  0
   -8.9320    3.6087   -8.0753 C   0  0  0  0  0  0  0  0  0  0  0  0
   -8.6604    5.8924   -8.7898 C   0  0  0  0  0  0  0  0  0  0  0  0
   -8.5907    5.7849  -14.4677 C   0  0  0  0  0  0  0  0  0  0  0  0
   -8.5045    3.5898  -11.8543 C   0  0  0  0  0  0  0  0  0  0  0  0
   -8.3270    6.5481  -11.1864 C   0  0  0  0  0  0  0  0  0  0  0  0
   -9.5584    4.1494  -12.8092 C   0  0  0  0  0  0  0  0  0  0  0  0
   -9.4070    6.5778  -12.2681 C   0  0  0  0  0  0  0  0  0  0  0  0
   -7.2400    5.8291  -16.9910 C   0  0  0  0  0  0  0  0  0  0  0  0
   -7.9887    3.4429  -17.2244 C   0  0  0  0  0  0  0  0  0  0  0  0
   -9.6949    5.2792  -17.0664 C   0  0  0  0  0  0  0  0  0  0  0  0
   -8.3126    4.8067  -16.6183 C   0  0  0  0  0  0  0  0  0  0  0  0
   -9.2202    5.5070  -13.2458 N   0  0  0  0  0  0  0  0  0  0  0  0
   -9.1289    2.6617   -7.0492 N   0  0  0  0  0  0  0  0  0  0  0  0
   -8.2975    6.9149  -14.8546 O   0  0  0  0  0  0  0  0  0  0  0  0
   -8.3222    4.6547  -15.1942 O   0  0  0  0  0  0  0  0  0  0  0  0
   -8.5419    7.8946   -8.0820 I   0  0  0  0  0  0  0  0  0  0  0  0
   -8.8777    2.1254   -9.6258 H   0  0  0  0  0  0  0  0  0  0  0  0
   -8.9413    5.2700   -6.7304 H   0  0  0  0  0  0  0  0  0  0  0  0
   -7.5188    3.8602  -12.2545 H   0  0  0  0  0  0  0  0  0  0  0  0
   -8.5261    2.4930  -11.8388 H   0  0  0  0  0  0  0  0  0  0  0  0
   -8.2666    7.5230  -10.6830 H   0  0  0  0  0  0  0  0  0  0  0  0
   -7.3736    6.4577  -11.7048 H   0  0  0  0  0  0  0  0  0  0  0  0
   -9.6768    3.5188  -13.6985 H   0  0  0  0  0  0  0  0  0  0  0  0
  -10.5264    4.1615  -12.2988 H   0  0  0  0  0  0  0  0  0  0  0  0
  -10.3848    6.4493  -11.7902 H   0  0  0  0  0  0  0  0  0  0  0  0
   -9.4310    7.5381  -12.7964 H   0  0  0  0  0  0  0  0  0  0  0  0
   -7.4689    6.8094  -16.5578 H   0  0  0  0  0  0  0  0  0  0  0  0
   -6.2490    5.5186  -16.6444 H   0  0  0  0  0  0  0  0  0  0  0  0
   -7.1975    5.9732  -18.0767 H   0  0  0  0  0  0  0  0  0  0  0  0
   -8.7558    2.7061  -16.9596 H   0  0  0  0  0  0  0  0  0  0  0  0
   -7.0411    3.0565  -16.8320 H   0  0  0  0  0  0  0  0  0  0  0  0
   -7.9177    3.4923  -18.3158 H   0  0  0  0  0  0  0  0  0  0  0  0
  -10.4645    4.5460  -16.7992 H   0  0  0  0  0  0  0  0  0  0  0  0
   -9.9598    6.2394  -16.6120 H   0  0  0  0  0  0  0  0  0  0  0  0
   -9.7355    5.3868  -18.1564 H   0  0  0  0  0  0  0  0  0  0  0  0
   -9.1602    2.9711   -6.0987 H   0  0  0  0  0  0  0  0  0  0  0  0
   -9.1395    1.6884   -7.2790 H   0  0  0  0  0  0  0  0  0  0  0  0
  1  3  2  0  0  0  0
  1  5  1  0  0  0  0
  2  5  2  0  0  0  0
  2  6  1  0  0  0  0
  3  4  1  0  0  0  0
  3  8  1  0  0  0  0
  4  6  2  0  0  0  0
  4  9  1  0  0  0  0
  5 17  1  0  0  0  0
  6 20  1  0  0  0  0
  7 16  1  0  0  0  0
  7 18  2  0  0  0  0
  7 19  1  0  0  0  0
  8 10  1  0  0  0  0
  9 11  1  0  0  0  0
 10 16  1  0  0  0  0
 11 16  1  0  0  0  0
 12 15  1  0  0  0  0
 13 15  1  0  0  0  0
 14 15  1  0  0  0  0
 15 19  1  0  0  0  0
  1 21  1  0  0  0  0
  2 22  1  0  0  0  0
  8 23  1  0  0  0  0
  8 24  1  0  0  0  0
  9 25  1  0  0  0  0
  9 26  1  0  0  0  0
 10 27  1  0  0  0  0
 10 28  1  0  0  0  0
 11 29  1  0  0  0  0
 11 30  1  0  0  0  0
 12 31  1  0  0  0  0
 12 32  1  0  0  0  0
 12 33  1  0  0  0  0
 13 34  1  0  0  0  0
 13 35  1  0  0  0  0
 13 36  1  0  0  0  0
 14 37  1  0  0  0  0
 14 38  1  0  0  0  0
 14 39  1  0  0  0  0
 17 40  1  0  0  0  0
 17 41  1  0  0  0  0
M  END
> <id>
EN300-45150852

> <smiles>
CC(C)(C)OC(=O)N1CCC=2C=C(N)C=C(I)C2CC1

> <IUPAC Name>
tert-butyl 8-amino-6-iodo-2,3,4,5-tetrahydro-1H-3-benzazepine-3-carboxylate

> <URL>
https://www.enaminestore.com/catalog/EN300-45150852

> <ROCS_ShapeQuery>
_x0404_0B

> <ROCS_TanimotoCombo>
0.384 

> <ROCS_ShapeTanimoto>
0.321 

> <ROCS_ColorTanimoto>
0.063 

> <ROCS_RefTversky>
0.286 

> <ROCS_RefColorTversky>
0.068 

> <ROCS_RefTverskyCombo>
0.354 

> <ROCS_FitTversky>
1.627 

> <ROCS_FitColorTversky>
0.470 

> <ROCS_FitTverskyCombo>
2.097 

> <ROCS_ColorScore>
-4.903

> <ROCS_Overlap>
1904.542

> <ROCS_Rank>
234                 

$$$$
untitled-dbase-51335_142
  -OEChem-08212314543D

 50 51  0     0  0  0  0  0  0999 V2000
   -8.4983    5.5729  -14.2741 C   0  0  0  0  0  0  0  0  0  0  0  0
   -9.1576    5.0662   -8.8501 C   0  0  0  0  0  0  0  0  0  0  0  0
  -10.1397    4.2485   -8.0097 C   0  0  0  0  0  0  0  0  0  0  0  0
   -7.4835    5.0483  -10.7524 C   0  0  0  0  0  0  0  0  0  0  0  0
   -9.8135    4.0525  -11.0820 C   0  0  0  0  0  0  0  0  0  0  0  0
   -7.9604    5.9494  -11.8852 C   0  0  0  0  0  0  0  0  0  0  0  0
   -9.3442    3.9695  -12.5315 C   0  0  0  0  0  0  0  0  0  0  0  0
   -8.0940    2.9118   -9.5669 C   0  0  0  0  0  0  0  0  0  0  0  0
   -8.6449    4.2692  -10.0752 C   0  0  0  0  0  0  0  0  0  0  0  0
   -9.5736    2.8734   -7.5958 C   0  0  0  0  0  0  0  0  0  0  0  0
  -10.7192    2.0226   -7.0170 C   0  0  0  0  0  0  0  0  0  0  0  0
   -8.4917    3.0170   -6.5085 C   0  0  0  0  0  0  0  0  0  0  0  0
   -7.0841    5.5343  -16.7606 C   0  0  0  0  0  0  0  0  0  0  0  0
   -8.4879    3.5269  -17.3164 C   0  0  0  0  0  0  0  0  0  0  0  0
   -9.5866    5.7505  -16.9204 C   0  0  0  0  0  0  0  0  0  0  0  0
   -8.4245    4.8367  -16.5338 C   0  0  0  0  0  0  0  0  0  0  0  0
   -9.0555    2.1501   -8.7679 N   0  0  0  0  0  0  0  0  0  0  0  0
   -8.6110    5.1719  -12.9393 N   0  0  0  0  0  0  0  0  0  0  0  0
   -8.3684    6.7401  -14.6382 O   0  0  0  0  0  0  0  0  0  0  0  0
   -8.5411    4.5145  -15.1433 O   0  0  0  0  0  0  0  0  0  0  0  0
   -9.6446    5.9932   -9.1721 H   0  0  0  0  0  0  0  0  0  0  0  0
   -8.3114    5.3669   -8.2224 H   0  0  0  0  0  0  0  0  0  0  0  0
  -10.4141    4.8267   -7.1190 H   0  0  0  0  0  0  0  0  0  0  0  0
  -11.0672    4.1161   -8.5804 H   0  0  0  0  0  0  0  0  0  0  0  0
   -6.7346    4.3496  -11.1376 H   0  0  0  0  0  0  0  0  0  0  0  0
   -6.9781    5.6690  -10.0042 H   0  0  0  0  0  0  0  0  0  0  0  0
  -10.5127    4.8929  -10.9997 H   0  0  0  0  0  0  0  0  0  0  0  0
  -10.3891    3.1547  -10.8455 H   0  0  0  0  0  0  0  0  0  0  0  0
   -8.6452    6.7053  -11.4888 H   0  0  0  0  0  0  0  0  0  0  0  0
   -7.1227    6.4849  -12.3443 H   0  0  0  0  0  0  0  0  0  0  0  0
   -8.6709    3.1153  -12.6795 H   0  0  0  0  0  0  0  0  0  0  0  0
  -10.2107    3.7979  -13.1800 H   0  0  0  0  0  0  0  0  0  0  0  0
   -7.7882    2.2757  -10.4066 H   0  0  0  0  0  0  0  0  0  0  0  0
   -7.1742    3.0679   -8.9867 H   0  0  0  0  0  0  0  0  0  0  0  0
  -10.3299    1.0540   -6.7234 H   0  0  0  0  0  0  0  0  0  0  0  0
  -11.4857    1.8960   -7.7735 H   0  0  0  0  0  0  0  0  0  0  0  0
  -11.1362    2.5278   -6.1529 H   0  0  0  0  0  0  0  0  0  0  0  0
   -8.1192    2.0333   -6.2446 H   0  0  0  0  0  0  0  0  0  0  0  0
   -8.9253    3.4913   -5.6350 H   0  0  0  0  0  0  0  0  0  0  0  0
   -7.6801    3.6258   -6.8918 H   0  0  0  0  0  0  0  0  0  0  0  0
   -7.0347    6.4750  -16.2005 H   0  0  0  0  0  0  0  0  0  0  0  0
   -6.2438    4.9028  -16.4544 H   0  0  0  0  0  0  0  0  0  0  0  0
   -6.9534    5.7963  -17.8168 H   0  0  0  0  0  0  0  0  0  0  0  0
   -9.4480    3.0230  -17.1567 H   0  0  0  0  0  0  0  0  0  0  0  0
   -7.7133    2.8306  -16.9754 H   0  0  0  0  0  0  0  0  0  0  0  0
   -8.3574    3.6916  -18.3909 H   0  0  0  0  0  0  0  0  0  0  0  0
  -10.5482    5.2503  -16.7579 H   0  0  0  0  0  0  0  0  0  0  0  0
   -9.5784    6.6801  -16.3421 H   0  0  0  0  0  0  0  0  0  0  0  0
   -9.5457    6.0031  -17.9862 H   0  0  0  0  0  0  0  0  0  0  0  0
   -9.8329    1.8649   -9.3634 H   0  0  0  0  0  0  0  0  0  0  0  0
  1 18  1  0  0  0  0
  1 19  2  0  0  0  0
  1 20  1  0  0  0  0
  2  3  1  0  0  0  0
  2  9  1  0  0  0  0
  3 10  1  0  0  0  0
  4  6  1  0  0  0  0
  4  9  1  0  0  0  0
  5  7  1  0  0  0  0
  5  9  1  0  0  0  0
  6 18  1  0  0  0  0
  7 18  1  0  0  0  0
  8  9  1  0  0  0  0
  8 17  1  0  0  0  0
 10 11  1  0  0  0  0
 10 12  1  0  0  0  0
 10 17  1  0  0  0  0
 13 16  1  0  0  0  0
 14 16  1  0  0  0  0
 15 16  1  0  0  0  0
 16 20  1  0  0  0  0
  2 21  1  0  0  0  0
  2 22  1  0  0  0  0
  3 23  1  0  0  0  0
  3 24  1  0  0  0  0
  4 25  1  0  0  0  0
  4 26  1  0  0  0  0
  5 27  1  0  0  0  0
  5 28  1  0  0  0  0
  6 29  1  0  0  0  0
  6 30  1  0  0  0  0
  7 31  1  0  0  0  0
  7 32  1  0  0  0  0
  8 33  1  0  0  0  0
  8 34  1  0  0  0  0
 11 35  1  0  0  0  0
 11 36  1  0  0  0  0
 11 37  1  0  0  0  0
 12 38  1  0  0  0  0
 12 39  1  0  0  0  0
 12 40  1  0  0  0  0
 13 41  1  0  0  0  0
 13 42  1  0  0  0  0
 13 43  1  0  0  0  0
 14 44  1  0  0  0  0
 14 45  1  0  0  0  0
 14 46  1  0  0  0  0
 15 47  1  0  0  0  0
 15 48  1  0  0  0  0
 15 49  1  0  0  0  0
 17 50  1  0  0  0  0
M  END
> <id>
EN300-43351002

> <smiles>
CC(C)(C)OC(=O)N1CCC2(CC1)CCC(C)(C)NC2

> <IUPAC Name>
tert-butyl 3,3-dimethyl-2,9-diazaspiro[5.5]undecane-9-carboxylate

> <URL>
https://www.enaminestore.com/catalog/EN300-43351002

> <ROCS_ShapeQuery>
_x0404_0B

> <ROCS_TanimotoCombo>
0.384 

> <ROCS_ShapeTanimoto>
0.298 

> <ROCS_ColorTanimoto>
0.086 

> <ROCS_RefTversky>
0.270 

> <ROCS_RefColorTversky>
0.090 

> <ROCS_RefTverskyCombo>
0.360 

> <ROCS_FitTversky>
1.542 

> <ROCS_FitColorTversky>
0.624 

> <ROCS_FitTverskyCombo>
2.166 

> <ROCS_ColorScore>
-6.507

> <ROCS_Overlap>
1801.491

> <ROCS_Rank>
235                 

$$$$
untitled-dbase-46645_0
  -OEChem-08212314543D

 35 36  0     0  0  0  0  0  0999 V2000
   -8.8812    5.5964   -9.5355 C   0  0  0  0  0  0  0  0  0  0  0  0
   -9.0781    2.9237  -10.4503 C   0  0  0  0  0  0  0  0  0  0  0  0
   -8.8112    5.2950  -10.8839 C   0  0  0  0  0  0  0  0  0  0  0  0
   -8.9085    3.9724  -11.3365 C   0  0  0  0  0  0  0  0  0  0  0  0
   -9.0520    4.5441   -8.6331 C   0  0  0  0  0  0  0  0  0  0  0  0
   -9.1498    3.2182   -9.0869 C   0  0  0  0  0  0  0  0  0  0  0  0
   -8.4933    5.8026  -14.4965 C   0  0  0  0  0  0  0  0  0  0  0  0
   -8.6344    6.2268  -12.0360 C   0  0  0  0  0  0  0  0  0  0  0  0
   -8.8033    3.9235  -12.8247 C   0  0  0  0  0  0  0  0  0  0  0  0
   -7.0395    5.8779  -16.9557 C   0  0  0  0  0  0  0  0  0  0  0  0
   -8.4401    3.9052  -17.6309 C   0  0  0  0  0  0  0  0  0  0  0  0
   -9.5384    6.1110  -17.1451 C   0  0  0  0  0  0  0  0  0  0  0  0
   -8.3855    5.1752  -16.7846 C   0  0  0  0  0  0  0  0  0  0  0  0
   -8.6357    5.3349  -13.2005 N   0  0  0  0  0  0  0  0  0  0  0  0
   -8.3546    6.9876  -14.7910 O   0  0  0  0  0  0  0  0  0  0  0  0
   -9.1235    4.8183   -7.2989 O   0  0  0  0  0  0  0  0  0  0  0  0
   -9.3165    2.1998   -8.1951 O   0  0  0  0  0  0  0  0  0  0  0  0
   -8.5255    4.7863  -15.4136 O   0  0  0  0  0  0  0  0  0  0  0  0
   -8.8051    6.6219   -9.1894 H   0  0  0  0  0  0  0  0  0  0  0  0
   -9.1529    1.9010  -10.8053 H   0  0  0  0  0  0  0  0  0  0  0  0
   -9.4636    6.9344  -12.1306 H   0  0  0  0  0  0  0  0  0  0  0  0
   -7.6792    6.7590  -11.9987 H   0  0  0  0  0  0  0  0  0  0  0  0
   -7.9274    3.3601  -13.1601 H   0  0  0  0  0  0  0  0  0  0  0  0
   -9.7140    3.5375  -13.2919 H   0  0  0  0  0  0  0  0  0  0  0  0
   -6.9964    6.7901  -16.3498 H   0  0  0  0  0  0  0  0  0  0  0  0
   -6.2062    5.2291  -16.6672 H   0  0  0  0  0  0  0  0  0  0  0  0
   -6.8909    6.1903  -17.9957 H   0  0  0  0  0  0  0  0  0  0  0  0
   -9.4041    3.3977  -17.5113 H   0  0  0  0  0  0  0  0  0  0  0  0
   -7.6732    3.1902  -17.3117 H   0  0  0  0  0  0  0  0  0  0  0  0
   -8.2917    4.1213  -18.6939 H   0  0  0  0  0  0  0  0  0  0  0  0
  -10.5040    5.6072  -17.0224 H   0  0  0  0  0  0  0  0  0  0  0  0
   -9.5369    7.0114  -16.5222 H   0  0  0  0  0  0  0  0  0  0  0  0
   -9.4795    6.4149  -18.1965 H   0  0  0  0  0  0  0  0  0  0  0  0
   -9.2418    3.9981   -6.7957 H   0  0  0  0  0  0  0  0  0  0  0  0
   -9.3659    1.3519   -8.6626 H   0  0  0  0  0  0  0  0  0  0  0  0
  1  3  2  0  0  0  0
  1  5  1  0  0  0  0
  2  4  2  0  0  0  0
  2  6  1  0  0  0  0
  3  4  1  0  0  0  0
  3  8  1  0  0  0  0
  4  9  1  0  0  0  0
  5  6  2  0  0  0  0
  5 16  1  0  0  0  0
  6 17  1  0  0  0  0
  7 14  1  0  0  0  0
  7 15  2  0  0  0  0
  7 18  1  0  0  0  0
  8 14  1  0  0  0  0
  9 14  1  0  0  0  0
 10 13  1  0  0  0  0
 11 13  1  0  0  0  0
 12 13  1  0  0  0  0
 13 18  1  0  0  0  0
  1 19  1  0  0  0  0
  2 20  1  0  0  0  0
  8 21  1  0  0  0  0
  8 22  1  0  0  0  0
  9 23  1  0  0  0  0
  9 24  1  0  0  0  0
 10 25  1  0  0  0  0
 10 26  1  0  0  0  0
 10 27  1  0  0  0  0
 11 28  1  0  0  0  0
 11 29  1  0  0  0  0
 11 30  1  0  0  0  0
 12 31  1  0  0  0  0
 12 32  1  0  0  0  0
 12 33  1  0  0  0  0
 16 34  1  0  0  0  0
 17 35  1  0  0  0  0
M  END
> <id>
EN300-12462224

> <smiles>
CC(C)(C)OC(=O)N1CC=2C=C(O)C(O)=CC2C1

> <MDLNUMBER>
MFCD24468039

> <IUPAC Name>
tert-butyl 5,6-dihydroxy-2,3-dihydro-1H-isoindole-2-carboxylate

> <CAS>
156422-96-7

> <Purity>
95

> <URL>
https://www.enaminestore.com/catalog/EN300-12462224

> <ROCS_ShapeQuery>
_x0404_0B

> <ROCS_TanimotoCombo>
0.384 

> <ROCS_ShapeTanimoto>
0.316 

> <ROCS_ColorTanimoto>
0.067 

> <ROCS_RefTversky>
0.281 

> <ROCS_RefColorTversky>
0.073 

> <ROCS_RefTverskyCombo>
0.354 

> <ROCS_FitTversky>
1.671 

> <ROCS_FitColorTversky>
0.464 

> <ROCS_FitTverskyCombo>
2.135 

> <ROCS_ColorScore>
-5.286

> <ROCS_Overlap>
1871.514

> <ROCS_Rank>
236                 

$$$$
untitled-dbase-43596_134
  -OEChem-08212314543D

 43 44  0     1  0  0  0  0  0999 V2000
   -8.6354    5.7265  -14.4203 C   0  0  0  0  0  0  0  0  0  0  0  0
  -10.0412    4.3783   -8.1258 C   0  0  0  0  0  0  0  0  0  0  0  0
   -9.6162    5.5461   -9.0067 C   0  0  0  0  0  0  0  0  0  0  0  0
   -7.8382    5.9195  -10.8026 C   0  0  0  0  0  0  0  0  0  0  0  0
   -9.6773    4.1781  -11.1460 C   0  0  0  0  0  0  0  0  0  0  0  0
   -7.9409    3.8799   -9.2914 C   0  0  0  0  0  0  0  0  0  0  0  0
   -8.4524    6.4945  -12.0729 C   0  0  0  0  0  0  0  0  0  0  0  0
   -9.0549    4.1114  -12.5375 C   0  0  0  0  0  0  0  0  0  0  0  0
   -8.8558    3.4138   -8.1527 C   0  0  2  0  0  0  0  0  0  0  0  0
   -8.7653    4.8953  -10.1147 C   0  0  0  0  0  0  0  0  0  0  0  0
   -7.4165    5.2778  -16.9693 C   0  0  0  0  0  0  0  0  0  0  0  0
   -9.1679    3.5058  -17.2887 C   0  0  0  0  0  0  0  0  0  0  0  0
   -9.8534    5.9059  -17.0095 C   0  0  0  0  0  0  0  0  0  0  0  0
   -8.8359    4.8360  -16.6159 C   0  0  0  0  0  0  0  0  0  0  0  0
   -8.7232    5.4435  -13.0538 N   0  0  0  0  0  0  0  0  0  0  0  0
   -8.3383    6.8267  -14.8817 O   0  0  0  0  0  0  0  0  0  0  0  0
   -9.3012    2.0874   -8.3957 O   0  0  0  0  0  0  0  0  0  0  0  0
   -8.9112    4.6340  -15.2000 O   0  0  0  0  0  0  0  0  0  0  0  0
  -10.2040    4.7289   -7.1032 H   0  0  0  0  0  0  0  0  0  0  0  0
  -10.9706    3.9279   -8.4782 H   0  0  0  0  0  0  0  0  0  0  0  0
  -10.5092    6.0085   -9.4375 H   0  0  0  0  0  0  0  0  0  0  0  0
   -9.0899    6.3108   -8.4369 H   0  0  0  0  0  0  0  0  0  0  0  0
   -6.8932    5.4300  -11.0667 H   0  0  0  0  0  0  0  0  0  0  0  0
   -7.5828    6.7432  -10.1294 H   0  0  0  0  0  0  0  0  0  0  0  0
  -10.6493    4.6829  -11.2080 H   0  0  0  0  0  0  0  0  0  0  0  0
   -9.8819    3.1573  -10.7962 H   0  0  0  0  0  0  0  0  0  0  0  0
   -7.0091    4.3121   -8.9004 H   0  0  0  0  0  0  0  0  0  0  0  0
   -7.6439    3.0203   -9.9122 H   0  0  0  0  0  0  0  0  0  0  0  0
   -9.4067    6.9880  -11.8588 H   0  0  0  0  0  0  0  0  0  0  0  0
   -7.7854    7.2580  -12.4829 H   0  0  0  0  0  0  0  0  0  0  0  0
   -8.1591    3.4782  -12.5108 H   0  0  0  0  0  0  0  0  0  0  0  0
   -9.7482    3.6502  -13.2543 H   0  0  0  0  0  0  0  0  0  0  0  0
   -8.3311    3.4267   -7.1937 H   0  0  0  0  0  0  0  0  0  0  0  0
   -7.1744    6.2323  -16.4883 H   0  0  0  0  0  0  0  0  0  0  0  0
   -6.6741    4.5347  -16.6605 H   0  0  0  0  0  0  0  0  0  0  0  0
   -7.3150    5.4409  -18.0483 H   0  0  0  0  0  0  0  0  0  0  0  0
  -10.1854    3.1850  -17.0379 H   0  0  0  0  0  0  0  0  0  0  0  0
   -8.4985    2.7126  -16.9365 H   0  0  0  0  0  0  0  0  0  0  0  0
   -9.0839    3.5721  -18.3782 H   0  0  0  0  0  0  0  0  0  0  0  0
  -10.8717    5.5892  -16.7561 H   0  0  0  0  0  0  0  0  0  0  0  0
   -9.6525    6.8577  -16.5072 H   0  0  0  0  0  0  0  0  0  0  0  0
   -9.8425    6.0744  -18.0924 H   0  0  0  0  0  0  0  0  0  0  0  0
   -9.9078    1.8549   -7.6727 H   0  0  0  0  0  0  0  0  0  0  0  0
  1 15  1  0  0  0  0
  1 16  2  0  0  0  0
  1 18  1  0  0  0  0
  2  3  1  0  0  0  0
  2  9  1  0  0  0  0
  3 10  1  0  0  0  0
  4  7  1  0  0  0  0
  4 10  1  0  0  0  0
  5  8  1  0  0  0  0
  5 10  1  0  0  0  0
  6  9  1  0  0  0  0
  6 10  1  0  0  0  0
  7 15  1  0  0  0  0
  8 15  1  0  0  0  0
  9 17  1  0  0  0  0
 11 14  1  0  0  0  0
 12 14  1  0  0  0  0
 13 14  1  0  0  0  0
 14 18  1  0  0  0  0
  2 19  1  0  0  0  0
  2 20  1  0  0  0  0
  3 21  1  0  0  0  0
  3 22  1  0  0  0  0
  4 23  1  0  0  0  0
  4 24  1  0  0  0  0
  5 25  1  0  0  0  0
  5 26  1  0  0  0  0
  6 27  1  0  0  0  0
  6 28  1  0  0  0  0
  7 29  1  0  0  0  0
  7 30  1  0  0  0  0
  8 31  1  0  0  0  0
  8 32  1  0  0  0  0
  9 33  1  0  0  0  0
 11 34  1  0  0  0  0
 11 35  1  0  0  0  0
 11 36  1  0  0  0  0
 12 37  1  0  0  0  0
 12 38  1  0  0  0  0
 12 39  1  0  0  0  0
 13 40  1  0  0  0  0
 13 41  1  0  0  0  0
 13 42  1  0  0  0  0
 17 43  1  0  0  0  0
M  END
> <id>
EN300-1668514

> <smiles>
CC(C)(C)OC(=O)N1CCC2(CCC(O)C2)CC1

> <MDLNUMBER>
MFCD25509358

> <IUPAC Name>
tert-butyl 2-hydroxy-8-azaspiro[4.5]decane-8-carboxylate

> <CAS>
1341038-53-6

> <URL>
https://www.enaminestore.com/catalog/EN300-1668514

> <ROCS_ShapeQuery>
_x0404_0B

> <ROCS_TanimotoCombo>
0.384 

> <ROCS_ShapeTanimoto>
0.296 

> <ROCS_ColorTanimoto>
0.088 

> <ROCS_RefTversky>
0.266 

> <ROCS_RefColorTversky>
0.091 

> <ROCS_RefTverskyCombo>
0.357 

> <ROCS_FitTversky>
1.625 

> <ROCS_FitColorTversky>
0.694 

> <ROCS_FitTverskyCombo>
2.319 

> <ROCS_ColorScore>
-6.576

> <ROCS_Overlap>
1771.643

> <ROCS_Rank>
237                 

$$$$
untitled-dbase-34340_99
  -OEChem-08212314543D

 48 50  0     1  0  0  0  0  0999 V2000
   -9.4318    3.0935   -7.2085 C   0  0  0  0  0  0  0  0  0  0  0  0
   -9.1313    2.0690   -8.0770 C   0  0  0  0  0  0  0  0  0  0  0  0
   -9.3249    4.3714   -7.8315 C   0  0  0  0  0  0  0  0  0  0  0  0
   -8.9400    4.2762   -9.1590 C   0  0  0  0  0  0  0  0  0  0  0  0
   -8.1267    5.7045  -14.4666 C   0  0  0  0  0  0  0  0  0  0  0  0
   -9.5641    5.6954   -7.1836 C   0  0  0  0  0  0  0  0  0  0  0  0
   -7.3768    5.4319  -10.8132 C   0  0  0  0  0  0  0  0  0  0  0  0
   -9.9103    5.5186  -11.1405 C   0  0  0  0  0  0  0  0  0  0  0  0
   -9.7777    6.7867   -8.2384 C   0  0  0  0  0  0  0  0  0  0  0  0
   -7.4468    4.8860  -12.2371 C   0  0  0  0  0  0  0  0  0  0  0  0
   -9.5626    6.2390  -12.4546 C   0  0  1  0  0  0  0  0  0  0  0  0
   -8.7587    5.4764  -10.0956 C   0  0  1  0  0  0  0  0  0  0  0  0
   -9.4078    7.7524  -12.2829 C   0  0  0  0  0  0  0  0  0  0  0  0
   -6.3031    5.7459  -16.6714 C   0  0  0  0  0  0  0  0  0  0  0  0
   -6.5127    3.2429  -16.6527 C   0  0  0  0  0  0  0  0  0  0  0  0
   -8.5331    4.6637  -17.1078 C   0  0  0  0  0  0  0  0  0  0  0  0
   -7.2139    4.5638  -16.3433 C   0  0  0  0  0  0  0  0  0  0  0  0
   -8.7475    6.7344   -9.2864 N   0  0  0  0  0  0  0  0  0  0  0  0
   -8.3657    5.6473  -13.0861 N   0  0  0  0  0  0  0  0  0  0  0  0
   -8.4400    6.6528  -15.1842 O   0  0  0  0  0  0  0  0  0  0  0  0
   -7.4977    4.5831  -14.9398 O   0  0  0  0  0  0  0  0  0  0  0  0
   -8.7254    2.6459   -9.6336 S   0  0  0  0  0  0  0  0  0  0  0  0
   -9.7156    2.9321   -6.1763 H   0  0  0  0  0  0  0  0  0  0  0  0
   -9.1334    1.0081   -7.8702 H   0  0  0  0  0  0  0  0  0  0  0  0
  -10.4377    5.6463   -6.5237 H   0  0  0  0  0  0  0  0  0  0  0  0
   -8.6941    5.9449   -6.5631 H   0  0  0  0  0  0  0  0  0  0  0  0
   -6.6705    4.8044  -10.2500 H   0  0  0  0  0  0  0  0  0  0  0  0
   -6.9294    6.4376  -10.8319 H   0  0  0  0  0  0  0  0  0  0  0  0
  -10.8191    5.9455  -10.7091 H   0  0  0  0  0  0  0  0  0  0  0  0
  -10.1745    4.4885  -11.4055 H   0  0  0  0  0  0  0  0  0  0  0  0
  -10.7792    6.7105   -8.6773 H   0  0  0  0  0  0  0  0  0  0  0  0
   -9.7288    7.7648   -7.7456 H   0  0  0  0  0  0  0  0  0  0  0  0
   -6.4631    4.8983  -12.7231 H   0  0  0  0  0  0  0  0  0  0  0  0
   -7.7549    3.8333  -12.2003 H   0  0  0  0  0  0  0  0  0  0  0  0
  -10.4049    6.0992  -13.0938 H   0  0  0  0  0  0  0  0  0  0  0  0
   -8.5587    7.9630  -11.6361 H   0  0  0  0  0  0  0  0  0  0  0  0
  -10.3099    8.1648  -11.8362 H   0  0  0  0  0  0  0  0  0  0  0  0
   -9.2434    8.2165  -13.2531 H   0  0  0  0  0  0  0  0  0  0  0  0
   -6.8028    6.6959  -16.4507 H   0  0  0  0  0  0  0  0  0  0  0  0
   -5.3680    5.7046  -16.1033 H   0  0  0  0  0  0  0  0  0  0  0  0
   -6.0584    5.7662  -17.7396 H   0  0  0  0  0  0  0  0  0  0  0  0
   -7.1626    2.3920  -16.4187 H   0  0  0  0  0  0  0  0  0  0  0  0
   -5.6145    3.1240  -16.0360 H   0  0  0  0  0  0  0  0  0  0  0  0
   -6.2212    3.1773  -17.7059 H   0  0  0  0  0  0  0  0  0  0  0  0
   -9.1867    3.8159  -16.8725 H   0  0  0  0  0  0  0  0  0  0  0  0
   -9.0681    5.5889  -16.8698 H   0  0  0  0  0  0  0  0  0  0  0  0
   -8.3601    4.6300  -18.1895 H   0  0  0  0  0  0  0  0  0  0  0  0
   -8.8116    7.5552   -9.8772 H   0  0  0  0  0  0  0  0  0  0  0  0
  1  2  2  0  0  0  0
  1  3  1  0  0  0  0
  2 22  1  0  0  0  0
  3  4  2  0  0  0  0
  3  6  1  0  0  0  0
  4 12  1  0  0  0  0
  4 22  1  0  0  0  0
  5 19  1  0  0  0  0
  5 20  2  0  0  0  0
  5 21  1  0  0  0  0
  6  9  1  0  0  0  0
  7 10  1  0  0  0  0
  7 12  1  0  0  0  0
  8 11  1  0  0  0  0
  8 12  1  0  0  0  0
  9 18  1  0  0  0  0
 10 19  1  0  0  0  0
 11 13  1  0  0  0  0
 11 19  1  0  0  0  0
 12 18  1  0  0  0  0
 14 17  1  0  0  0  0
 15 17  1  0  0  0  0
 16 17  1  0  0  0  0
 17 21  1  0  0  0  0
  1 23  1  0  0  0  0
  2 24  1  0  0  0  0
  6 25  1  0  0  0  0
  6 26  1  0  0  0  0
  7 27  1  0  0  0  0
  7 28  1  0  0  0  0
  8 29  1  0  0  0  0
  8 30  1  0  0  0  0
  9 31  1  0  0  0  0
  9 32  1  0  0  0  0
 10 33  1  0  0  0  0
 10 34  1  0  0  0  0
 11 35  1  0  0  0  0
 13 36  1  0  0  0  0
 13 37  1  0  0  0  0
 13 38  1  0  0  0  0
 14 39  1  0  0  0  0
 14 40  1  0  0  0  0
 14 41  1  0  0  0  0
 15 42  1  0  0  0  0
 15 43  1  0  0  0  0
 15 44  1  0  0  0  0
 16 45  1  0  0  0  0
 16 46  1  0  0  0  0
 16 47  1  0  0  0  0
 18 48  1  0  0  0  0
M  END
> <id>
EN300-1075808

> <smiles>
CC1CC2(CCN1C(=O)OC(C)(C)C)NCCC=3C=CSC32

> <IUPAC Name>
tert-butyl 6-methyl-5',6'-dihydro-4'H-spiro[piperidine-4,7'-thieno[2,3-c]pyridine]-1-carboxylate

> <CAS>
2137457-52-2

> <URL>
https://www.enaminestore.com/catalog/EN300-1075808

> <ROCS_ShapeQuery>
_x0404_0B

> <ROCS_TanimotoCombo>
0.384 

> <ROCS_ShapeTanimoto>
0.310 

> <ROCS_ColorTanimoto>
0.074 

> <ROCS_RefTversky>
0.281 

> <ROCS_RefColorTversky>
0.079 

> <ROCS_RefTverskyCombo>
0.360 

> <ROCS_FitTversky>
1.485 

> <ROCS_FitColorTversky>
0.543 

> <ROCS_FitTverskyCombo>
2.028 

> <ROCS_ColorScore>
-5.669

> <ROCS_Overlap>
1878.269

> <ROCS_Rank>
238                 

$$$$
untitled-dbase-13421_20
  -OEChem-08212314543D

 46 48  0     1  0  0  0  0  0999 V2000
   -8.8895    5.7078  -17.8825 C   0  0  0  0  0  0  0  0  0  0  0  0
   -7.7030    5.0941  -17.4924 C   0  0  0  0  0  0  0  0  0  0  0  0
   -9.8598    6.0171  -16.9291 C   0  0  0  0  0  0  0  0  0  0  0  0
   -7.4865    4.7923  -16.1494 C   0  0  0  0  0  0  0  0  0  0  0  0
   -9.6539    5.7225  -15.5708 C   0  0  0  0  0  0  0  0  0  0  0  0
   -8.4523    5.1118  -15.1892 C   0  0  0  0  0  0  0  0  0  0  0  0
   -8.9722    5.0777   -9.1725 C   0  0  0  0  0  0  0  0  0  0  0  0
   -8.3535    6.6871  -12.4371 C   0  0  0  0  0  0  0  0  0  0  0  0
  -10.4398    5.3357  -13.2398 C   0  0  0  0  0  0  0  0  0  0  0  0
   -8.7653    6.8276  -10.9809 C   0  0  0  0  0  0  0  0  0  0  0  0
   -8.7337    4.5009  -11.5883 C   0  0  0  0  0  0  0  0  0  0  0  0
  -10.7270    6.0526  -14.5635 C   0  0  1  0  0  0  0  0  0  0  0  0
   -8.9456    5.3305  -12.8694 C   0  0  2  0  0  0  0  0  0  0  0  0
  -10.4544    3.7570   -7.1159 C   0  0  0  0  0  0  0  0  0  0  0  0
   -9.1583    1.7029   -7.7561 C   0  0  0  0  0  0  0  0  0  0  0  0
   -7.9501    3.7177   -6.8678 C   0  0  0  0  0  0  0  0  0  0  0  0
   -9.1410    3.2286   -7.6908 C   0  0  0  0  0  0  0  0  0  0  0  0
   -8.8319    5.4569  -10.4962 N   0  0  0  0  0  0  0  0  0  0  0  0
  -10.8558    7.4971  -14.3634 N   0  0  0  0  0  0  0  0  0  0  0  0
   -9.0586    5.8659   -8.2337 O   0  0  0  0  0  0  0  0  0  0  0  0
   -8.1446    4.7525  -13.9043 O   0  0  0  0  0  0  0  0  0  0  0  0
   -9.0008    3.7161   -9.0299 O   0  0  0  0  0  0  0  0  0  0  0  0
   -9.0602    5.9457  -18.9278 H   0  0  0  0  0  0  0  0  0  0  0  0
   -6.9510    4.8418  -18.2344 H   0  0  0  0  0  0  0  0  0  0  0  0
  -10.7796    6.4934  -17.2581 H   0  0  0  0  0  0  0  0  0  0  0  0
   -6.5651    4.2935  -15.8573 H   0  0  0  0  0  0  0  0  0  0  0  0
   -8.7887    7.5090  -13.0232 H   0  0  0  0  0  0  0  0  0  0  0  0
   -7.2615    6.7234  -12.5439 H   0  0  0  0  0  0  0  0  0  0  0  0
  -10.9934    5.8347  -12.4186 H   0  0  0  0  0  0  0  0  0  0  0  0
  -10.8315    4.3009  -13.2797 H   0  0  0  0  0  0  0  0  0  0  0  0
   -8.0058    7.3511  -10.3924 H   0  0  0  0  0  0  0  0  0  0  0  0
   -9.7253    7.3325  -10.8503 H   0  0  0  0  0  0  0  0  0  0  0  0
   -9.5294    3.7594  -11.4410 H   0  0  0  0  0  0  0  0  0  0  0  0
   -7.7618    3.9957  -11.5445 H   0  0  0  0  0  0  0  0  0  0  0  0
  -11.6770    5.6850  -14.9818 H   0  0  0  0  0  0  0  0  0  0  0  0
  -10.4460    4.8518   -7.0674 H   0  0  0  0  0  0  0  0  0  0  0  0
  -11.3135    3.4422   -7.7172 H   0  0  0  0  0  0  0  0  0  0  0  0
  -10.6023    3.4033   -6.0892 H   0  0  0  0  0  0  0  0  0  0  0  0
   -8.2178    1.3194   -8.1680 H   0  0  0  0  0  0  0  0  0  0  0  0
   -9.9537    1.3497   -8.4223 H   0  0  0  0  0  0  0  0  0  0  0  0
   -9.3108    1.2579   -6.7675 H   0  0  0  0  0  0  0  0  0  0  0  0
   -7.0079    3.3388   -7.2800 H   0  0  0  0  0  0  0  0  0  0  0  0
   -7.9005    4.8111   -6.8407 H   0  0  0  0  0  0  0  0  0  0  0  0
   -8.0089    3.3461   -5.8384 H   0  0  0  0  0  0  0  0  0  0  0  0
  -11.0413    7.9120  -15.2439 H   0  0  0  0  0  0  0  0  0  0  0  0
  -11.6049    7.6519  -13.7335 H   0  0  0  0  0  0  0  0  0  0  0  0
  1  2  2  0  0  0  0
  1  3  1  0  0  0  0
  2  4  1  0  0  0  0
  3  5  2  0  0  0  0
  4  6  2  0  0  0  0
  5  6  1  0  0  0  0
  5 12  1  0  0  0  0
  6 21  1  0  0  0  0
  7 18  1  0  0  0  0
  7 20  2  0  0  0  0
  7 22  1  0  0  0  0
  8 10  1  0  0  0  0
  8 13  1  0  0  0  0
  9 12  1  0  0  0  0
  9 13  1  0  0  0  0
 10 18  1  0  0  0  0
 11 13  1  0  0  0  0
 11 18  1  0  0  0  0
 12 19  1  0  0  0  0
 13 21  1  0  0  0  0
 14 17  1  0  0  0  0
 15 17  1  0  0  0  0
 16 17  1  0  0  0  0
 17 22  1  0  0  0  0
  1 23  1  0  0  0  0
  2 24  1  0  0  0  0
  3 25  1  0  0  0  0
  4 26  1  0  0  0  0
  8 27  1  0  0  0  0
  8 28  1  0  0  0  0
  9 29  1  0  0  0  0
  9 30  1  0  0  0  0
 10 31  1  0  0  0  0
 10 32  1  0  0  0  0
 11 33  1  0  0  0  0
 11 34  1  0  0  0  0
 12 35  1  0  0  0  0
 14 36  1  0  0  0  0
 14 37  1  0  0  0  0
 14 38  1  0  0  0  0
 15 39  1  0  0  0  0
 15 40  1  0  0  0  0
 15 41  1  0  0  0  0
 16 42  1  0  0  0  0
 16 43  1  0  0  0  0
 16 44  1  0  0  0  0
 19 45  1  0  0  0  0
 19 46  1  0  0  0  0
M  END
> <id>
EN300-746890

> <smiles>
CC(C)(C)OC(=O)N1CCC2(C1)CC(N)C=3C=CC=CC3O2

> <MDLNUMBER>
MFCD31456972

> <IUPAC Name>
tert-butyl 4-amino-3,4-dihydrospiro[1-benzopyran-2,3'-pyrrolidine]-1'-carboxylate

> <CAS>
2137917-15-6

> <Purity>
95

> <URL>
https://www.enaminestore.com/catalog/EN300-746890

> <ROCS_ShapeQuery>
_x0404_0B

> <ROCS_TanimotoCombo>
0.384 

> <ROCS_ShapeTanimoto>
0.331 

> <ROCS_ColorTanimoto>
0.052 

> <ROCS_RefTversky>
0.297 

> <ROCS_RefColorTversky>
0.057 

> <ROCS_RefTverskyCombo>
0.355 

> <ROCS_FitTversky>
1.530 

> <ROCS_FitColorTversky>
0.364 

> <ROCS_FitTverskyCombo>
1.894 

> <ROCS_ColorScore>
-4.141

> <ROCS_Overlap>
1984.433

> <ROCS_Rank>
239                 

$$$$
untitled-dbase-50827_255
  -OEChem-08212314543D

 52 53  0     1  0  0  0  0  0999 V2000
   -6.7548    4.0438  -11.8659 C   0  0  0  0  0  0  0  0  0  0  0  0
   -8.7946    5.7443  -14.4680 C   0  0  0  0  0  0  0  0  0  0  0  0
   -9.2710    5.3147   -8.9811 C   0  0  0  0  0  0  0  0  0  0  0  0
   -6.5554    5.3681  -11.1513 C   0  0  0  0  0  0  0  0  0  0  0  0
   -7.9362    3.1921  -11.4376 C   0  0  0  0  0  0  0  0  0  0  0  0
   -8.4873    6.6720  -12.1889 C   0  0  0  0  0  0  0  0  0  0  0  0
   -9.8121    4.5790  -12.4703 C   0  0  0  0  0  0  0  0  0  0  0  0
   -7.8832    6.0944  -10.8996 C   0  0  1  0  0  0  0  0  0  0  0  0
   -9.1909    4.0351  -11.1723 C   0  0  2  0  0  0  0  0  0  0  0  0
   -7.6709    4.7610  -16.9093 C   0  0  0  0  0  0  0  0  0  0  0  0
   -9.8134    3.4743  -17.1609 C   0  0  0  0  0  0  0  0  0  0  0  0
   -9.8599    5.9851  -17.1198 C   0  0  0  0  0  0  0  0  0  0  0  0
   -8.3899    3.9999   -7.0056 C   0  0  0  0  0  0  0  0  0  0  0  0
  -10.8086    3.7128   -6.3921 C   0  0  0  0  0  0  0  0  0  0  0  0
   -9.7085    2.0719   -7.9431 C   0  0  0  0  0  0  0  0  0  0  0  0
   -9.1645    4.7326  -16.5883 C   0  0  0  0  0  0  0  0  0  0  0  0
   -9.7613    3.5298   -7.4883 C   0  0  0  0  0  0  0  0  0  0  0  0
   -8.9914    5.6302  -13.0876 N   0  0  0  0  0  0  0  0  0  0  0  0
   -8.8341    5.1584  -10.2964 N   0  0  0  0  0  0  0  0  0  0  0  0
   -5.9312    3.6284  -12.6810 O   0  0  0  0  0  0  0  0  0  0  0  0
   -8.2116    6.6820  -15.0094 O   0  0  0  0  0  0  0  0  0  0  0  0
   -8.9092    6.2222   -8.2345 O   0  0  0  0  0  0  0  0  0  0  0  0
   -9.3242    4.6913  -15.1656 O   0  0  0  0  0  0  0  0  0  0  0  0
  -10.1552    4.3406   -8.6012 O   0  0  0  0  0  0  0  0  0  0  0  0
   -6.0577    5.1528  -10.1987 H   0  0  0  0  0  0  0  0  0  0  0  0
   -5.8851    5.9953  -11.7492 H   0  0  0  0  0  0  0  0  0  0  0  0
   -8.1350    2.4466  -12.2153 H   0  0  0  0  0  0  0  0  0  0  0  0
   -7.6411    2.6602  -10.5257 H   0  0  0  0  0  0  0  0  0  0  0  0
   -9.3431    7.3131  -11.9430 H   0  0  0  0  0  0  0  0  0  0  0  0
   -7.7551    7.3014  -12.7061 H   0  0  0  0  0  0  0  0  0  0  0  0
   -9.9925    3.7581  -13.1708 H   0  0  0  0  0  0  0  0  0  0  0  0
  -10.7860    5.0345  -12.2520 H   0  0  0  0  0  0  0  0  0  0  0  0
   -7.6927    6.9264  -10.2121 H   0  0  0  0  0  0  0  0  0  0  0  0
   -9.9349    3.3930  -10.6901 H   0  0  0  0  0  0  0  0  0  0  0  0
   -7.2015    5.6628  -16.5000 H   0  0  0  0  0  0  0  0  0  0  0  0
   -7.1543    3.8852  -16.5033 H   0  0  0  0  0  0  0  0  0  0  0  0
   -7.5041    4.7901  -17.9922 H   0  0  0  0  0  0  0  0  0  0  0  0
  -10.8852    3.4498  -16.9329 H   0  0  0  0  0  0  0  0  0  0  0  0
   -9.3814    2.5731  -16.7109 H   0  0  0  0  0  0  0  0  0  0  0  0
   -9.6884    3.4136  -18.2468 H   0  0  0  0  0  0  0  0  0  0  0  0
  -10.9313    5.9650  -16.8896 H   0  0  0  0  0  0  0  0  0  0  0  0
   -9.4315    6.8969  -16.6911 H   0  0  0  0  0  0  0  0  0  0  0  0
   -9.7792    6.0422  -18.2113 H   0  0  0  0  0  0  0  0  0  0  0  0
   -7.6353    3.8701   -7.7896 H   0  0  0  0  0  0  0  0  0  0  0  0
   -8.4060    5.0538   -6.7094 H   0  0  0  0  0  0  0  0  0  0  0  0
   -8.0516    3.4049   -6.1495 H   0  0  0  0  0  0  0  0  0  0  0  0
  -11.7942    3.3768   -6.7341 H   0  0  0  0  0  0  0  0  0  0  0  0
  -10.9175    4.7712   -6.1291 H   0  0  0  0  0  0  0  0  0  0  0  0
  -10.5474    3.1557   -5.4866 H   0  0  0  0  0  0  0  0  0  0  0  0
  -10.6921    1.7345   -8.2894 H   0  0  0  0  0  0  0  0  0  0  0  0
   -8.9884    1.9286   -8.7551 H   0  0  0  0  0  0  0  0  0  0  0  0
   -9.4311    1.4141   -7.1114 H   0  0  0  0  0  0  0  0  0  0  0  0
  1  4  1  0  0  0  0
  1  5  1  0  0  0  0
  1 20  2  0  0  0  0
  2 18  1  0  0  0  0
  2 21  2  0  0  0  0
  2 23  1  0  0  0  0
  3 19  1  0  0  0  0
  3 22  2  0  0  0  0
  3 24  1  0  0  0  0
  4  8  1  0  0  0  0
  5  9  1  0  0  0  0
  6  8  1  0  0  0  0
  6 18  1  0  0  0  0
  7  9  1  0  0  0  0
  7 18  1  0  0  0  0
  8 19  1  0  0  0  0
  9 19  1  0  0  0  0
 10 16  1  0  0  0  0
 11 16  1  0  0  0  0
 12 16  1  0  0  0  0
 13 17  1  0  0  0  0
 14 17  1  0  0  0  0
 15 17  1  0  0  0  0
 16 23  1  0  0  0  0
 17 24  1  0  0  0  0
  4 25  1  0  0  0  0
  4 26  1  0  0  0  0
  5 27  1  0  0  0  0
  5 28  1  0  0  0  0
  6 29  1  0  0  0  0
  6 30  1  0  0  0  0
  7 31  1  0  0  0  0
  7 32  1  0  0  0  0
  8 33  1  0  0  0  0
  9 34  1  0  0  0  0
 10 35  1  0  0  0  0
 10 36  1  0  0  0  0
 10 37  1  0  0  0  0
 11 38  1  0  0  0  0
 11 39  1  0  0  0  0
 11 40  1  0  0  0  0
 12 41  1  0  0  0  0
 12 42  1  0  0  0  0
 12 43  1  0  0  0  0
 13 44  1  0  0  0  0
 13 45  1  0  0  0  0
 13 46  1  0  0  0  0
 14 47  1  0  0  0  0
 14 48  1  0  0  0  0
 14 49  1  0  0  0  0
 15 50  1  0  0  0  0
 15 51  1  0  0  0  0
 15 52  1  0  0  0  0
M  END
> <id>
EN300-37397786

> <smiles>
CC(C)(C)OC(=O)N1CC2CC(=O)CC(C1)N2C(=O)OC(C)(C)C

> <IUPAC Name>
3,9-di-tert-butyl 7-oxo-3,9-diazabicyclo[3.3.1]nonane-3,9-dicarboxylate

> <CAS>
878002-61-0

> <URL>
https://www.enaminestore.com/catalog/EN300-37397786

> <ROCS_ShapeQuery>
_x0404_0B

> <ROCS_TanimotoCombo>
0.383 

> <ROCS_ShapeTanimoto>
0.313 

> <ROCS_ColorTanimoto>
0.070 

> <ROCS_RefTversky>
0.287 

> <ROCS_RefColorTversky>
0.075 

> <ROCS_RefTverskyCombo>
0.363 

> <ROCS_FitTversky>
1.407 

> <ROCS_FitColorTversky>
0.507 

> <ROCS_FitTverskyCombo>
1.914 

> <ROCS_ColorScore>
-5.443

> <ROCS_Overlap>
1918.064

> <ROCS_Rank>
240                 

$$$$
untitled-dbase-30305_91
  -OEChem-08212314543D

 40 42  0     1  0  0  0  0  0999 V2000
   -8.7960    2.6900   -9.6887 C   0  0  0  0  0  0  0  0  0  0  0  0
   -9.0755    2.0133   -8.5101 C   0  0  0  0  0  0  0  0  0  0  0  0
   -8.8993    4.0663   -9.6447 C   0  0  0  0  0  0  0  0  0  0  0  0
   -9.2619    4.7069   -8.4731 C   0  0  0  0  0  0  0  0  0  0  0  0
   -9.5159    3.9612   -7.3470 C   0  0  0  0  0  0  0  0  0  0  0  0
   -8.9204    5.8245  -14.3209 C   0  0  0  0  0  0  0  0  0  0  0  0
   -9.2788    6.1696   -8.6783 C   0  0  0  0  0  0  0  0  0  0  0  0
   -7.1937    5.2521  -11.1130 C   0  0  0  0  0  0  0  0  0  0  0  0
   -7.2914    5.9901  -12.4425 C   0  0  0  0  0  0  0  0  0  0  0  0
   -9.3889    4.8702  -12.0250 C   0  0  0  0  0  0  0  0  0  0  0  0
   -8.6603    5.0846  -10.7001 C   0  0  1  0  0  0  0  0  0  0  0  0
   -8.2290    4.9086  -16.6759 C   0  0  0  0  0  0  0  0  0  0  0  0
  -10.0079    3.1480  -16.4637 C   0  0  0  0  0  0  0  0  0  0  0  0
  -10.6537    5.5265  -16.9475 C   0  0  0  0  0  0  0  0  0  0  0  0
   -9.6601    4.6161  -16.2272 C   0  0  0  0  0  0  0  0  0  0  0  0
   -9.4323    2.6115   -7.3421 N   0  0  0  0  0  0  0  0  0  0  0  0
   -8.5651    5.5731  -13.0063 N   0  0  0  0  0  0  0  0  0  0  0  0
   -8.5329    6.7953  -14.9672 O   0  0  0  0  0  0  0  0  0  0  0  0
   -9.1325    6.3281  -10.1094 O   0  0  0  0  0  0  0  0  0  0  0  0
   -9.7553    4.8607  -14.8195 O   0  0  0  0  0  0  0  0  0  0  0  0
   -9.9657    4.6663   -5.8525 Cl  0  0  0  0  0  0  0  0  0  0  0  0
   -8.5176    2.1603  -10.5909 H   0  0  0  0  0  0  0  0  0  0  0  0
   -9.0217    0.9299   -8.4692 H   0  0  0  0  0  0  0  0  0  0  0  0
  -10.2311    6.6135   -8.3728 H   0  0  0  0  0  0  0  0  0  0  0  0
   -8.4422    6.6775   -8.1911 H   0  0  0  0  0  0  0  0  0  0  0  0
   -6.7086    4.2816  -11.2688 H   0  0  0  0  0  0  0  0  0  0  0  0
   -6.6098    5.8237  -10.3845 H   0  0  0  0  0  0  0  0  0  0  0  0
   -7.3308    7.0757  -12.2987 H   0  0  0  0  0  0  0  0  0  0  0  0
   -6.4686    5.7571  -13.1251 H   0  0  0  0  0  0  0  0  0  0  0  0
   -9.4218    3.8176  -12.3292 H   0  0  0  0  0  0  0  0  0  0  0  0
  -10.4046    5.2801  -12.0388 H   0  0  0  0  0  0  0  0  0  0  0  0
   -7.9754    5.9614  -16.5078 H   0  0  0  0  0  0  0  0  0  0  0  0
   -7.5036    4.2866  -16.1413 H   0  0  0  0  0  0  0  0  0  0  0  0
   -8.1121    4.7303  -17.7509 H   0  0  0  0  0  0  0  0  0  0  0  0
  -11.0339    2.9336  -16.1433 H   0  0  0  0  0  0  0  0  0  0  0  0
   -9.3570    2.4927  -15.8737 H   0  0  0  0  0  0  0  0  0  0  0  0
   -9.9102    2.8746  -17.5193 H   0  0  0  0  0  0  0  0  0  0  0  0
  -11.6803    5.3169  -16.6259 H   0  0  0  0  0  0  0  0  0  0  0  0
  -10.4416    6.5839  -16.7590 H   0  0  0  0  0  0  0  0  0  0  0  0
  -10.6272    5.3534  -18.0294 H   0  0  0  0  0  0  0  0  0  0  0  0
  1  2  2  0  0  0  0
  1  3  1  0  0  0  0
  2 16  1  0  0  0  0
  3  4  2  0  0  0  0
  3 11  1  0  0  0  0
  4  5  1  0  0  0  0
  4  7  1  0  0  0  0
  5 16  2  0  0  0  0
  5 21  1  0  0  0  0
  6 17  1  0  0  0  0
  6 18  2  0  0  0  0
  6 20  1  0  0  0  0
  7 19  1  0  0  0  0
  8  9  1  0  0  0  0
  8 11  1  0  0  0  0
  9 17  1  0  0  0  0
 10 11  1  0  0  0  0
 10 17  1  0  0  0  0
 11 19  1  0  0  0  0
 12 15  1  0  0  0  0
 13 15  1  0  0  0  0
 14 15  1  0  0  0  0
 15 20  1  0  0  0  0
  1 22  1  0  0  0  0
  2 23  1  0  0  0  0
  7 24  1  0  0  0  0
  7 25  1  0  0  0  0
  8 26  1  0  0  0  0
  8 27  1  0  0  0  0
  9 28  1  0  0  0  0
  9 29  1  0  0  0  0
 10 30  1  0  0  0  0
 10 31  1  0  0  0  0
 12 32  1  0  0  0  0
 12 33  1  0  0  0  0
 12 34  1  0  0  0  0
 13 35  1  0  0  0  0
 13 36  1  0  0  0  0
 13 37  1  0  0  0  0
 14 38  1  0  0  0  0
 14 39  1  0  0  0  0
 14 40  1  0  0  0  0
M  END
> <id>
EN300-7431774

> <smiles>
CC(C)(C)OC(=O)N1CCC2(C1)OCC=3C2=CC=NC3Cl

> <MDLNUMBER>
MFCD20922081

> <IUPAC Name>
tert-butyl 4-chloro-3H-spiro[furo[3,4-c]pyridine-1,3'-pyrrolidine]-1'-carboxylate

> <CAS>
1824094-89-4

> <Purity>
95

> <URL>
https://www.enaminestore.com/catalog/EN300-7431774

> <ROCS_ShapeQuery>
_x0404_0B

> <ROCS_TanimotoCombo>
0.383 

> <ROCS_ShapeTanimoto>
0.302 

> <ROCS_ColorTanimoto>
0.082 

> <ROCS_RefTversky>
0.275 

> <ROCS_RefColorTversky>
0.087 

> <ROCS_RefTverskyCombo>
0.362 

> <ROCS_FitTversky>
1.462 

> <ROCS_FitColorTversky>
0.598 

> <ROCS_FitTverskyCombo>
2.060 

> <ROCS_ColorScore>
-6.246

> <ROCS_Overlap>
1837.680

> <ROCS_Rank>
241                 

$$$$
untitled-dbase-23263_0
  -OEChem-08212314543D

 51 54  0     1  0  0  0  0  0999 V2000
   -9.0242    2.4832   -7.8398 C   0  0  0  0  0  0  0  0  0  0  0  0
   -9.8761    3.5707   -8.0101 C   0  0  0  0  0  0  0  0  0  0  0  0
   -7.9259    2.3176   -8.6835 C   0  0  0  0  0  0  0  0  0  0  0  0
   -9.6334    4.4974   -9.0243 C   0  0  0  0  0  0  0  0  0  0  0  0
   -7.6778    3.2369   -9.7132 C   0  0  0  0  0  0  0  0  0  0  0  0
   -8.5414    4.3331   -9.8858 C   0  0  0  0  0  0  0  0  0  0  0  0
   -9.3133    5.8464  -14.0536 C   0  0  0  0  0  0  0  0  0  0  0  0
   -8.8360    6.2799  -12.8777 C   0  0  0  0  0  0  0  0  0  0  0  0
   -6.4905    2.9787  -10.5779 C   0  0  0  0  0  0  0  0  0  0  0  0
   -7.0183    4.3829  -15.4911 C   0  0  0  0  0  0  0  0  0  0  0  0
   -8.7723    6.2988  -15.3753 C   0  0  0  0  0  0  0  0  0  0  0  0
   -9.3452    5.8182  -11.5474 C   0  0  0  0  0  0  0  0  0  0  0  0
   -8.1621    1.2608  -13.7718 C   0  0  0  0  0  0  0  0  0  0  0  0
   -6.6582    1.0516  -13.9037 C   0  0  0  0  0  0  0  0  0  0  0  0
   -8.4447    2.3805  -14.7595 C   0  0  0  0  0  0  0  0  0  0  0  0
   -5.5899    3.1506  -12.9054 C   0  0  0  0  0  0  0  0  0  0  0  0
   -7.8628    5.6084  -17.6489 C   0  0  0  0  0  0  0  0  0  0  0  0
   -9.3033    4.2786  -16.9987 C   0  0  0  0  0  0  0  0  0  0  0  0
   -6.1056    2.4555  -14.1773 C   0  0  2  0  0  0  0  0  0  0  0  0
   -8.2359    5.1006  -16.2021 C   0  0  0  0  0  0  0  0  0  0  0  0
   -6.6215    3.3531  -11.9044 N   0  0  0  0  0  0  0  0  0  0  0  0
   -9.2339    5.2809  -18.0784 N   0  0  0  0  0  0  0  0  0  0  0  0
   -7.2188    3.1688  -14.8216 N   0  0  0  0  0  0  0  0  0  0  0  0
   -5.5021    2.4349  -10.0927 O   0  0  0  0  0  0  0  0  0  0  0  0
   -5.8917    4.9097  -15.5203 O   0  0  0  0  0  0  0  0  0  0  0  0
   -8.2305    5.2534  -10.8514 O   0  0  0  0  0  0  0  0  0  0  0  0
   -9.2129    1.7645   -7.0475 H   0  0  0  0  0  0  0  0  0  0  0  0
  -10.7254    3.7038   -7.3462 H   0  0  0  0  0  0  0  0  0  0  0  0
   -7.2797    1.4564   -8.5315 H   0  0  0  0  0  0  0  0  0  0  0  0
  -10.2984    5.3517   -9.1137 H   0  0  0  0  0  0  0  0  0  0  0  0
  -10.1427    5.1450  -14.0685 H   0  0  0  0  0  0  0  0  0  0  0  0
   -8.0170    6.9951  -12.8645 H   0  0  0  0  0  0  0  0  0  0  0  0
   -9.5760    6.8257  -15.9035 H   0  0  0  0  0  0  0  0  0  0  0  0
   -7.9651    7.0293  -15.2333 H   0  0  0  0  0  0  0  0  0  0  0  0
   -9.7229    6.6814  -10.9886 H   0  0  0  0  0  0  0  0  0  0  0  0
  -10.1502    5.0833  -11.6756 H   0  0  0  0  0  0  0  0  0  0  0  0
   -8.7236    0.3513  -14.0044 H   0  0  0  0  0  0  0  0  0  0  0  0
   -8.4271    1.5682  -12.7551 H   0  0  0  0  0  0  0  0  0  0  0  0
   -6.2290    0.5751  -13.0174 H   0  0  0  0  0  0  0  0  0  0  0  0
   -6.4565    0.4043  -14.7661 H   0  0  0  0  0  0  0  0  0  0  0  0
   -8.6179    1.9499  -15.7494 H   0  0  0  0  0  0  0  0  0  0  0  0
   -9.3019    2.9905  -14.4727 H   0  0  0  0  0  0  0  0  0  0  0  0
   -4.7703    2.5655  -12.4738 H   0  0  0  0  0  0  0  0  0  0  0  0
   -5.1865    4.1404  -13.1420 H   0  0  0  0  0  0  0  0  0  0  0  0
   -7.5932    6.6649  -17.7445 H   0  0  0  0  0  0  0  0  0  0  0  0
   -7.0960    5.0144  -18.1622 H   0  0  0  0  0  0  0  0  0  0  0  0
   -8.9814    3.2921  -17.3477 H   0  0  0  0  0  0  0  0  0  0  0  0
  -10.2890    4.1807  -16.5349 H   0  0  0  0  0  0  0  0  0  0  0  0
   -5.2740    2.3983  -14.8904 H   0  0  0  0  0  0  0  0  0  0  0  0
   -7.4882    3.7943  -12.1934 H   0  0  0  0  0  0  0  0  0  0  0  0
   -9.8922    6.0510  -17.9615 H   0  0  0  0  0  0  0  0  0  0  0  0
  1  2  2  0  0  0  0
  1  3  1  0  0  0  0
  2  4  1  0  0  0  0
  3  5  2  0  0  0  0
  4  6  2  0  0  0  0
  5  6  1  0  0  0  0
  5  9  1  0  0  0  0
  6 26  1  0  0  0  0
  7  8  2  0  0  0  0
  7 11  1  0  0  0  0
  8 12  1  0  0  0  0
  9 21  1  0  0  0  0
  9 24  2  0  0  0  0
 10 20  1  0  0  0  0
 10 23  1  0  0  0  0
 10 25  2  0  0  0  0
 11 20  1  0  0  0  0
 12 26  1  0  0  0  0
 13 14  1  0  0  0  0
 13 15  1  0  0  0  0
 14 19  1  0  0  0  0
 15 23  1  0  0  0  0
 16 19  1  0  0  0  0
 16 21  1  0  0  0  0
 17 20  1  0  0  0  0
 17 22  1  0  0  0  0
 18 20  1  0  0  0  0
 18 22  1  0  0  0  0
 19 23  1  0  0  0  0
  1 27  1  0  0  0  0
  2 28  1  0  0  0  0
  3 29  1  0  0  0  0
  4 30  1  0  0  0  0
  7 31  1  0  0  0  0
  8 32  1  0  0  0  0
 11 33  1  0  0  0  0
 11 34  1  0  0  0  0
 12 35  1  0  0  0  0
 12 36  1  0  0  0  0
 13 37  1  0  0  0  0
 13 38  1  0  0  0  0
 14 39  1  0  0  0  0
 14 40  1  0  0  0  0
 15 41  1  0  0  0  0
 15 42  1  0  0  0  0
 16 43  1  0  0  0  0
 16 44  1  0  0  0  0
 17 45  1  0  0  0  0
 17 46  1  0  0  0  0
 18 47  1  0  0  0  0
 18 48  1  0  0  0  0
 19 49  1  0  0  0  0
 21 50  1  0  0  0  0
 22 51  1  0  0  0  0
M  END
> <id>
EN300-6477912

> <smiles>
OC(=O)C(F)(F)F.O=C1NCC2CCCN2C(=O)C3(CNC3)C/C=C/COC=4C=CC=CC14

> <MDLNUMBER>
MFCD31667274

> <IUPAC Name>
(13'E)-16'-oxa-3',9'-diazaspiro[azetidine-3,11'-tricyclo[15.4.0.0,5,9]henicosane]-1'(17'),13',18',20'-tetraene-2',10'-dione; trifluoroacetic acid

> <URL>
https://www.enaminestore.com/catalog/EN300-6477912

> <Saltdate>
OC(=O)C(F)(F)F

> <ROCS_ShapeQuery>
_x0404_0B

> <ROCS_TanimotoCombo>
0.383 

> <ROCS_ShapeTanimoto>
0.324 

> <ROCS_ColorTanimoto>
0.059 

> <ROCS_RefTversky>
0.298 

> <ROCS_RefColorTversky>
0.065 

> <ROCS_RefTverskyCombo>
0.363 

> <ROCS_FitTversky>
1.367 

> <ROCS_FitColorTversky>
0.380 

> <ROCS_FitTverskyCombo>
1.747 

> <ROCS_ColorScore>
-4.688

> <ROCS_Overlap>
1994.804

> <ROCS_Rank>
242                 

$$$$
untitled-dbase-22403_5
  -OEChem-08212314543D

 31 33  0     1  0  0  0  0  0999 V2000
   -8.4701    6.5546  -12.5484 C   0  0  0  0  0  0  0  0  0  0  0  0
   -8.7732    6.1475  -11.2506 C   0  0  0  0  0  0  0  0  0  0  0  0
   -8.7282    3.8429  -11.9691 C   0  0  0  0  0  0  0  0  0  0  0  0
   -8.4045    4.2375  -13.2763 C   0  0  0  0  0  0  0  0  0  0  0  0
   -8.3021    5.6059  -13.5618 C   0  0  0  0  0  0  0  0  0  0  0  0
   -8.9080    4.7922  -10.9621 C   0  0  0  0  0  0  0  0  0  0  0  0
   -8.1647    5.2053  -18.3381 C   0  0  0  0  0  0  0  0  0  0  0  0
   -9.5346    4.7366  -17.8486 C   0  0  0  0  0  0  0  0  0  0  0  0
   -7.4775    5.8307  -17.1279 C   0  0  0  0  0  0  0  0  0  0  0  0
   -9.6192    5.1558  -16.3856 C   0  0  0  0  0  0  0  0  0  0  0  0
   -7.5466    3.8348  -15.5800 C   0  0  0  0  0  0  0  0  0  0  0  0
   -8.2138    3.2093  -14.3585 C   0  0  1  0  0  0  0  0  0  0  0  0
   -8.1617    5.2028  -15.9043 C   0  0  0  0  0  0  0  0  0  0  0  0
   -8.0161    6.1087  -14.8043 O   0  0  0  0  0  0  0  0  0  0  0  0
   -7.3970    2.1393  -13.8915 O   0  0  0  0  0  0  0  0  0  0  0  0
   -9.2095    4.3993   -9.7177 F   0  0  0  0  0  0  0  0  0  0  0  0
   -8.3750    7.6152  -12.7670 H   0  0  0  0  0  0  0  0  0  0  0  0
   -8.9100    6.8864  -10.4670 H   0  0  0  0  0  0  0  0  0  0  0  0
   -8.8409    2.7896  -11.7237 H   0  0  0  0  0  0  0  0  0  0  0  0
   -7.5749    4.3794  -18.7473 H   0  0  0  0  0  0  0  0  0  0  0  0
   -8.2886    5.9463  -19.1361 H   0  0  0  0  0  0  0  0  0  0  0  0
  -10.3226    5.2230  -18.4336 H   0  0  0  0  0  0  0  0  0  0  0  0
   -9.6595    3.6560  -17.9623 H   0  0  0  0  0  0  0  0  0  0  0  0
   -6.4070    5.5804  -17.1484 H   0  0  0  0  0  0  0  0  0  0  0  0
   -7.5709    6.9246  -17.1491 H   0  0  0  0  0  0  0  0  0  0  0  0
  -10.1396    6.1165  -16.2931 H   0  0  0  0  0  0  0  0  0  0  0  0
  -10.1887    4.4049  -15.8211 H   0  0  0  0  0  0  0  0  0  0  0  0
   -6.4714    3.9572  -15.3809 H   0  0  0  0  0  0  0  0  0  0  0  0
   -7.6170    3.1489  -16.4344 H   0  0  0  0  0  0  0  0  0  0  0  0
   -9.1949    2.7963  -14.6248 H   0  0  0  0  0  0  0  0  0  0  0  0
   -7.3114    1.5139  -14.6281 H   0  0  0  0  0  0  0  0  0  0  0  0
  1  2  1  0  0  0  0
  1  5  2  0  0  0  0
  2  6  2  0  0  0  0
  3  4  2  0  0  0  0
  3  6  1  0  0  0  0
  4  5  1  0  0  0  0
  4 12  1  0  0  0  0
  5 14  1  0  0  0  0
  6 16  1  0  0  0  0
  7  8  1  0  0  0  0
  7  9  1  0  0  0  0
  8 10  1  0  0  0  0
  9 13  1  0  0  0  0
 10 13  1  0  0  0  0
 11 12  1  0  0  0  0
 11 13  1  0  0  0  0
 12 15  1  6  0  0  0
 13 14  1  0  0  0  0
  1 17  1  0  0  0  0
  2 18  1  0  0  0  0
  3 19  1  0  0  0  0
  7 20  1  0  0  0  0
  7 21  1  0  0  0  0
  8 22  1  0  0  0  0
  8 23  1  0  0  0  0
  9 24  1  0  0  0  0
  9 25  1  0  0  0  0
 10 26  1  0  0  0  0
 10 27  1  0  0  0  0
 11 28  1  0  0  0  0
 11 29  1  0  0  0  0
 12 30  1  0  0  0  0
 15 31  1  0  0  0  0
M  END
> <id>
EN300-1720773

> <smiles>
O[C@@H]1CC2(CCCC2)OC=3C=CC(F)=CC13

> <MDLNUMBER>
MFCD31666109

> <IUPAC Name>
(4R)-6-fluoro-3,4-dihydrospiro[1-benzopyran-2,1'-cyclopentane]-4-ol

> <CAS>
939411-25-3

> <Purity>
95

> <URL>
https://www.enaminestore.com/catalog/EN300-1720773

> <ROCS_ShapeQuery>
_x0404_0B

> <ROCS_TanimotoCombo>
0.383 

> <ROCS_ShapeTanimoto>
0.263 

> <ROCS_ColorTanimoto>
0.120 

> <ROCS_RefTversky>
0.241 

> <ROCS_RefColorTversky>
0.121 

> <ROCS_RefTverskyCombo>
0.362 

> <ROCS_FitTversky>
1.541 

> <ROCS_FitColorTversky>
0.922 

> <ROCS_FitTverskyCombo>
2.464 

> <ROCS_ColorScore>
-8.748

> <ROCS_Overlap>
1603.933

> <ROCS_Rank>
243                 

$$$$
untitled-dbase-29722_145
  -OEChem-08212314543D

 38 39  0     0  0  0  0  0  0999 V2000
   -8.9327    4.6655   -7.8659 C   0  0  0  0  0  0  0  0  0  0  0  0
   -9.0856    3.6804   -8.8087 C   0  0  0  0  0  0  0  0  0  0  0  0
   -8.9722    5.6826   -9.7535 C   0  0  0  0  0  0  0  0  0  0  0  0
   -8.4873    5.5043  -14.3221 C   0  0  0  0  0  0  0  0  0  0  0  0
   -8.9596    6.7531  -10.7919 C   0  0  0  0  0  0  0  0  0  0  0  0
   -9.2450    3.6705  -11.2880 C   0  0  0  0  0  0  0  0  0  0  0  0
   -8.1721    6.3904  -12.0453 C   0  0  0  0  0  0  0  0  0  0  0  0
   -9.8244    4.5100  -12.4220 C   0  0  0  0  0  0  0  0  0  0  0  0
   -7.8113    5.0599  -17.0680 C   0  0  0  0  0  0  0  0  0  0  0  0
   -9.0643    2.8956  -16.8335 C   0  0  0  0  0  0  0  0  0  0  0  0
  -10.2697    5.0779  -16.5291 C   0  0  0  0  0  0  0  0  0  0  0  0
   -8.9461    4.3372  -16.3437 C   0  0  0  0  0  0  0  0  0  0  0  0
   -8.8648    5.8992   -8.4546 N   0  0  0  0  0  0  0  0  0  0  0  0
   -9.1150    4.3392  -10.0096 N   0  0  0  0  0  0  0  0  0  0  0  0
   -8.8556    5.4749  -12.9661 N   0  0  0  0  0  0  0  0  0  0  0  0
   -9.1912    2.3400   -8.6920 N   0  0  0  0  0  0  0  0  0  0  0  0
   -8.0728    6.5071  -14.9019 O   0  0  0  0  0  0  0  0  0  0  0  0
   -8.6397    4.2940  -14.9452 O   0  0  0  0  0  0  0  0  0  0  0  0
   -8.8668    4.5519   -6.7937 H   0  0  0  0  0  0  0  0  0  0  0  0
  -10.0027    6.9558  -11.0856 H   0  0  0  0  0  0  0  0  0  0  0  0
   -8.5870    7.6935  -10.3538 H   0  0  0  0  0  0  0  0  0  0  0  0
   -9.8848    2.7796  -11.1545 H   0  0  0  0  0  0  0  0  0  0  0  0
   -8.2426    3.2793  -11.5489 H   0  0  0  0  0  0  0  0  0  0  0  0
   -7.8867    7.2993  -12.6206 H   0  0  0  0  0  0  0  0  0  0  0  0
   -7.2059    5.9386  -11.7375 H   0  0  0  0  0  0  0  0  0  0  0  0
  -10.1435    3.8383  -13.2315 H   0  0  0  0  0  0  0  0  0  0  0  0
  -10.7180    5.0661  -12.1006 H   0  0  0  0  0  0  0  0  0  0  0  0
   -7.7232    6.0951  -16.7192 H   0  0  0  0  0  0  0  0  0  0  0  0
   -6.8504    4.5581  -16.9140 H   0  0  0  0  0  0  0  0  0  0  0  0
   -8.0057    5.1122  -18.1453 H   0  0  0  0  0  0  0  0  0  0  0  0
   -9.8773    2.3733  -16.3165 H   0  0  0  0  0  0  0  0  0  0  0  0
   -8.1489    2.3333  -16.6163 H   0  0  0  0  0  0  0  0  0  0  0  0
   -9.2523    2.8491  -17.9110 H   0  0  0  0  0  0  0  0  0  0  0  0
  -11.0839    4.5597  -16.0097 H   0  0  0  0  0  0  0  0  0  0  0  0
  -10.2147    6.1032  -16.1492 H   0  0  0  0  0  0  0  0  0  0  0  0
  -10.5514    5.1133  -17.5877 H   0  0  0  0  0  0  0  0  0  0  0  0
   -9.3506    1.7293   -9.5077 H   0  0  0  0  0  0  0  0  0  0  0  0
   -9.2120    1.8676   -7.7754 H   0  0  0  0  0  0  0  0  0  0  0  0
  1  2  2  0  0  0  0
  1 13  1  0  0  0  0
  2 14  1  0  0  0  0
  2 16  1  0  0  0  0
  3  5  1  0  0  0  0
  3 13  2  0  0  0  0
  3 14  1  0  0  0  0
  4 15  1  0  0  0  0
  4 17  2  0  0  0  0
  4 18  1  0  0  0  0
  5  7  1  0  0  0  0
  6  8  1  0  0  0  0
  6 14  1  0  0  0  0
  7 15  1  0  0  0  0
  8 15  1  0  0  0  0
  9 12  1  0  0  0  0
 10 12  1  0  0  0  0
 11 12  1  0  0  0  0
 12 18  1  0  0  0  0
  1 19  1  0  0  0  0
  5 20  1  0  0  0  0
  5 21  1  0  0  0  0
  6 22  1  0  0  0  0
  6 23  1  0  0  0  0
  7 24  1  0  0  0  0
  7 25  1  0  0  0  0
  8 26  1  0  0  0  0
  8 27  1  0  0  0  0
  9 28  1  0  0  0  0
  9 29  1  0  0  0  0
  9 30  1  0  0  0  0
 10 31  1  0  0  0  0
 10 32  1  0  0  0  0
 10 33  1  0  0  0  0
 11 34  1  0  0  0  0
 11 35  1  0  0  0  0
 11 36  1  0  0  0  0
 16 37  1  0  0  0  0
 16 38  1  0  0  0  0
M  END
> <id>
EN300-27736152

> <smiles>
Cl.CC(C)(C)OC(=O)N1CCC2=NC=C(N)N2CC1

> <MDLNUMBER>
MFCD33031559

> <IUPAC Name>
tert-butyl 3-amino-5H,6H,7H,8H,9H-imidazo[1,2-d][1,4]diazepine-7-carboxylate hydrochloride

> <CAS>
2613383-79-0

> <Purity>
95

> <URL>
https://www.enaminestore.com/catalog/EN300-27736152

> <ROCS_ShapeQuery>
_x0404_0B

> <ROCS_TanimotoCombo>
0.383 

> <ROCS_ShapeTanimoto>
0.289 

> <ROCS_ColorTanimoto>
0.094 

> <ROCS_RefTversky>
0.262 

> <ROCS_RefColorTversky>
0.100 

> <ROCS_RefTverskyCombo>
0.361 

> <ROCS_FitTversky>
1.560 

> <ROCS_FitColorTversky>
0.632 

> <ROCS_FitTverskyCombo>
2.191 

> <ROCS_ColorScore>
-7.196

> <ROCS_Overlap>
1744.565

> <ROCS_Rank>
244                 

$$$$
untitled-dbase-43229_145
  -OEChem-08212314543D

 38 39  0     0  0  0  0  0  0999 V2000
   -8.9327    4.6655   -7.8659 C   0  0  0  0  0  0  0  0  0  0  0  0
   -9.0856    3.6804   -8.8087 C   0  0  0  0  0  0  0  0  0  0  0  0
   -8.9722    5.6826   -9.7535 C   0  0  0  0  0  0  0  0  0  0  0  0
   -8.4873    5.5043  -14.3221 C   0  0  0  0  0  0  0  0  0  0  0  0
   -8.9596    6.7531  -10.7919 C   0  0  0  0  0  0  0  0  0  0  0  0
   -9.2450    3.6705  -11.2880 C   0  0  0  0  0  0  0  0  0  0  0  0
   -8.1721    6.3904  -12.0453 C   0  0  0  0  0  0  0  0  0  0  0  0
   -9.8244    4.5100  -12.4220 C   0  0  0  0  0  0  0  0  0  0  0  0
   -7.8113    5.0599  -17.0680 C   0  0  0  0  0  0  0  0  0  0  0  0
   -9.0643    2.8956  -16.8335 C   0  0  0  0  0  0  0  0  0  0  0  0
  -10.2697    5.0779  -16.5291 C   0  0  0  0  0  0  0  0  0  0  0  0
   -8.9461    4.3372  -16.3437 C   0  0  0  0  0  0  0  0  0  0  0  0
   -8.8648    5.8992   -8.4546 N   0  0  0  0  0  0  0  0  0  0  0  0
   -9.1150    4.3392  -10.0096 N   0  0  0  0  0  0  0  0  0  0  0  0
   -8.8556    5.4749  -12.9661 N   0  0  0  0  0  0  0  0  0  0  0  0
   -9.1912    2.3400   -8.6920 N   0  0  0  0  0  0  0  0  0  0  0  0
   -8.0728    6.5071  -14.9019 O   0  0  0  0  0  0  0  0  0  0  0  0
   -8.6397    4.2940  -14.9452 O   0  0  0  0  0  0  0  0  0  0  0  0
   -8.8668    4.5519   -6.7937 H   0  0  0  0  0  0  0  0  0  0  0  0
  -10.0027    6.9558  -11.0856 H   0  0  0  0  0  0  0  0  0  0  0  0
   -8.5870    7.6935  -10.3538 H   0  0  0  0  0  0  0  0  0  0  0  0
   -9.8848    2.7796  -11.1545 H   0  0  0  0  0  0  0  0  0  0  0  0
   -8.2426    3.2793  -11.5489 H   0  0  0  0  0  0  0  0  0  0  0  0
   -7.8867    7.2993  -12.6206 H   0  0  0  0  0  0  0  0  0  0  0  0
   -7.2059    5.9386  -11.7375 H   0  0  0  0  0  0  0  0  0  0  0  0
  -10.1435    3.8383  -13.2315 H   0  0  0  0  0  0  0  0  0  0  0  0
  -10.7180    5.0661  -12.1006 H   0  0  0  0  0  0  0  0  0  0  0  0
   -7.7232    6.0951  -16.7192 H   0  0  0  0  0  0  0  0  0  0  0  0
   -6.8504    4.5581  -16.9140 H   0  0  0  0  0  0  0  0  0  0  0  0
   -8.0057    5.1122  -18.1453 H   0  0  0  0  0  0  0  0  0  0  0  0
   -9.8773    2.3733  -16.3165 H   0  0  0  0  0  0  0  0  0  0  0  0
   -8.1489    2.3333  -16.6163 H   0  0  0  0  0  0  0  0  0  0  0  0
   -9.2523    2.8491  -17.9110 H   0  0  0  0  0  0  0  0  0  0  0  0
  -11.0839    4.5597  -16.0097 H   0  0  0  0  0  0  0  0  0  0  0  0
  -10.2147    6.1032  -16.1492 H   0  0  0  0  0  0  0  0  0  0  0  0
  -10.5514    5.1133  -17.5877 H   0  0  0  0  0  0  0  0  0  0  0  0
   -9.3506    1.7293   -9.5077 H   0  0  0  0  0  0  0  0  0  0  0  0
   -9.2120    1.8676   -7.7754 H   0  0  0  0  0  0  0  0  0  0  0  0
  1  2  2  0  0  0  0
  1 13  1  0  0  0  0
  2 14  1  0  0  0  0
  2 16  1  0  0  0  0
  3  5  1  0  0  0  0
  3 13  2  0  0  0  0
  3 14  1  0  0  0  0
  4 15  1  0  0  0  0
  4 17  2  0  0  0  0
  4 18  1  0  0  0  0
  5  7  1  0  0  0  0
  6  8  1  0  0  0  0
  6 14  1  0  0  0  0
  7 15  1  0  0  0  0
  8 15  1  0  0  0  0
  9 12  1  0  0  0  0
 10 12  1  0  0  0  0
 11 12  1  0  0  0  0
 12 18  1  0  0  0  0
  1 19  1  0  0  0  0
  5 20  1  0  0  0  0
  5 21  1  0  0  0  0
  6 22  1  0  0  0  0
  6 23  1  0  0  0  0
  7 24  1  0  0  0  0
  7 25  1  0  0  0  0
  8 26  1  0  0  0  0
  8 27  1  0  0  0  0
  9 28  1  0  0  0  0
  9 29  1  0  0  0  0
  9 30  1  0  0  0  0
 10 31  1  0  0  0  0
 10 32  1  0  0  0  0
 10 33  1  0  0  0  0
 11 34  1  0  0  0  0
 11 35  1  0  0  0  0
 11 36  1  0  0  0  0
 16 37  1  0  0  0  0
 16 38  1  0  0  0  0
M  END
> <id>
EN300-27735034

> <smiles>
CC(C)(C)OC(=O)N1CCC2=NC=C(N)N2CC1

> <MDLNUMBER>
MFCD33032079

> <IUPAC Name>
tert-butyl 3-amino-5H,6H,7H,8H,9H-imidazo[1,2-d][1,4]diazepine-7-carboxylate

> <CAS>
2613383-78-9

> <URL>
https://www.enaminestore.com/catalog/EN300-27735034

> <ROCS_ShapeQuery>
_x0404_0B

> <ROCS_TanimotoCombo>
0.383 

> <ROCS_ShapeTanimoto>
0.289 

> <ROCS_ColorTanimoto>
0.094 

> <ROCS_RefTversky>
0.262 

> <ROCS_RefColorTversky>
0.100 

> <ROCS_RefTverskyCombo>
0.361 

> <ROCS_FitTversky>
1.560 

> <ROCS_FitColorTversky>
0.632 

> <ROCS_FitTverskyCombo>
2.191 

> <ROCS_ColorScore>
-7.196

> <ROCS_Overlap>
1744.565

> <ROCS_Rank>
245                 

$$$$
untitled-dbase-8648_41
  -OEChem-08212314543D

 43 46  0     0  0  0  0  0  0999 V2000
   -9.2719    2.4429   -8.6747 C   0  0  0  0  0  0  0  0  0  0  0  0
   -9.1781    3.4961   -7.7839 C   0  0  0  0  0  0  0  0  0  0  0  0
   -9.1349    2.6892  -10.0393 C   0  0  0  0  0  0  0  0  0  0  0  0
   -8.9580    4.7824   -8.2710 C   0  0  0  0  0  0  0  0  0  0  0  0
   -9.1598    7.4387  -13.4652 C   0  0  0  0  0  0  0  0  0  0  0  0
   -8.8893    6.4087  -12.4848 C   0  0  0  0  0  0  0  0  0  0  0  0
   -8.9105    3.9850  -10.5566 C   0  0  0  0  0  0  0  0  0  0  0  0
   -8.8266    5.0534   -9.6556 C   0  0  0  0  0  0  0  0  0  0  0  0
   -9.2180    8.7051  -12.9376 C   0  0  0  0  0  0  0  0  0  0  0  0
   -8.8181    6.9717  -11.2219 C   0  0  0  0  0  0  0  0  0  0  0  0
   -8.7042    4.9910  -12.7842 C   0  0  0  0  0  0  0  0  0  0  0  0
   -9.3878    3.8910  -14.8609 C   0  0  0  0  0  0  0  0  0  0  0  0
   -7.3123    5.2712  -14.7890 C   0  0  0  0  0  0  0  0  0  0  0  0
   -8.8905    3.6832  -16.2842 C   0  0  0  0  0  0  0  0  0  0  0  0
   -7.7152    5.8882  -16.1219 C   0  0  0  0  0  0  0  0  0  0  0  0
   -9.4763    9.9836  -13.6331 C   0  0  0  0  0  0  0  0  0  0  0  0
   -7.9572    4.7284  -18.3036 C   0  0  0  0  0  0  0  0  0  0  0  0
   -8.7205    4.0081  -11.9399 N   0  0  0  0  0  0  0  0  0  0  0  0
   -8.6626    6.4009  -10.0096 N   0  0  0  0  0  0  0  0  0  0  0  0
   -8.4827    4.7461  -14.0970 N   0  0  0  0  0  0  0  0  0  0  0  0
   -8.6117    4.9986  -16.9774 N   0  3  0  0  0  0  0  0  0  0  0  0
   -9.8071    5.6388  -17.2185 O   0  5  0  0  0  0  0  0  0  0  0  0
   -8.9558    8.6902  -11.2632 S   0  0  0  0  0  0  0  0  0  0  0  0
   -9.4587    1.4352   -8.3173 H   0  0  0  0  0  0  0  0  0  0  0  0
   -9.2711    3.3241   -6.7160 H   0  0  0  0  0  0  0  0  0  0  0  0
   -9.2167    1.8444  -10.7229 H   0  0  0  0  0  0  0  0  0  0  0  0
   -8.8761    5.5944   -7.5495 H   0  0  0  0  0  0  0  0  0  0  0  0
   -9.3159    7.2619  -14.5222 H   0  0  0  0  0  0  0  0  0  0  0  0
  -10.3862    4.3609  -14.8628 H   0  0  0  0  0  0  0  0  0  0  0  0
   -9.5136    2.9073  -14.3774 H   0  0  0  0  0  0  0  0  0  0  0  0
   -6.5644    4.4865  -14.9694 H   0  0  0  0  0  0  0  0  0  0  0  0
   -6.8337    6.0207  -14.1433 H   0  0  0  0  0  0  0  0  0  0  0  0
   -7.9553    3.1128  -16.2981 H   0  0  0  0  0  0  0  0  0  0  0  0
   -9.6420    3.1668  -16.8903 H   0  0  0  0  0  0  0  0  0  0  0  0
   -8.2772    6.8261  -15.9685 H   0  0  0  0  0  0  0  0  0  0  0  0
   -6.8273    6.1169  -16.7387 H   0  0  0  0  0  0  0  0  0  0  0  0
  -10.5540   10.2107  -13.6553 H   0  0  0  0  0  0  0  0  0  0  0  0
   -8.9639   10.8289  -13.1447 H   0  0  0  0  0  0  0  0  0  0  0  0
   -9.1142    9.9661  -14.6746 H   0  0  0  0  0  0  0  0  0  0  0  0
   -7.7663    5.6898  -18.7838 H   0  0  0  0  0  0  0  0  0  0  0  0
   -7.0254    4.1926  -18.1133 H   0  0  0  0  0  0  0  0  0  0  0  0
   -8.6441    4.1226  -18.8978 H   0  0  0  0  0  0  0  0  0  0  0  0
   -8.2359    6.9681   -9.2818 H   0  0  0  0  0  0  0  0  0  0  0  0
  1  2  2  0  0  0  0
  1  3  1  0  0  0  0
  2  4  1  0  0  0  0
  3  7  2  0  0  0  0
  4  8  2  0  0  0  0
  5  6  1  0  0  0  0
  5  9  2  0  0  0  0
  6 10  2  0  0  0  0
  6 11  1  0  0  0  0
  7  8  1  0  0  0  0
  7 18  1  0  0  0  0
  8 19  1  0  0  0  0
  9 16  1  0  0  0  0
  9 23  1  0  0  0  0
 10 19  1  0  0  0  0
 10 23  1  0  0  0  0
 11 18  2  0  0  0  0
 11 20  1  0  0  0  0
 12 14  1  0  0  0  0
 12 20  1  0  0  0  0
 13 15  1  0  0  0  0
 13 20  1  0  0  0  0
 14 21  1  0  0  0  0
 15 21  1  0  0  0  0
 17 21  1  0  0  0  0
 21 22  1  0  0  0  0
  1 24  1  0  0  0  0
  2 25  1  0  0  0  0
  3 26  1  0  0  0  0
  4 27  1  0  0  0  0
  5 28  1  0  0  0  0
 12 29  1  0  0  0  0
 12 30  1  0  0  0  0
 13 31  1  0  0  0  0
 13 32  1  0  0  0  0
 14 33  1  0  0  0  0
 14 34  1  0  0  0  0
 15 35  1  0  0  0  0
 15 36  1  0  0  0  0
 16 37  1  0  0  0  0
 16 38  1  0  0  0  0
 16 39  1  0  0  0  0
 17 40  1  0  0  0  0
 17 41  1  0  0  0  0
 17 42  1  0  0  0  0
 19 43  1  0  0  0  0
M  CHG  2  21   1  22  -1
M  END
> <id>
EN300-305634

> <smiles>
CC1=CC=2C(=NC=3C=CC=CC3NC2S1)N4CC[N+](C)([O-])CC4

> <MDLNUMBER>
MFCD09955558

> <IUPAC Name>
1-methyl-4-{5-methyl-4-thia-2,9-diazatricyclo[8.4.0.0,3,7]tetradeca-1(10),3(7),5,8,11,13-hexaen-8-yl}piperazin-1-ium-1-olate

> <CAS>
174794-02-6

> <Purity>
95

> <URL>
https://www.enaminestore.com/catalog/EN300-305634

> <ROCS_ShapeQuery>
_x0404_0B

> <ROCS_TanimotoCombo>
0.383 

> <ROCS_ShapeTanimoto>
0.347 

> <ROCS_ColorTanimoto>
0.036 

> <ROCS_RefTversky>
0.310 

> <ROCS_RefColorTversky>
0.040 

> <ROCS_RefTverskyCombo>
0.349 

> <ROCS_FitTversky>
1.538 

> <ROCS_FitColorTversky>
0.273 

> <ROCS_FitTverskyCombo>
1.811 

> <ROCS_ColorScore>
-2.852

> <ROCS_Overlap>
2067.723

> <ROCS_Rank>
246                 

$$$$
untitled-dbase-23896_0
  -OEChem-08212314543D

 32 35  0     0  0  0  0  0  0999 V2000
   -9.0010    4.0704   -8.6066 C   0  0  0  0  0  0  0  0  0  0  0  0
   -9.0373    5.4262   -8.2262 C   0  0  0  0  0  0  0  0  0  0  0  0
   -8.8881    3.7063   -9.9491 C   0  0  0  0  0  0  0  0  0  0  0  0
   -8.4376    4.3121  -15.4394 C   0  0  0  0  0  0  0  0  0  0  0  0
   -8.9617    6.4467   -9.1813 C   0  0  0  0  0  0  0  0  0  0  0  0
   -8.3289    3.8497  -16.7553 C   0  0  0  0  0  0  0  0  0  0  0  0
   -8.2673    6.1287  -17.6197 C   0  0  0  0  0  0  0  0  0  0  0  0
   -8.4593    5.6787  -15.2344 C   0  0  0  0  0  0  0  0  0  0  0  0
   -8.8155    4.7317  -10.8698 C   0  0  0  0  0  0  0  0  0  0  0  0
   -8.8508    6.0852  -10.5081 C   0  0  0  0  0  0  0  0  0  0  0  0
   -8.3749    6.5636  -16.3134 C   0  0  0  0  0  0  0  0  0  0  0  0
   -8.2446    4.7493  -17.8348 C   0  0  0  0  0  0  0  0  0  0  0  0
   -8.5599    6.5144  -14.0427 C   0  0  0  0  0  0  0  0  0  0  0  0
   -8.6931    4.6899  -12.3356 C   0  0  0  0  0  0  0  0  0  0  0  0
   -8.6629    6.1350  -12.7675 C   0  0  0  0  0  0  0  0  0  0  0  0
   -8.5302    7.9521  -14.4745 C   0  0  0  0  0  0  0  0  0  0  0  0
   -8.6318    3.6056  -13.0182 N   0  0  0  0  0  0  0  0  0  0  0  0
   -8.7599    6.8982  -11.6299 N   0  0  0  0  0  0  0  0  0  0  0  0
   -8.4166    7.8892  -15.8670 N   0  0  0  0  0  0  0  0  0  0  0  0
   -8.5928    8.9313  -13.7542 O   0  0  0  0  0  0  0  0  0  0  0  0
   -8.7006    2.5194  -12.1399 O   0  0  0  0  0  0  0  0  0  0  0  0
   -8.0970    4.0786  -19.5976 Br  0  0  0  0  0  0  0  0  0  0  0  0
   -9.0605    3.3000   -7.8423 H   0  0  0  0  0  0  0  0  0  0  0  0
   -9.1240    5.6822   -7.1733 H   0  0  0  0  0  0  0  0  0  0  0  0
   -8.8596    2.6642  -10.2442 H   0  0  0  0  0  0  0  0  0  0  0  0
   -8.5017    3.6100  -14.6155 H   0  0  0  0  0  0  0  0  0  0  0  0
   -8.9892    7.4876   -8.8781 H   0  0  0  0  0  0  0  0  0  0  0  0
   -8.3102    2.7764  -16.9314 H   0  0  0  0  0  0  0  0  0  0  0  0
   -8.2029    6.8356  -18.4399 H   0  0  0  0  0  0  0  0  0  0  0  0
   -8.7654    7.9045  -11.6312 H   0  0  0  0  0  0  0  0  0  0  0  0
   -8.3703    8.6989  -16.4742 H   0  0  0  0  0  0  0  0  0  0  0  0
   -8.6466    1.7653  -12.7511 H   0  0  0  0  0  0  0  0  0  0  0  0
  1  2  2  0  0  0  0
  1  3  1  0  0  0  0
  2  5  1  0  0  0  0
  3  9  2  0  0  0  0
  4  6  1  0  0  0  0
  4  8  2  0  0  0  0
  5 10  2  0  0  0  0
  6 12  2  0  0  0  0
  7 11  2  0  0  0  0
  7 12  1  0  0  0  0
  8 11  1  0  0  0  0
  8 13  1  0  0  0  0
  9 10  1  0  0  0  0
  9 14  1  0  0  0  0
 10 18  1  0  0  0  0
 11 19  1  0  0  0  0
 12 22  1  0  0  0  0
 13 15  2  0  0  0  0
 13 16  1  0  0  0  0
 14 15  1  0  0  0  0
 14 17  2  0  0  0  0
 15 18  1  0  0  0  0
 16 19  1  0  0  0  0
 16 20  2  0  0  0  0
 17 21  1  0  0  0  0
  1 23  1  0  0  0  0
  2 24  1  0  0  0  0
  3 25  1  0  0  0  0
  4 26  1  0  0  0  0
  5 27  1  0  0  0  0
  6 28  1  0  0  0  0
  7 29  1  0  0  0  0
 18 30  1  0  0  0  0
 19 31  1  0  0  0  0
 21 32  1  0  0  0  0
M  END
> <id>
EN300-1692898

> <smiles>
O/N=C\1/C(=C\2/C(=O)NC=3C=C(Br)C=CC23)/NC=4C=CC=CC14

> <MDLNUMBER>
MFCD08705318

> <IUPAC Name>
(Z,3E)-6'-bromo-3-(hydroxyimino)-1',2'-dihydro-1H,3H-[2,3'-biindolyliden]-2'-one

> <CAS>
667463-62-9

> <URL>
https://www.enaminestore.com/catalog/EN300-1692898

> <ROCS_ShapeQuery>
_x0404_0B

> <ROCS_TanimotoCombo>
0.383 

> <ROCS_ShapeTanimoto>
0.325 

> <ROCS_ColorTanimoto>
0.058 

> <ROCS_RefTversky>
0.294 

> <ROCS_RefColorTversky>
0.065 

> <ROCS_RefTverskyCombo>
0.359 

> <ROCS_FitTversky>
1.472 

> <ROCS_FitColorTversky>
0.353 

> <ROCS_FitTverskyCombo>
1.824 

> <ROCS_ColorScore>
-4.693

> <ROCS_Overlap>
1964.887

> <ROCS_Rank>
247                 

$$$$
untitled-dbase-23264_7
  -OEChem-08212314543D

 54 57  0     1  0  0  0  0  0999 V2000
   -8.9327    3.5128   -7.2441 C   0  0  0  0  0  0  0  0  0  0  0  0
   -9.1060    2.2329   -7.7651 C   0  0  0  0  0  0  0  0  0  0  0  0
   -8.9342    4.6222   -8.0928 C   0  0  0  0  0  0  0  0  0  0  0  0
   -9.2731    2.0590   -9.1368 C   0  0  0  0  0  0  0  0  0  0  0  0
   -9.1111    4.4624   -9.4752 C   0  0  0  0  0  0  0  0  0  0  0  0
   -9.2571    3.1678   -9.9904 C   0  0  0  0  0  0  0  0  0  0  0  0
   -7.9131    3.2869  -14.3721 C   0  0  0  0  0  0  0  0  0  0  0  0
   -8.5121    2.5372  -13.4353 C   0  0  0  0  0  0  0  0  0  0  0  0
   -9.0913    5.6935  -10.3115 C   0  0  0  0  0  0  0  0  0  0  0  0
   -9.1539    5.7276  -15.2214 C   0  0  0  0  0  0  0  0  0  0  0  0
   -8.3383    3.2517  -15.8097 C   0  0  0  0  0  0  0  0  0  0  0  0
   -8.2139    2.6036  -11.9734 C   0  0  0  0  0  0  0  0  0  0  0  0
  -13.1229    6.2534  -14.4401 C   0  0  0  0  0  0  0  0  0  0  0  0
  -12.6731    4.9622  -15.1250 C   0  0  0  0  0  0  0  0  0  0  0  0
  -12.2752    6.5808  -13.2156 C   0  0  0  0  0  0  0  0  0  0  0  0
  -11.3024    4.4774  -14.6592 C   0  0  0  0  0  0  0  0  0  0  0  0
   -9.9002    6.8318  -12.3462 C   0  0  0  0  0  0  0  0  0  0  0  0
   -7.7445    5.2007  -17.3887 C   0  0  0  0  0  0  0  0  0  0  0  0
   -9.7186    4.5986  -17.5751 C   0  0  0  0  0  0  0  0  0  0  0  0
  -10.7851    6.6767  -13.5949 C   0  0  1  0  0  0  0  0  0  0  0  0
   -8.7727    4.6522  -16.3223 C   0  0  0  0  0  0  0  0  0  0  0  0
   -9.8408    5.6701  -11.4801 N   0  0  0  0  0  0  0  0  0  0  0  0
   -8.5310    4.5393  -18.4427 N   0  0  0  0  0  0  0  0  0  0  0  0
  -10.3628    5.5883  -14.5055 N   0  0  0  0  0  0  0  0  0  0  0  0
   -8.4410    6.6632   -9.9263 O   0  0  0  0  0  0  0  0  0  0  0  0
   -8.4002    6.6950  -15.0148 O   0  0  0  0  0  0  0  0  0  0  0  0
   -9.4455    2.9536  -11.3280 O   0  0  0  0  0  0  0  0  0  0  0  0
   -8.8049    3.6491   -6.1740 H   0  0  0  0  0  0  0  0  0  0  0  0
   -9.1156    1.3730   -7.1017 H   0  0  0  0  0  0  0  0  0  0  0  0
   -8.8037    5.6017   -7.6456 H   0  0  0  0  0  0  0  0  0  0  0  0
   -9.4215    1.0562   -9.5216 H   0  0  0  0  0  0  0  0  0  0  0  0
   -7.1329    3.9804  -14.0948 H   0  0  0  0  0  0  0  0  0  0  0  0
   -9.3256    1.8663  -13.7355 H   0  0  0  0  0  0  0  0  0  0  0  0
   -7.5029    2.8509  -16.4135 H   0  0  0  0  0  0  0  0  0  0  0  0
   -9.1590    2.5260  -15.9482 H   0  0  0  0  0  0  0  0  0  0  0  0
   -7.8944    1.6190  -11.6162 H   0  0  0  0  0  0  0  0  0  0  0  0
   -7.4180    3.3325  -11.7739 H   0  0  0  0  0  0  0  0  0  0  0  0
  -13.0725    7.0862  -15.1595 H   0  0  0  0  0  0  0  0  0  0  0  0
  -14.1825    6.1654  -14.1507 H   0  0  0  0  0  0  0  0  0  0  0  0
  -13.4234    4.1744  -14.9448 H   0  0  0  0  0  0  0  0  0  0  0  0
  -12.6526    5.1167  -16.2178 H   0  0  0  0  0  0  0  0  0  0  0  0
  -12.5966    7.5377  -12.8076 H   0  0  0  0  0  0  0  0  0  0  0  0
  -12.4264    5.8266  -12.4482 H   0  0  0  0  0  0  0  0  0  0  0  0
  -11.3878    3.9822  -13.6863 H   0  0  0  0  0  0  0  0  0  0  0  0
  -10.9414    3.7258  -15.3543 H   0  0  0  0  0  0  0  0  0  0  0  0
   -8.8654    7.0619  -12.6571 H   0  0  0  0  0  0  0  0  0  0  0  0
  -10.2230    7.6811  -11.7212 H   0  0  0  0  0  0  0  0  0  0  0  0
   -7.7252    6.2919  -17.4880 H   0  0  0  0  0  0  0  0  0  0  0  0
   -6.7143    4.8463  -17.3030 H   0  0  0  0  0  0  0  0  0  0  0  0
  -10.3692    3.7248  -17.6588 H   0  0  0  0  0  0  0  0  0  0  0  0
  -10.3233    5.5006  -17.7216 H   0  0  0  0  0  0  0  0  0  0  0  0
  -10.6963    7.6443  -14.1547 H   0  0  0  0  0  0  0  0  0  0  0  0
  -10.3459    4.8403  -11.7261 H   0  0  0  0  0  0  0  0  0  0  0  0
   -8.6076    5.0598  -19.3127 H   0  0  0  0  0  0  0  0  0  0  0  0
  1  2  2  0  0  0  0
  1  3  1  0  0  0  0
  2  4  1  0  0  0  0
  3  5  2  0  0  0  0
  4  6  2  0  0  0  0
  5  6  1  0  0  0  0
  5  9  1  0  0  0  0
  6 27  1  0  0  0  0
  7  8  2  0  0  0  0
  7 11  1  0  0  0  0
  8 12  1  0  0  0  0
  9 22  1  0  0  0  0
  9 25  2  0  0  0  0
 10 21  1  0  0  0  0
 10 24  1  0  0  0  0
 10 26  2  0  0  0  0
 11 21  1  0  0  0  0
 12 27  1  0  0  0  0
 13 14  1  0  0  0  0
 13 15  1  0  0  0  0
 14 16  1  0  0  0  0
 15 20  1  0  0  0  0
 16 24  1  0  0  0  0
 17 20  1  0  0  0  0
 17 22  1  0  0  0  0
 18 21  1  0  0  0  0
 18 23  1  0  0  0  0
 19 21  1  0  0  0  0
 19 23  1  0  0  0  0
 20 24  1  0  0  0  0
  1 28  1  0  0  0  0
  2 29  1  0  0  0  0
  3 30  1  0  0  0  0
  4 31  1  0  0  0  0
  7 32  1  0  0  0  0
  8 33  1  0  0  0  0
 11 34  1  0  0  0  0
 11 35  1  0  0  0  0
 12 36  1  0  0  0  0
 12 37  1  0  0  0  0
 13 38  1  0  0  0  0
 13 39  1  0  0  0  0
 14 40  1  0  0  0  0
 14 41  1  0  0  0  0
 15 42  1  0  0  0  0
 15 43  1  0  0  0  0
 16 44  1  0  0  0  0
 16 45  1  0  0  0  0
 17 46  1  0  0  0  0
 17 47  1  0  0  0  0
 18 48  1  0  0  0  0
 18 49  1  0  0  0  0
 19 50  1  0  0  0  0
 19 51  1  0  0  0  0
 20 52  1  0  0  0  0
 22 53  1  0  0  0  0
 23 54  1  0  0  0  0
M  END
> <id>
EN300-6477914

> <smiles>
OC(=O)C(F)(F)F.O=C1NCC2CCCCN2C(=O)C3(CNC3)C/C=C/COC=4C=CC=CC14

> <MDLNUMBER>
MFCD31667275

> <IUPAC Name>
(14'E)-17'-oxa-3',10'-diazaspiro[azetidine-3,12'-tricyclo[16.4.0.0,5,10]docosane]-1'(18'),14',19',21'-tetraene-2',11'-dione; trifluoroacetic acid

> <Purity>
95

> <URL>
https://www.enaminestore.com/catalog/EN300-6477914

> <Saltdate>
OC(=O)C(F)(F)F

> <ROCS_ShapeQuery>
_x0404_0B

> <ROCS_TanimotoCombo>
0.383 

> <ROCS_ShapeTanimoto>
0.321 

> <ROCS_ColorTanimoto>
0.062 

> <ROCS_RefTversky>
0.297 

> <ROCS_RefColorTversky>
0.068 

> <ROCS_RefTverskyCombo>
0.365 

> <ROCS_FitTversky>
1.331 

> <ROCS_FitColorTversky>
0.399 

> <ROCS_FitTverskyCombo>
1.729 

> <ROCS_ColorScore>
-4.914

> <ROCS_Overlap>
1988.790

> <ROCS_Rank>
248                 

$$$$
untitled-dbase-45612_4
  -OEChem-08212314543D

 37 38  0     1  0  0  0  0  0999 V2000
   -8.6130    7.9255  -13.0909 C   0  0  0  0  0  0  0  0  0  0  0  0
   -8.9214    6.8338  -10.8732 C   0  0  0  0  0  0  0  0  0  0  0  0
   -8.6819    6.7747  -12.2601 C   0  0  0  0  0  0  0  0  0  0  0  0
   -8.5665    5.4305  -12.5459 C   0  0  0  0  0  0  0  0  0  0  0  0
   -8.2705    5.3600  -14.9452 C   0  0  0  0  0  0  0  0  0  0  0  0
   -7.8854    2.6990  -12.2776 C   0  0  0  0  0  0  0  0  0  0  0  0
   -8.3376    3.2154  -13.6420 C   0  0  0  0  0  0  0  0  0  0  0  0
   -8.6838    3.3510  -11.1417 C   0  0  1  0  0  0  0  0  0  0  0  0
   -6.8358    5.9514  -17.3563 C   0  0  0  0  0  0  0  0  0  0  0  0
   -7.9737    3.9265  -18.3125 C   0  0  0  0  0  0  0  0  0  0  0  0
   -9.3439    5.8913  -17.5573 C   0  0  0  0  0  0  0  0  0  0  0  0
   -8.1105    2.9259   -9.7886 C   0  0  0  0  0  0  0  0  0  0  0  0
   -8.0816    5.0682  -17.3041 C   0  0  0  0  0  0  0  0  0  0  0  0
   -8.5568    8.8655  -13.7692 N   0  0  0  0  0  0  0  0  0  0  0  0
   -8.9566    5.6285  -10.3046 N   0  0  0  0  0  0  0  0  0  0  0  0
   -8.7079    4.7967  -11.3326 N   0  0  0  0  0  0  0  0  0  0  0  0
   -8.3607    4.6883  -13.7132 N   0  0  0  0  0  0  0  0  0  0  0  0
   -8.2809    6.5777  -15.1085 O   0  0  0  0  0  0  0  0  0  0  0  0
   -8.1720    4.4843  -15.9991 O   0  0  0  0  0  0  0  0  0  0  0  0
   -8.1348    1.5893   -9.6794 F   0  0  0  0  0  0  0  0  0  0  0  0
   -6.8429    3.3491   -9.6740 F   0  0  0  0  0  0  0  0  0  0  0  0
   -8.8382    3.4570   -8.7948 F   0  0  0  0  0  0  0  0  0  0  0  0
   -9.0745    7.7039  -10.2491 H   0  0  0  0  0  0  0  0  0  0  0  0
   -8.0428    1.6151  -12.2472 H   0  0  0  0  0  0  0  0  0  0  0  0
   -6.8141    2.8696  -12.1447 H   0  0  0  0  0  0  0  0  0  0  0  0
   -7.6694    2.8633  -14.4356 H   0  0  0  0  0  0  0  0  0  0  0  0
   -9.3356    2.8162  -13.8505 H   0  0  0  0  0  0  0  0  0  0  0  0
   -9.7218    2.9941  -11.2131 H   0  0  0  0  0  0  0  0  0  0  0  0
   -6.9094    6.7721  -16.6339 H   0  0  0  0  0  0  0  0  0  0  0  0
   -5.9269    5.3798  -17.1419 H   0  0  0  0  0  0  0  0  0  0  0  0
   -6.7274    6.4166  -18.3428 H   0  0  0  0  0  0  0  0  0  0  0  0
   -8.8655    3.2903  -18.2785 H   0  0  0  0  0  0  0  0  0  0  0  0
   -7.1223    3.2775  -18.0776 H   0  0  0  0  0  0  0  0  0  0  0  0
   -7.8532    4.3002  -19.3345 H   0  0  0  0  0  0  0  0  0  0  0  0
  -10.2377    5.2580  -17.5198 H   0  0  0  0  0  0  0  0  0  0  0  0
   -9.4572    6.6929  -16.8203 H   0  0  0  0  0  0  0  0  0  0  0  0
   -9.3234    6.3384  -18.5578 H   0  0  0  0  0  0  0  0  0  0  0  0
  1  3  1  0  0  0  0
  1 14  3  0  0  0  0
  2  3  1  0  0  0  0
  2 15  2  0  0  0  0
  3  4  2  0  0  0  0
  4 16  1  0  0  0  0
  4 17  1  0  0  0  0
  5 17  1  0  0  0  0
  5 18  2  0  0  0  0
  5 19  1  0  0  0  0
  6  7  1  0  0  0  0
  6  8  1  0  0  0  0
  7 17  1  0  0  0  0
  8 12  1  0  0  0  0
  8 16  1  0  0  0  0
  9 13  1  0  0  0  0
 10 13  1  0  0  0  0
 11 13  1  0  0  0  0
 12 20  1  0  0  0  0
 12 21  1  0  0  0  0
 12 22  1  0  0  0  0
 13 19  1  0  0  0  0
 15 16  1  0  0  0  0
  2 23  1  0  0  0  0
  6 24  1  0  0  0  0
  6 25  1  0  0  0  0
  7 26  1  0  0  0  0
  7 27  1  0  0  0  0
  8 28  1  0  0  0  0
  9 29  1  0  0  0  0
  9 30  1  0  0  0  0
  9 31  1  0  0  0  0
 10 32  1  0  0  0  0
 10 33  1  0  0  0  0
 10 34  1  0  0  0  0
 11 35  1  0  0  0  0
 11 36  1  0  0  0  0
 11 37  1  0  0  0  0
M  END
> <id>
EN300-28293201

> <smiles>
CC(C)(C)OC(=O)N1CCC(N2N=CC(C#N)=C12)C(F)(F)F

> <IUPAC Name>
tert-butyl 3-cyano-7-(trifluoromethyl)-4H,5H,6H,7H-pyrazolo[1,5-a]pyrimidine-4-carboxylate

> <CAS>
2680902-62-7

> <URL>
https://www.enaminestore.com/catalog/EN300-28293201

> <ROCS_ShapeQuery>
_x0404_0B

> <ROCS_TanimotoCombo>
0.383 

> <ROCS_ShapeTanimoto>
0.318 

> <ROCS_ColorTanimoto>
0.064 

> <ROCS_RefTversky>
0.289 

> <ROCS_RefColorTversky>
0.068 

> <ROCS_RefTverskyCombo>
0.358 

> <ROCS_FitTversky>
1.464 

> <ROCS_FitColorTversky>
0.520 

> <ROCS_FitTverskyCombo>
1.984 

> <ROCS_ColorScore>
-4.939

> <ROCS_Overlap>
1929.913

> <ROCS_Rank>
249                 

$$$$
untitled-dbase-29399_0
  -OEChem-08212314543D

 37 38  0     1  0  0  0  0  0999 V2000
   -8.6321    6.2636  -12.4643 C   0  0  0  0  0  0  0  0  0  0  0  0
   -8.5133    6.5823  -11.1070 C   0  0  0  0  0  0  0  0  0  0  0  0
   -8.7670    4.2670  -10.5436 C   0  0  0  0  0  0  0  0  0  0  0  0
   -8.8768    3.9313  -11.9068 C   0  0  0  0  0  0  0  0  0  0  0  0
   -8.8063    4.9369  -12.8976 C   0  0  0  0  0  0  0  0  0  0  0  0
   -8.5779    5.5847  -10.1460 C   0  0  0  0  0  0  0  0  0  0  0  0
   -8.6823    5.4972  -15.3474 C   0  0  0  0  0  0  0  0  0  0  0  0
   -9.1053    2.4780  -12.2395 C   0  0  0  0  0  0  0  0  0  0  0  0
   -9.4156    3.2274  -14.6013 C   0  0  0  0  0  0  0  0  0  0  0  0
   -8.8099    2.1693  -13.6946 C   0  0  1  0  0  0  0  0  0  0  0  0
   -7.1926    6.1964  -17.6987 C   0  0  0  0  0  0  0  0  0  0  0  0
   -8.9683    4.9549  -18.9694 C   0  0  0  0  0  0  0  0  0  0  0  0
   -9.5793    6.9927  -17.6344 C   0  0  0  0  0  0  0  0  0  0  0  0
   -8.6610    5.7743  -17.7178 C   0  0  0  0  0  0  0  0  0  0  0  0
   -8.9427    4.5911  -14.2953 N   0  0  0  0  0  0  0  0  0  0  0  0
   -8.2872    6.6540  -15.2292 O   0  0  0  0  0  0  0  0  0  0  0  0
   -7.3993    2.0992  -13.8917 O   0  0  0  0  0  0  0  0  0  0  0  0
   -8.9096    4.9371  -16.5820 O   0  0  0  0  0  0  0  0  0  0  0  0
   -8.4275    6.0155   -8.3137 Br  0  0  0  0  0  0  0  0  0  0  0  0
   -8.6191    7.1035  -13.1491 H   0  0  0  0  0  0  0  0  0  0  0  0
   -8.3829    7.6235  -10.8224 H   0  0  0  0  0  0  0  0  0  0  0  0
   -8.8322    3.4790   -9.7954 H   0  0  0  0  0  0  0  0  0  0  0  0
   -8.4712    1.8531  -11.5985 H   0  0  0  0  0  0  0  0  0  0  0  0
  -10.1547    2.2456  -12.0199 H   0  0  0  0  0  0  0  0  0  0  0  0
   -9.1673    2.9721  -15.6366 H   0  0  0  0  0  0  0  0  0  0  0  0
  -10.5092    3.2393  -14.5164 H   0  0  0  0  0  0  0  0  0  0  0  0
   -9.2155    1.1822  -13.9437 H   0  0  0  0  0  0  0  0  0  0  0  0
   -6.9680    6.7848  -16.8019 H   0  0  0  0  0  0  0  0  0  0  0  0
   -6.5235    5.3301  -17.7228 H   0  0  0  0  0  0  0  0  0  0  0  0
   -6.9590    6.8381  -18.5559 H   0  0  0  0  0  0  0  0  0  0  0  0
  -10.0209    4.6499  -18.9873 H   0  0  0  0  0  0  0  0  0  0  0  0
   -8.3789    4.0310  -18.9855 H   0  0  0  0  0  0  0  0  0  0  0  0
   -8.7550    5.5182  -19.8836 H   0  0  0  0  0  0  0  0  0  0  0  0
  -10.6327    6.6902  -17.6482 H   0  0  0  0  0  0  0  0  0  0  0  0
   -9.3982    7.5727  -16.7237 H   0  0  0  0  0  0  0  0  0  0  0  0
   -9.4349    7.6494  -18.4999 H   0  0  0  0  0  0  0  0  0  0  0  0
   -7.0431    2.9659  -13.6431 H   0  0  0  0  0  0  0  0  0  0  0  0
  1  2  1  0  0  0  0
  1  5  2  0  0  0  0
  2  6  2  0  0  0  0
  3  4  2  0  0  0  0
  3  6  1  0  0  0  0
  4  5  1  0  0  0  0
  4  8  1  0  0  0  0
  5 15  1  0  0  0  0
  6 19  1  0  0  0  0
  7 15  1  0  0  0  0
  7 16  2  0  0  0  0
  7 18  1  0  0  0  0
  8 10  1  0  0  0  0
  9 10  1  0  0  0  0
  9 15  1  0  0  0  0
 10 17  1  0  0  0  0
 11 14  1  0  0  0  0
 12 14  1  0  0  0  0
 13 14  1  0  0  0  0
 14 18  1  0  0  0  0
  1 20  1  0  0  0  0
  2 21  1  0  0  0  0
  3 22  1  0  0  0  0
  8 23  1  0  0  0  0
  8 24  1  0  0  0  0
  9 25  1  0  0  0  0
  9 26  1  0  0  0  0
 10 27  1  0  0  0  0
 11 28  1  0  0  0  0
 11 29  1  0  0  0  0
 11 30  1  0  0  0  0
 12 31  1  0  0  0  0
 12 32  1  0  0  0  0
 12 33  1  0  0  0  0
 13 34  1  0  0  0  0
 13 35  1  0  0  0  0
 13 36  1  0  0  0  0
 17 37  1  0  0  0  0
M  END
> <id>
EN300-37100372

> <smiles>
CC(C)(C)OC(=O)N1CC(O)CC=2C=C(Br)C=CC12

> <IUPAC Name>
tert-butyl 6-bromo-3-hydroxy-1,2,3,4-tetrahydroquinoline-1-carboxylate

> <CAS>
2757894-68-9

> <URL>
https://www.enaminestore.com/catalog/EN300-37100372

> <ROCS_ShapeQuery>
_x0404_0B

> <ROCS_TanimotoCombo>
0.382 

> <ROCS_ShapeTanimoto>
0.268 

> <ROCS_ColorTanimoto>
0.115 

> <ROCS_RefTversky>
0.247 

> <ROCS_RefColorTversky>
0.118 

> <ROCS_RefTverskyCombo>
0.365 

> <ROCS_FitTversky>
1.444 

> <ROCS_FitColorTversky>
0.816 

> <ROCS_FitTverskyCombo>
2.259 

> <ROCS_ColorScore>
-8.511

> <ROCS_Overlap>
1648.114

> <ROCS_Rank>
250                 

$$$$
untitled-dbase-46266_874
  -OEChem-08212314543D

 47 47  0     1  0  0  0  0  0999 V2000
   -7.4961    3.0136  -13.2316 C   0  0  0  0  0  0  0  0  0  0  0  0
   -9.1292    5.1394   -9.1542 C   0  0  0  0  0  0  0  0  0  0  0  0
   -8.1682    5.6477  -14.3632 C   0  0  0  0  0  0  0  0  0  0  0  0
   -8.5968    6.6208  -11.1282 C   0  0  0  0  0  0  0  0  0  0  0  0
   -7.4732    6.6359  -12.1657 C   0  0  0  0  0  0  0  0  0  0  0  0
   -8.7267    4.1220  -11.3806 C   0  0  0  0  0  0  0  0  0  0  0  0
   -7.5627    4.2020  -12.3713 C   0  0  2  0  0  0  0  0  0  0  0  0
  -10.9580    4.1939   -7.1659 C   0  0  0  0  0  0  0  0  0  0  0  0
   -9.6329    2.0610   -7.2268 C   0  0  0  0  0  0  0  0  0  0  0  0
   -8.5276    4.2000   -6.5117 C   0  0  0  0  0  0  0  0  0  0  0  0
   -7.8918    5.4530  -17.2085 C   0  0  0  0  0  0  0  0  0  0  0  0
   -8.7452    3.1053  -16.9452 C   0  0  0  0  0  0  0  0  0  0  0  0
  -10.2026    5.0458  -16.2981 C   0  0  0  0  0  0  0  0  0  0  0  0
   -9.5845    3.5749   -7.4212 C   0  0  0  0  0  0  0  0  0  0  0  0
   -8.7694    4.5214  -16.3739 C   0  0  0  0  0  0  0  0  0  0  0  0
   -7.4435    2.0748  -13.9113 N   0  0  0  0  0  0  0  0  0  0  0  0
   -8.7626    5.2988  -10.4971 N   0  0  0  0  0  0  0  0  0  0  0  0
   -7.6349    5.4964  -13.0723 N   0  0  0  0  0  0  0  0  0  0  0  0
   -9.3458    6.0701   -8.3800 O   0  0  0  0  0  0  0  0  0  0  0  0
   -8.5424    6.7107  -14.8534 O   0  0  0  0  0  0  0  0  0  0  0  0
   -9.2186    3.8236   -8.7834 O   0  0  0  0  0  0  0  0  0  0  0  0
   -8.2354    4.4602  -15.0461 O   0  0  0  0  0  0  0  0  0  0  0  0
   -8.3799    7.3356  -10.3206 H   0  0  0  0  0  0  0  0  0  0  0  0
   -9.5376    6.9428  -11.5946 H   0  0  0  0  0  0  0  0  0  0  0  0
   -7.5258    7.5391  -12.7620 H   0  0  0  0  0  0  0  0  0  0  0  0
   -6.5144    6.5991  -11.6677 H   0  0  0  0  0  0  0  0  0  0  0  0
   -9.6760    3.9944  -11.9051 H   0  0  0  0  0  0  0  0  0  0  0  0
   -8.5986    3.2529  -10.7262 H   0  0  0  0  0  0  0  0  0  0  0  0
   -6.6425    4.2081  -11.7359 H   0  0  0  0  0  0  0  0  0  0  0  0
  -10.9275    5.2806   -7.3044 H   0  0  0  0  0  0  0  0  0  0  0  0
  -11.7182    3.7792   -7.8359 H   0  0  0  0  0  0  0  0  0  0  0  0
  -11.2778    4.0230   -6.1316 H   0  0  0  0  0  0  0  0  0  0  0  0
   -8.6495    1.6126   -7.4090 H   0  0  0  0  0  0  0  0  0  0  0  0
  -10.3209    1.5973   -7.9430 H   0  0  0  0  0  0  0  0  0  0  0  0
   -9.9537    1.7936   -6.2148 H   0  0  0  0  0  0  0  0  0  0  0  0
   -7.5424    3.7561   -6.6946 H   0  0  0  0  0  0  0  0  0  0  0  0
   -8.4531    5.2816   -6.6641 H   0  0  0  0  0  0  0  0  0  0  0  0
   -8.7605    4.0120   -5.4574 H   0  0  0  0  0  0  0  0  0  0  0  0
   -7.9065    6.4705  -16.8016 H   0  0  0  0  0  0  0  0  0  0  0  0
   -6.8536    5.1068  -17.2417 H   0  0  0  0  0  0  0  0  0  0  0  0
   -8.2655    5.5257  -18.2362 H   0  0  0  0  0  0  0  0  0  0  0  0
   -9.3736    2.4335  -16.3495 H   0  0  0  0  0  0  0  0  0  0  0  0
   -7.7318    2.6890  -16.9137 H   0  0  0  0  0  0  0  0  0  0  0  0
   -9.0976    3.0817  -17.9815 H   0  0  0  0  0  0  0  0  0  0  0  0
  -10.8324    4.3777  -15.6995 H   0  0  0  0  0  0  0  0  0  0  0  0
  -10.2430    6.0467  -15.8562 H   0  0  0  0  0  0  0  0  0  0  0  0
  -10.6558    5.0868  -17.2952 H   0  0  0  0  0  0  0  0  0  0  0  0
  1  7  1  0  0  0  0
  1 16  3  0  0  0  0
  2 17  1  0  0  0  0
  2 19  2  0  0  0  0
  2 21  1  0  0  0  0
  3 18  1  0  0  0  0
  3 20  2  0  0  0  0
  3 22  1  0  0  0  0
  4  5  1  0  0  0  0
  4 17  1  0  0  0  0
  5 18  1  0  0  0  0
  6  7  1  0  0  0  0
  6 17  1  0  0  0  0
  7 18  1  0  0  0  0
  8 14  1  0  0  0  0
  9 14  1  0  0  0  0
 10 14  1  0  0  0  0
 11 15  1  0  0  0  0
 12 15  1  0  0  0  0
 13 15  1  0  0  0  0
 14 21  1  0  0  0  0
 15 22  1  0  0  0  0
  4 23  1  0  0  0  0
  4 24  1  0  0  0  0
  5 25  1  0  0  0  0
  5 26  1  0  0  0  0
  6 27  1  0  0  0  0
  6 28  1  0  0  0  0
  7 29  1  0  0  0  0
  8 30  1  0  0  0  0
  8 31  1  0  0  0  0
  8 32  1  0  0  0  0
  9 33  1  0  0  0  0
  9 34  1  0  0  0  0
  9 35  1  0  0  0  0
 10 36  1  0  0  0  0
 10 37  1  0  0  0  0
 10 38  1  0  0  0  0
 11 39  1  0  0  0  0
 11 40  1  0  0  0  0
 11 41  1  0  0  0  0
 12 42  1  0  0  0  0
 12 43  1  0  0  0  0
 12 44  1  0  0  0  0
 13 45  1  0  0  0  0
 13 46  1  0  0  0  0
 13 47  1  0  0  0  0
M  END
> <id>
EN300-7225980

> <smiles>
CC(C)(C)OC(=O)N1CCN(C(C1)C#N)C(=O)OC(C)(C)C

> <MDLNUMBER>
MFCD09263265

> <IUPAC Name>
1,4-di-tert-butyl 2-cyanopiperazine-1,4-dicarboxylate

> <CAS>
924964-23-8

> <URL>
https://www.enaminestore.com/catalog/EN300-7225980

> <ROCS_ShapeQuery>
_x0404_0B

> <ROCS_TanimotoCombo>
0.382 

> <ROCS_ShapeTanimoto>
0.301 

> <ROCS_ColorTanimoto>
0.082 

> <ROCS_RefTversky>
0.275 

> <ROCS_RefColorTversky>
0.085 

> <ROCS_RefTverskyCombo>
0.360 

> <ROCS_FitTversky>
1.456 

> <ROCS_FitColorTversky>
0.649 

> <ROCS_FitTverskyCombo>
2.105 

> <ROCS_ColorScore>
-6.152

> <ROCS_Overlap>
1833.399

> <ROCS_Rank>
251                 

$$$$
untitled-dbase-45639_38
  -OEChem-08212314543D

 53 54  0     1  0  0  0  0  0999 V2000
   -9.1013    7.8702  -10.0807 C   0  0  0  0  0  0  0  0  0  0  0  0
   -9.4383    9.0821  -10.6831 C   0  0  0  0  0  0  0  0  0  0  0  0
   -9.4484    7.9933  -12.8229 C   0  0  0  0  0  0  0  0  0  0  0  0
   -8.9420    6.6868  -10.8301 C   0  0  0  0  0  0  0  0  0  0  0  0
   -9.0867    6.7602  -12.2435 C   0  0  0  0  0  0  0  0  0  0  0  0
   -9.6227    9.1412  -12.0522 C   0  0  0  0  0  0  0  0  0  0  0  0
   -8.7495    5.6219  -14.4615 C   0  0  0  0  0  0  0  0  0  0  0  0
   -8.6551    5.2358   -8.7893 C   0  0  0  0  0  0  0  0  0  0  0  0
   -8.9301    4.3115  -12.3456 C   0  0  0  0  0  0  0  0  0  0  0  0
   -8.1092    4.3623  -11.0671 C   0  0  1  0  0  0  0  0  0  0  0  0
   -6.6059    4.4872  -11.3366 C   0  0  0  0  0  0  0  0  0  0  0  0
   -7.6153    4.4932  -16.8431 C   0  0  0  0  0  0  0  0  0  0  0  0
   -9.7004    3.0970  -16.9533 C   0  0  0  0  0  0  0  0  0  0  0  0
   -9.8603    5.5984  -17.1135 C   0  0  0  0  0  0  0  0  0  0  0  0
  -10.6371    3.5815   -8.2730 C   0  0  0  0  0  0  0  0  0  0  0  0
   -8.9750    1.7029   -8.1404 C   0  0  0  0  0  0  0  0  0  0  0  0
   -9.1299    3.3703   -6.2685 C   0  0  0  0  0  0  0  0  0  0  0  0
   -9.1016    4.4250  -16.4951 C   0  0  0  0  0  0  0  0  0  0  0  0
   -9.2550    3.1595   -7.7767 C   0  0  0  0  0  0  0  0  0  0  0  0
   -8.9136    5.5860  -13.0610 N   0  0  0  0  0  0  0  0  0  0  0  0
   -8.5812    5.4437  -10.1857 N   0  0  0  0  0  0  0  0  0  0  0  0
   -8.2211    6.5249  -15.1054 O   0  0  0  0  0  0  0  0  0  0  0  0
   -9.0296    6.0524   -7.9519 O   0  0  0  0  0  0  0  0  0  0  0  0
   -9.2399    4.4923  -15.0707 O   0  0  0  0  0  0  0  0  0  0  0  0
   -8.2692    3.9654   -8.4333 O   0  0  0  0  0  0  0  0  0  0  0  0
  -10.1091   10.7733  -12.8720 Br  0  0  0  0  0  0  0  0  0  0  0  0
   -8.9307    7.9084   -9.0110 H   0  0  0  0  0  0  0  0  0  0  0  0
   -9.5492    9.9673  -10.0623 H   0  0  0  0  0  0  0  0  0  0  0  0
   -9.6474    8.0786  -13.8860 H   0  0  0  0  0  0  0  0  0  0  0  0
   -8.5543    3.4978  -12.9744 H   0  0  0  0  0  0  0  0  0  0  0  0
   -9.9797    4.0779  -12.1238 H   0  0  0  0  0  0  0  0  0  0  0  0
   -8.2691    3.4009  -10.5644 H   0  0  0  0  0  0  0  0  0  0  0  0
   -6.4028    5.4309  -11.8364 H   0  0  0  0  0  0  0  0  0  0  0  0
   -6.2802    3.6662  -11.9703 H   0  0  0  0  0  0  0  0  0  0  0  0
   -6.0632    4.4536  -10.3952 H   0  0  0  0  0  0  0  0  0  0  0  0
   -7.1818    5.4450  -16.5158 H   0  0  0  0  0  0  0  0  0  0  0  0
   -7.0540    3.6769  -16.3769 H   0  0  0  0  0  0  0  0  0  0  0  0
   -7.4648    4.4416  -17.9275 H   0  0  0  0  0  0  0  0  0  0  0  0
  -10.7668    3.0437  -16.7056 H   0  0  0  0  0  0  0  0  0  0  0  0
   -9.2219    2.2552  -16.4398 H   0  0  0  0  0  0  0  0  0  0  0  0
   -9.5877    2.9540  -18.0328 H   0  0  0  0  0  0  0  0  0  0  0  0
  -10.9265    5.5497  -16.8640 H   0  0  0  0  0  0  0  0  0  0  0  0
   -9.4679    6.5599  -16.7670 H   0  0  0  0  0  0  0  0  0  0  0  0
   -9.7971    5.5702  -18.2073 H   0  0  0  0  0  0  0  0  0  0  0  0
  -10.8419    4.6265   -8.0140 H   0  0  0  0  0  0  0  0  0  0  0  0
  -10.7280    3.4681   -9.3582 H   0  0  0  0  0  0  0  0  0  0  0  0
  -11.4230    2.9850   -7.7957 H   0  0  0  0  0  0  0  0  0  0  0  0
   -7.9844    1.3959   -7.7862 H   0  0  0  0  0  0  0  0  0  0  0  0
   -8.9701    1.5662   -9.2278 H   0  0  0  0  0  0  0  0  0  0  0  0
   -9.7218    1.0282   -7.7095 H   0  0  0  0  0  0  0  0  0  0  0  0
   -8.1386    3.0677   -5.9122 H   0  0  0  0  0  0  0  0  0  0  0  0
   -9.2913    4.4175   -5.9929 H   0  0  0  0  0  0  0  0  0  0  0  0
   -9.8551    2.7520   -5.7271 H   0  0  0  0  0  0  0  0  0  0  0  0
  1  2  1  0  0  0  0
  1  4  2  0  0  0  0
  2  6  2  0  0  0  0
  3  5  2  0  0  0  0
  3  6  1  0  0  0  0
  4  5  1  0  0  0  0
  4 21  1  0  0  0  0
  5 20  1  0  0  0  0
  6 26  1  0  0  0  0
  7 20  1  0  0  0  0
  7 22  2  0  0  0  0
  7 24  1  0  0  0  0
  8 21  1  0  0  0  0
  8 23  2  0  0  0  0
  8 25  1  0  0  0  0
  9 10  1  0  0  0  0
  9 20  1  0  0  0  0
 10 11  1  6  0  0  0
 10 21  1  0  0  0  0
 12 18  1  0  0  0  0
 13 18  1  0  0  0  0
 14 18  1  0  0  0  0
 15 19  1  0  0  0  0
 16 19  1  0  0  0  0
 17 19  1  0  0  0  0
 18 24  1  0  0  0  0
 19 25  1  0  0  0  0
  1 27  1  0  0  0  0
  2 28  1  0  0  0  0
  3 29  1  0  0  0  0
  9 30  1  0  0  0  0
  9 31  1  0  0  0  0
 10 32  1  0  0  0  0
 11 33  1  0  0  0  0
 11 34  1  0  0  0  0
 11 35  1  0  0  0  0
 12 36  1  0  0  0  0
 12 37  1  0  0  0  0
 12 38  1  0  0  0  0
 13 39  1  0  0  0  0
 13 40  1  0  0  0  0
 13 41  1  0  0  0  0
 14 42  1  0  0  0  0
 14 43  1  0  0  0  0
 14 44  1  0  0  0  0
 15 45  1  0  0  0  0
 15 46  1  0  0  0  0
 15 47  1  0  0  0  0
 16 48  1  0  0  0  0
 16 49  1  0  0  0  0
 16 50  1  0  0  0  0
 17 51  1  0  0  0  0
 17 52  1  0  0  0  0
 17 53  1  0  0  0  0
M  END
> <id>
EN300-28304093

> <smiles>
C[C@@H]1CN(C(=O)OC(C)(C)C)C=2C=C(Br)C=CC2N1C(=O)OC(C)(C)C

> <IUPAC Name>
1,4-di-tert-butyl (2R)-6-bromo-2-methyl-1,2,3,4-tetrahydroquinoxaline-1,4-dicarboxylate

> <CAS>
2679825-84-2

> <URL>
https://www.enaminestore.com/catalog/EN300-28304093

> <ROCS_ShapeQuery>
_x0404_0B

> <ROCS_TanimotoCombo>
0.382 

> <ROCS_ShapeTanimoto>
0.326 

> <ROCS_ColorTanimoto>
0.056 

> <ROCS_RefTversky>
0.299 

> <ROCS_RefColorTversky>
0.061 

> <ROCS_RefTverskyCombo>
0.360 

> <ROCS_FitTversky>
1.384 

> <ROCS_FitColorTversky>
0.420 

> <ROCS_FitTverskyCombo>
1.804 

> <ROCS_ColorScore>
-4.386

> <ROCS_Overlap>
1998.182

> <ROCS_Rank>
252                 

$$$$
untitled-dbase-49779_427
  -OEChem-08212314543D

 44 45  0     1  0  0  0  0  0999 V2000
   -8.7353    5.5218  -11.0426 C   0  0  0  0  0  0  0  0  0  0  0  0
   -9.1803    4.3359  -15.5315 C   0  0  0  0  0  0  0  0  0  0  0  0
   -7.6773    6.3065  -15.8125 C   0  0  0  0  0  0  0  0  0  0  0  0
   -6.8272    4.3251  -14.4754 C   0  0  0  0  0  0  0  0  0  0  0  0
   -8.2524    3.5664  -12.4761 C   0  0  0  0  0  0  0  0  0  0  0  0
   -8.6068    5.8172  -13.5277 C   0  0  0  0  0  0  0  0  0  0  0  0
   -8.7893    3.9210  -16.9471 C   0  0  0  0  0  0  0  0  0  0  0  0
   -7.3739    5.7975  -17.2180 C   0  0  0  0  0  0  0  0  0  0  0  0
   -7.0896    3.2503  -13.4127 C   0  0  1  0  0  0  0  0  0  0  0  0
   -8.0756    5.1692  -14.8333 C   0  0  0  0  0  0  0  0  0  0  0  0
  -10.3417    5.6592   -8.6784 C   0  0  0  0  0  0  0  0  0  0  0  0
   -8.9027    3.7907   -7.8140 C   0  0  0  0  0  0  0  0  0  0  0  0
   -7.8716    6.0165   -8.3531 C   0  0  0  0  0  0  0  0  0  0  0  0
   -8.9588    5.0112   -8.7301 C   0  0  0  0  0  0  0  0  0  0  0  0
   -8.4868    4.9943  -12.3175 N   0  0  0  0  0  0  0  0  0  0  0  0
   -8.9439    6.7108  -10.8091 O   0  0  0  0  0  0  0  0  0  0  0  0
   -8.4773    5.0630  -17.7405 O   0  0  0  0  0  0  0  0  0  0  0  0
   -7.3641    2.0007  -14.0453 O   0  0  0  0  0  0  0  0  0  0  0  0
   -8.7174    4.5585  -10.0672 O   0  0  0  0  0  0  0  0  0  0  0  0
  -10.1279    4.8852  -15.5540 H   0  0  0  0  0  0  0  0  0  0  0  0
   -9.3512    3.4229  -14.9470 H   0  0  0  0  0  0  0  0  0  0  0  0
   -6.7695    6.7921  -15.4274 H   0  0  0  0  0  0  0  0  0  0  0  0
   -8.4498    7.0824  -15.8666 H   0  0  0  0  0  0  0  0  0  0  0  0
   -6.0023    4.9715  -14.1367 H   0  0  0  0  0  0  0  0  0  0  0  0
   -6.4397    3.8337  -15.3834 H   0  0  0  0  0  0  0  0  0  0  0  0
   -9.1878    3.1151  -12.8576 H   0  0  0  0  0  0  0  0  0  0  0  0
   -8.0834    3.0817  -11.4973 H   0  0  0  0  0  0  0  0  0  0  0  0
   -8.1417    6.8122  -13.3601 H   0  0  0  0  0  0  0  0  0  0  0  0
   -9.6924    6.0448  -13.6344 H   0  0  0  0  0  0  0  0  0  0  0  0
   -7.8949    3.2904  -16.9099 H   0  0  0  0  0  0  0  0  0  0  0  0
   -9.5763    3.3362  -17.4358 H   0  0  0  0  0  0  0  0  0  0  0  0
   -7.1161    6.6118  -17.9036 H   0  0  0  0  0  0  0  0  0  0  0  0
   -6.5139    5.1206  -17.1847 H   0  0  0  0  0  0  0  0  0  0  0  0
   -6.1690    3.0901  -12.8072 H   0  0  0  0  0  0  0  0  0  0  0  0
  -10.3861    6.5357   -9.3347 H   0  0  0  0  0  0  0  0  0  0  0  0
  -11.1270    4.9586   -8.9804 H   0  0  0  0  0  0  0  0  0  0  0  0
  -10.5678    6.0180   -7.6678 H   0  0  0  0  0  0  0  0  0  0  0  0
   -7.9122    3.3226   -7.8479 H   0  0  0  0  0  0  0  0  0  0  0  0
   -9.6170    3.0256   -8.1389 H   0  0  0  0  0  0  0  0  0  0  0  0
   -9.1259    4.0546   -6.7752 H   0  0  0  0  0  0  0  0  0  0  0  0
   -6.8796    5.5520   -8.3902 H   0  0  0  0  0  0  0  0  0  0  0  0
   -7.8730    6.8823   -9.0233 H   0  0  0  0  0  0  0  0  0  0  0  0
   -8.0086    6.3715   -7.3253 H   0  0  0  0  0  0  0  0  0  0  0  0
   -6.5803    1.7787  -14.5718 H   0  0  0  0  0  0  0  0  0  0  0  0
  1 15  1  0  0  0  0
  1 16  2  0  0  0  0
  1 19  1  0  0  0  0
  2  7  1  0  0  0  0
  2 10  1  0  0  0  0
  3  8  1  0  0  0  0
  3 10  1  0  0  0  0
  4  9  1  0  0  0  0
  4 10  1  0  0  0  0
  5  9  1  0  0  0  0
  5 15  1  0  0  0  0
  6 10  1  0  0  0  0
  6 15  1  0  0  0  0
  7 17  1  0  0  0  0
  8 17  1  0  0  0  0
  9 18  1  0  0  0  0
 11 14  1  0  0  0  0
 12 14  1  0  0  0  0
 13 14  1  0  0  0  0
 14 19  1  0  0  0  0
  2 20  1  0  0  0  0
  2 21  1  0  0  0  0
  3 22  1  0  0  0  0
  3 23  1  0  0  0  0
  4 24  1  0  0  0  0
  4 25  1  0  0  0  0
  5 26  1  0  0  0  0
  5 27  1  0  0  0  0
  6 28  1  0  0  0  0
  6 29  1  0  0  0  0
  7 30  1  0  0  0  0
  7 31  1  0  0  0  0
  8 32  1  0  0  0  0
  8 33  1  0  0  0  0
  9 34  1  0  0  0  0
 11 35  1  0  0  0  0
 11 36  1  0  0  0  0
 11 37  1  0  0  0  0
 12 38  1  0  0  0  0
 12 39  1  0  0  0  0
 12 40  1  0  0  0  0
 13 41  1  0  0  0  0
 13 42  1  0  0  0  0
 13 43  1  0  0  0  0
 18 44  1  0  0  0  0
M  END
> <id>
EN300-3279369

> <smiles>
CC(C)(C)OC(=O)N1CC(O)CC2(CCOCC2)C1

> <MDLNUMBER>
MFCD31746391

> <IUPAC Name>
tert-butyl 4-hydroxy-9-oxa-2-azaspiro[5.5]undecane-2-carboxylate

> <CAS>
2139865-57-7

> <Purity>
95

> <URL>
https://www.enaminestore.com/catalog/EN300-3279369

> <ROCS_ShapeQuery>
_x0404_0B

> <ROCS_TanimotoCombo>
0.382 

> <ROCS_ShapeTanimoto>
0.293 

> <ROCS_ColorTanimoto>
0.089 

> <ROCS_RefTversky>
0.265 

> <ROCS_RefColorTversky>
0.094 

> <ROCS_RefTverskyCombo>
0.359 

> <ROCS_FitTversky>
1.561 

> <ROCS_FitColorTversky>
0.647 

> <ROCS_FitTverskyCombo>
2.208 

> <ROCS_ColorScore>
-6.747

> <ROCS_Overlap>
1768.005

> <ROCS_Rank>
253                 

$$$$
untitled-dbase-26896_72
  -OEChem-08212314543D

 44 45  0     1  0  0  0  0  0999 V2000
   -8.6156    5.7476  -14.4997 C   0  0  0  0  0  0  0  0  0  0  0  0
   -8.7250    4.4288   -7.9379 C   0  0  0  0  0  0  0  0  0  0  0  0
   -7.7649    4.6993   -9.0909 C   0  0  0  0  0  0  0  0  0  0  0  0
   -7.9111    3.8194  -11.4686 C   0  0  0  0  0  0  0  0  0  0  0  0
   -8.8972    6.0614  -10.9118 C   0  0  0  0  0  0  0  0  0  0  0  0
   -9.9592    3.9608   -9.9185 C   0  0  0  0  0  0  0  0  0  0  0  0
   -8.6238    3.8593  -12.8211 C   0  0  0  0  0  0  0  0  0  0  0  0
   -9.6234    6.0557  -12.2549 C   0  0  0  0  0  0  0  0  0  0  0  0
   -9.7087    3.4156   -8.5098 C   0  0  1  0  0  0  0  0  0  0  0  0
   -8.6329    4.6362  -10.3740 C   0  0  0  0  0  0  0  0  0  0  0  0
   -6.9536    5.8170  -16.8289 C   0  0  0  0  0  0  0  0  0  0  0  0
   -8.4628    4.0238  -17.7323 C   0  0  0  0  0  0  0  0  0  0  0  0
   -9.3958    6.2953  -17.2051 C   0  0  0  0  0  0  0  0  0  0  0  0
   -8.3670    5.2369  -16.8096 C   0  0  0  0  0  0  0  0  0  0  0  0
   -8.9117    5.2354  -13.2323 N   0  0  0  0  0  0  0  0  0  0  0  0
   -9.1145    2.0817   -8.5640 N   0  0  0  0  0  0  0  0  0  0  0  0
   -8.3442    6.9258  -14.7250 O   0  0  0  0  0  0  0  0  0  0  0  0
   -8.6589    4.7918  -15.4799 O   0  0  0  0  0  0  0  0  0  0  0  0
   -8.1701    4.0063   -7.0888 H   0  0  0  0  0  0  0  0  0  0  0  0
   -9.2196    5.3428   -7.5895 H   0  0  0  0  0  0  0  0  0  0  0  0
   -7.3197    5.6896   -8.9576 H   0  0  0  0  0  0  0  0  0  0  0  0
   -6.9508    3.9711   -9.0825 H   0  0  0  0  0  0  0  0  0  0  0  0
   -7.8316    2.7715  -11.1470 H   0  0  0  0  0  0  0  0  0  0  0  0
   -6.8825    4.1820  -11.5954 H   0  0  0  0  0  0  0  0  0  0  0  0
   -7.9573    6.6170  -11.0114 H   0  0  0  0  0  0  0  0  0  0  0  0
   -9.5104    6.6176  -10.1907 H   0  0  0  0  0  0  0  0  0  0  0  0
  -10.2179    3.1325  -10.6034 H   0  0  0  0  0  0  0  0  0  0  0  0
  -10.8179    4.6535   -9.9381 H   0  0  0  0  0  0  0  0  0  0  0  0
   -8.0000    3.4142  -13.6050 H   0  0  0  0  0  0  0  0  0  0  0  0
   -9.5380    3.2608  -12.7640 H   0  0  0  0  0  0  0  0  0  0  0  0
  -10.6462    5.6921  -12.1181 H   0  0  0  0  0  0  0  0  0  0  0  0
   -9.6924    7.0673  -12.6687 H   0  0  0  0  0  0  0  0  0  0  0  0
  -10.6148    3.3852   -7.9369 H   0  0  0  0  0  0  0  0  0  0  0  0
   -6.8807    6.6880  -16.1679 H   0  0  0  0  0  0  0  0  0  0  0  0
   -6.2099    5.0779  -16.5135 H   0  0  0  0  0  0  0  0  0  0  0  0
   -6.6886    6.1679  -17.8329 H   0  0  0  0  0  0  0  0  0  0  0  0
   -9.4753    3.6043  -17.7215 H   0  0  0  0  0  0  0  0  0  0  0  0
   -7.7936    3.2237  -17.3957 H   0  0  0  0  0  0  0  0  0  0  0  0
   -8.2047    4.2802  -18.7649 H   0  0  0  0  0  0  0  0  0  0  0  0
  -10.4097    5.8794  -17.1913 H   0  0  0  0  0  0  0  0  0  0  0  0
   -9.3667    7.1576  -16.5312 H   0  0  0  0  0  0  0  0  0  0  0  0
   -9.2196    6.6468  -18.2282 H   0  0  0  0  0  0  0  0  0  0  0  0
   -8.9165    1.7845   -7.6357 H   0  0  0  0  0  0  0  0  0  0  0  0
   -9.7638    1.4629   -8.9941 H   0  0  0  0  0  0  0  0  0  0  0  0
  1 15  1  0  0  0  0
  1 17  2  0  0  0  0
  1 18  1  0  0  0  0
  2  3  1  0  0  0  0
  2  9  1  0  0  0  0
  3 10  1  0  0  0  0
  4  7  1  0  0  0  0
  4 10  1  0  0  0  0
  5  8  1  0  0  0  0
  5 10  1  0  0  0  0
  6  9  1  0  0  0  0
  6 10  1  0  0  0  0
  7 15  1  0  0  0  0
  8 15  1  0  0  0  0
  9 16  1  0  0  0  0
 11 14  1  0  0  0  0
 12 14  1  0  0  0  0
 13 14  1  0  0  0  0
 14 18  1  0  0  0  0
  2 19  1  0  0  0  0
  2 20  1  0  0  0  0
  3 21  1  0  0  0  0
  3 22  1  0  0  0  0
  4 23  1  0  0  0  0
  4 24  1  0  0  0  0
  5 25  1  0  0  0  0
  5 26  1  0  0  0  0
  6 27  1  0  0  0  0
  6 28  1  0  0  0  0
  7 29  1  0  0  0  0
  7 30  1  0  0  0  0
  8 31  1  0  0  0  0
  8 32  1  0  0  0  0
  9 33  1  0  0  0  0
 11 34  1  0  0  0  0
 11 35  1  0  0  0  0
 11 36  1  0  0  0  0
 12 37  1  0  0  0  0
 12 38  1  0  0  0  0
 12 39  1  0  0  0  0
 13 40  1  0  0  0  0
 13 41  1  0  0  0  0
 13 42  1  0  0  0  0
 16 43  1  0  0  0  0
 16 44  1  0  0  0  0
M  END
> <id>
EN300-1668520

> <smiles>
CC(C)(C)OC(=O)N1CCC2(CCC(N)C2)CC1

> <MDLNUMBER>
MFCD18791679

> <IUPAC Name>
tert-butyl 2-amino-8-azaspiro[4.5]decane-8-carboxylate

> <CAS>
1251010-90-8

> <Purity>
95

> <URL>
https://www.enaminestore.com/catalog/EN300-1668520

> <ROCS_ShapeQuery>
_x0404_0B

> <ROCS_TanimotoCombo>
0.382 

> <ROCS_ShapeTanimoto>
0.304 

> <ROCS_ColorTanimoto>
0.078 

> <ROCS_RefTversky>
0.271 

> <ROCS_RefColorTversky>
0.082 

> <ROCS_RefTverskyCombo>
0.353 

> <ROCS_FitTversky>
1.661 

> <ROCS_FitColorTversky>
0.623 

> <ROCS_FitTverskyCombo>
2.284 

> <ROCS_ColorScore>
-5.905

> <ROCS_Overlap>
1807.224

> <ROCS_Rank>
254                 

$$$$
untitled-dbase-34804_72
  -OEChem-08212314543D

 44 45  0     1  0  0  0  0  0999 V2000
   -8.6156    5.7476  -14.4997 C   0  0  0  0  0  0  0  0  0  0  0  0
   -8.7250    4.4288   -7.9379 C   0  0  0  0  0  0  0  0  0  0  0  0
   -7.7649    4.6993   -9.0909 C   0  0  0  0  0  0  0  0  0  0  0  0
   -7.9111    3.8194  -11.4686 C   0  0  0  0  0  0  0  0  0  0  0  0
   -8.8972    6.0614  -10.9118 C   0  0  0  0  0  0  0  0  0  0  0  0
   -9.9592    3.9608   -9.9185 C   0  0  0  0  0  0  0  0  0  0  0  0
   -8.6238    3.8593  -12.8211 C   0  0  0  0  0  0  0  0  0  0  0  0
   -9.6234    6.0557  -12.2549 C   0  0  0  0  0  0  0  0  0  0  0  0
   -9.7087    3.4156   -8.5098 C   0  0  1  0  0  0  0  0  0  0  0  0
   -8.6329    4.6362  -10.3740 C   0  0  0  0  0  0  0  0  0  0  0  0
   -6.9536    5.8170  -16.8289 C   0  0  0  0  0  0  0  0  0  0  0  0
   -8.4628    4.0238  -17.7323 C   0  0  0  0  0  0  0  0  0  0  0  0
   -9.3958    6.2953  -17.2051 C   0  0  0  0  0  0  0  0  0  0  0  0
   -8.3670    5.2369  -16.8096 C   0  0  0  0  0  0  0  0  0  0  0  0
   -8.9117    5.2354  -13.2323 N   0  0  0  0  0  0  0  0  0  0  0  0
   -9.1145    2.0817   -8.5640 N   0  0  0  0  0  0  0  0  0  0  0  0
   -8.3442    6.9258  -14.7250 O   0  0  0  0  0  0  0  0  0  0  0  0
   -8.6589    4.7918  -15.4799 O   0  0  0  0  0  0  0  0  0  0  0  0
   -8.1701    4.0063   -7.0888 H   0  0  0  0  0  0  0  0  0  0  0  0
   -9.2196    5.3428   -7.5895 H   0  0  0  0  0  0  0  0  0  0  0  0
   -7.3197    5.6896   -8.9576 H   0  0  0  0  0  0  0  0  0  0  0  0
   -6.9508    3.9711   -9.0825 H   0  0  0  0  0  0  0  0  0  0  0  0
   -7.8316    2.7715  -11.1470 H   0  0  0  0  0  0  0  0  0  0  0  0
   -6.8825    4.1820  -11.5954 H   0  0  0  0  0  0  0  0  0  0  0  0
   -7.9573    6.6170  -11.0114 H   0  0  0  0  0  0  0  0  0  0  0  0
   -9.5104    6.6176  -10.1907 H   0  0  0  0  0  0  0  0  0  0  0  0
  -10.2179    3.1325  -10.6034 H   0  0  0  0  0  0  0  0  0  0  0  0
  -10.8179    4.6535   -9.9381 H   0  0  0  0  0  0  0  0  0  0  0  0
   -8.0000    3.4142  -13.6050 H   0  0  0  0  0  0  0  0  0  0  0  0
   -9.5380    3.2608  -12.7640 H   0  0  0  0  0  0  0  0  0  0  0  0
  -10.6462    5.6921  -12.1181 H   0  0  0  0  0  0  0  0  0  0  0  0
   -9.6924    7.0673  -12.6687 H   0  0  0  0  0  0  0  0  0  0  0  0
  -10.6148    3.3852   -7.9369 H   0  0  0  0  0  0  0  0  0  0  0  0
   -6.8807    6.6880  -16.1679 H   0  0  0  0  0  0  0  0  0  0  0  0
   -6.2099    5.0779  -16.5135 H   0  0  0  0  0  0  0  0  0  0  0  0
   -6.6886    6.1679  -17.8329 H   0  0  0  0  0  0  0  0  0  0  0  0
   -9.4753    3.6043  -17.7215 H   0  0  0  0  0  0  0  0  0  0  0  0
   -7.7936    3.2237  -17.3957 H   0  0  0  0  0  0  0  0  0  0  0  0
   -8.2047    4.2802  -18.7649 H   0  0  0  0  0  0  0  0  0  0  0  0
  -10.4097    5.8794  -17.1913 H   0  0  0  0  0  0  0  0  0  0  0  0
   -9.3667    7.1576  -16.5312 H   0  0  0  0  0  0  0  0  0  0  0  0
   -9.2196    6.6468  -18.2282 H   0  0  0  0  0  0  0  0  0  0  0  0
   -8.9165    1.7845   -7.6357 H   0  0  0  0  0  0  0  0  0  0  0  0
   -9.7638    1.4629   -8.9941 H   0  0  0  0  0  0  0  0  0  0  0  0
  1 15  1  0  0  0  0
  1 17  2  0  0  0  0
  1 18  1  0  0  0  0
  2  3  1  0  0  0  0
  2  9  1  0  0  0  0
  3 10  1  0  0  0  0
  4  7  1  0  0  0  0
  4 10  1  0  0  0  0
  5  8  1  0  0  0  0
  5 10  1  0  0  0  0
  6  9  1  0  0  0  0
  6 10  1  0  0  0  0
  7 15  1  0  0  0  0
  8 15  1  0  0  0  0
  9 16  1  0  0  0  0
 11 14  1  0  0  0  0
 12 14  1  0  0  0  0
 13 14  1  0  0  0  0
 14 18  1  0  0  0  0
  2 19  1  0  0  0  0
  2 20  1  0  0  0  0
  3 21  1  0  0  0  0
  3 22  1  0  0  0  0
  4 23  1  0  0  0  0
  4 24  1  0  0  0  0
  5 25  1  0  0  0  0
  5 26  1  0  0  0  0
  6 27  1  0  0  0  0
  6 28  1  0  0  0  0
  7 29  1  0  0  0  0
  7 30  1  0  0  0  0
  8 31  1  0  0  0  0
  8 32  1  0  0  0  0
  9 33  1  0  0  0  0
 11 34  1  0  0  0  0
 11 35  1  0  0  0  0
 11 36  1  0  0  0  0
 12 37  1  0  0  0  0
 12 38  1  0  0  0  0
 12 39  1  0  0  0  0
 13 40  1  0  0  0  0
 13 41  1  0  0  0  0
 13 42  1  0  0  0  0
 16 43  1  0  0  0  0
 16 44  1  0  0  0  0
M  END
> <id>
EN300-27082210

> <smiles>
Cl.CC(C)(C)OC(=O)N1CCC2(CCC(N)C2)CC1

> <MDLNUMBER>
MFCD32703054

> <IUPAC Name>
tert-butyl 2-amino-8-azaspiro[4.5]decane-8-carboxylate hydrochloride

> <CAS>
2460756-16-3

> <Purity>
95

> <URL>
https://www.enaminestore.com/catalog/EN300-27082210

> <Saltdate>
Cl

> <ROCS_ShapeQuery>
_x0404_0B

> <ROCS_TanimotoCombo>
0.382 

> <ROCS_ShapeTanimoto>
0.304 

> <ROCS_ColorTanimoto>
0.078 

> <ROCS_RefTversky>
0.271 

> <ROCS_RefColorTversky>
0.082 

> <ROCS_RefTverskyCombo>
0.353 

> <ROCS_FitTversky>
1.661 

> <ROCS_FitColorTversky>
0.623 

> <ROCS_FitTverskyCombo>
2.284 

> <ROCS_ColorScore>
-5.905

> <ROCS_Overlap>
1807.224

> <ROCS_Rank>
255                 

$$$$
untitled-dbase-14978_97
  -OEChem-08212314543D

 42 44  0     1  0  0  0  0  0999 V2000
   -9.1044    2.6050   -7.4623 C   0  0  0  0  0  0  0  0  0  0  0  0
   -8.9197    2.5057   -8.8213 C   0  0  0  0  0  0  0  0  0  0  0  0
   -9.0147    4.6272   -8.1644 C   0  0  0  0  0  0  0  0  0  0  0  0
   -8.8614    5.9506  -14.3539 C   0  0  0  0  0  0  0  0  0  0  0  0
  -10.0209    4.1601  -11.4065 C   0  0  0  0  0  0  0  0  0  0  0  0
  -10.2435    5.2827  -12.4139 C   0  0  0  0  0  0  0  0  0  0  0  0
   -8.8620    6.5847   -9.6412 C   0  0  0  0  0  0  0  0  0  0  0  0
   -7.9793    6.2587  -12.0267 C   0  0  0  0  0  0  0  0  0  0  0  0
   -8.0909    5.6725  -10.6132 C   0  0  2  0  0  0  0  0  0  0  0  0
   -8.6986    4.2588  -10.6255 C   0  0  1  0  0  0  0  0  0  0  0  0
   -8.0750    4.9203  -16.9052 C   0  0  0  0  0  0  0  0  0  0  0  0
  -10.4259    4.0518  -17.0734 C   0  0  0  0  0  0  0  0  0  0  0  0
  -10.0143    6.5245  -16.9163 C   0  0  0  0  0  0  0  0  0  0  0  0
   -9.5285    5.1404  -16.4885 C   0  0  0  0  0  0  0  0  0  0  0  0
   -9.1616    3.9182   -7.0621 N   0  0  0  0  0  0  0  0  0  0  0  0
   -8.8740    3.7975   -9.2526 N   0  0  0  0  0  0  0  0  0  0  0  0
   -8.9666    5.9698   -8.3259 N   0  0  0  0  0  0  0  0  0  0  0  0
   -8.9971    5.7878  -12.9695 N   0  0  0  0  0  0  0  0  0  0  0  0
   -8.1496    6.7985  -14.8888 O   0  0  0  0  0  0  0  0  0  0  0  0
   -9.6126    5.0484  -15.0618 O   0  0  0  0  0  0  0  0  0  0  0  0
   -9.1963    1.7981   -6.7500 H   0  0  0  0  0  0  0  0  0  0  0  0
   -8.8260    1.6602   -9.4877 H   0  0  0  0  0  0  0  0  0  0  0  0
  -10.8789    4.1322  -10.7028 H   0  0  0  0  0  0  0  0  0  0  0  0
  -10.0664    3.1868  -11.9363 H   0  0  0  0  0  0  0  0  0  0  0  0
  -10.8574    4.9217  -13.2576 H   0  0  0  0  0  0  0  0  0  0  0  0
  -10.8173    6.0962  -11.9393 H   0  0  0  0  0  0  0  0  0  0  0  0
   -8.3461    7.5462   -9.5435 H   0  0  0  0  0  0  0  0  0  0  0  0
   -9.8708    6.7986  -10.0116 H   0  0  0  0  0  0  0  0  0  0  0  0
   -7.9659    7.3661  -11.9738 H   0  0  0  0  0  0  0  0  0  0  0  0
   -6.9978    5.9814  -12.4650 H   0  0  0  0  0  0  0  0  0  0  0  0
   -7.0532    5.5896  -10.2166 H   0  0  0  0  0  0  0  0  0  0  0  0
   -7.9657    3.5693  -11.0833 H   0  0  0  0  0  0  0  0  0  0  0  0
   -7.4276    5.6996  -16.4874 H   0  0  0  0  0  0  0  0  0  0  0  0
   -7.7036    3.9451  -16.5738 H   0  0  0  0  0  0  0  0  0  0  0  0
   -7.9671    4.9799  -17.9942 H   0  0  0  0  0  0  0  0  0  0  0  0
  -11.4698    4.2058  -16.7770 H   0  0  0  0  0  0  0  0  0  0  0  0
  -10.1396    3.0643  -16.6938 H   0  0  0  0  0  0  0  0  0  0  0  0
  -10.3754    4.0309  -18.1668 H   0  0  0  0  0  0  0  0  0  0  0  0
  -11.0569    6.6826  -16.6175 H   0  0  0  0  0  0  0  0  0  0  0  0
   -9.4043    7.3199  -16.4760 H   0  0  0  0  0  0  0  0  0  0  0  0
   -9.9863    6.6274  -18.0071 H   0  0  0  0  0  0  0  0  0  0  0  0
   -9.0890    6.5932   -7.5324 H   0  0  0  0  0  0  0  0  0  0  0  0
  1  2  2  0  0  0  0
  1 15  1  0  0  0  0
  2 16  1  0  0  0  0
  3 15  2  0  0  0  0
  3 16  1  0  0  0  0
  3 17  1  0  0  0  0
  4 18  1  0  0  0  0
  4 19  2  0  0  0  0
  4 20  1  0  0  0  0
  5  6  1  0  0  0  0
  5 10  1  0  0  0  0
  6 18  1  0  0  0  0
  7  9  1  0  0  0  0
  7 17  1  0  0  0  0
  8  9  1  0  0  0  0
  8 18  1  0  0  0  0
  9 10  1  0  0  0  0
 10 16  1  0  0  0  0
 11 14  1  0  0  0  0
 12 14  1  0  0  0  0
 13 14  1  0  0  0  0
 14 20  1  0  0  0  0
  1 21  1  0  0  0  0
  2 22  1  0  0  0  0
  5 23  1  0  0  0  0
  5 24  1  0  0  0  0
  6 25  1  0  0  0  0
  6 26  1  0  0  0  0
  7 27  1  0  0  0  0
  7 28  1  0  0  0  0
  8 29  1  0  0  0  0
  8 30  1  0  0  0  0
  9 31  1  0  0  0  0
 10 32  1  0  0  0  0
 11 33  1  0  0  0  0
 11 34  1  0  0  0  0
 11 35  1  0  0  0  0
 12 36  1  0  0  0  0
 12 37  1  0  0  0  0
 12 38  1  0  0  0  0
 13 39  1  0  0  0  0
 13 40  1  0  0  0  0
 13 41  1  0  0  0  0
 17 42  1  0  0  0  0
M  END
> <id>
EN300-1118512

> <smiles>
CC(C)(C)OC(=O)N1CCC2C(CNC3=NC=CN23)C1

> <IUPAC Name>
tert-butyl 2,5,7,11-tetraazatricyclo[7.4.0.0,2,6]trideca-3,5-diene-11-carboxylate

> <CAS>
1690891-96-3

> <URL>
https://www.enaminestore.com/catalog/EN300-1118512

> <ROCS_ShapeQuery>
_x0404_0B

> <ROCS_TanimotoCombo>
0.382 

> <ROCS_ShapeTanimoto>
0.307 

> <ROCS_ColorTanimoto>
0.075 

> <ROCS_RefTversky>
0.278 

> <ROCS_RefColorTversky>
0.080 

> <ROCS_RefTverskyCombo>
0.358 

> <ROCS_FitTversky>
1.522 

> <ROCS_FitColorTversky>
0.509 

> <ROCS_FitTverskyCombo>
2.031 

> <ROCS_ColorScore>
-5.811

> <ROCS_Overlap>
1854.491

> <ROCS_Rank>
256                 

$$$$
untitled-dbase-52301_45
  -OEChem-08212314543D

 42 44  0     0  0  0  0  0  0999 V2000
   -8.4093    4.8688  -17.7485 C   0  0  0  0  0  0  0  0  0  0  0  0
   -7.3874    5.7223  -17.3362 C   0  0  0  0  0  0  0  0  0  0  0  0
   -9.3543    4.4143  -16.8293 C   0  0  0  0  0  0  0  0  0  0  0  0
   -7.3019    6.1193  -16.0013 C   0  0  0  0  0  0  0  0  0  0  0  0
   -9.2852    4.8187  -15.4910 C   0  0  0  0  0  0  0  0  0  0  0  0
   -8.2378    5.6605  -15.0678 C   0  0  0  0  0  0  0  0  0  0  0  0
   -8.6449    5.1768   -9.3354 C   0  0  0  0  0  0  0  0  0  0  0  0
  -10.2899    4.3110  -14.4844 C   0  0  0  0  0  0  0  0  0  0  0  0
  -10.4359    5.2709  -13.2982 C   0  0  0  0  0  0  0  0  0  0  0  0
   -9.0780    6.5280  -11.4734 C   0  0  0  0  0  0  0  0  0  0  0  0
   -8.4024    4.5138  -11.8192 C   0  0  0  0  0  0  0  0  0  0  0  0
   -9.0651    5.5947  -12.7041 C   0  0  0  0  0  0  0  0  0  0  0  0
  -10.5793    3.5761   -8.5984 C   0  0  0  0  0  0  0  0  0  0  0  0
   -8.9543    1.6615   -8.6519 C   0  0  0  0  0  0  0  0  0  0  0  0
   -8.8565    3.3330   -6.7798 C   0  0  0  0  0  0  0  0  0  0  0  0
   -9.1588    3.1241   -8.2630 C   0  0  0  0  0  0  0  0  0  0  0  0
   -8.1715    6.0660  -13.7224 N   0  0  0  0  0  0  0  0  0  0  0  0
   -8.7064    5.3678  -10.6878 N   0  0  0  0  0  0  0  0  0  0  0  0
   -8.9200    6.0367   -8.5033 O   0  0  0  0  0  0  0  0  0  0  0  0
   -8.2382    3.9073   -9.0307 O   0  0  0  0  0  0  0  0  0  0  0  0
   -8.4698    4.5574  -18.7874 H   0  0  0  0  0  0  0  0  0  0  0  0
   -6.6568    6.0810  -18.0556 H   0  0  0  0  0  0  0  0  0  0  0  0
  -10.1414    3.7426  -17.1614 H   0  0  0  0  0  0  0  0  0  0  0  0
   -6.5034    6.7913  -15.6967 H   0  0  0  0  0  0  0  0  0  0  0  0
  -11.2540    4.1902  -14.9928 H   0  0  0  0  0  0  0  0  0  0  0  0
   -9.9833    3.3282  -14.1077 H   0  0  0  0  0  0  0  0  0  0  0  0
  -10.9491    6.1832  -13.6252 H   0  0  0  0  0  0  0  0  0  0  0  0
  -11.0711    4.8082  -12.5306 H   0  0  0  0  0  0  0  0  0  0  0  0
   -8.3158    7.3133  -11.4425 H   0  0  0  0  0  0  0  0  0  0  0  0
  -10.0512    6.9451  -11.1990 H   0  0  0  0  0  0  0  0  0  0  0  0
   -8.9136    3.5483  -11.7830 H   0  0  0  0  0  0  0  0  0  0  0  0
   -7.3270    4.3596  -11.9471 H   0  0  0  0  0  0  0  0  0  0  0  0
  -10.7301    4.6255   -8.3208 H   0  0  0  0  0  0  0  0  0  0  0  0
  -10.7969    3.4641   -9.6656 H   0  0  0  0  0  0  0  0  0  0  0  0
  -11.3179    2.9973   -8.0321 H   0  0  0  0  0  0  0  0  0  0  0  0
   -7.9364    1.3329   -8.4130 H   0  0  0  0  0  0  0  0  0  0  0  0
   -9.0775    1.5240   -9.7323 H   0  0  0  0  0  0  0  0  0  0  0  0
   -9.6611    1.0036   -8.1359 H   0  0  0  0  0  0  0  0  0  0  0  0
   -7.8376    3.0088   -6.5390 H   0  0  0  0  0  0  0  0  0  0  0  0
   -8.9623    4.3837   -6.4908 H   0  0  0  0  0  0  0  0  0  0  0  0
   -9.5279    2.7311   -6.1568 H   0  0  0  0  0  0  0  0  0  0  0  0
   -7.5721    6.8576  -13.5137 H   0  0  0  0  0  0  0  0  0  0  0  0
  1  2  2  0  0  0  0
  1  3  1  0  0  0  0
  2  4  1  0  0  0  0
  3  5  2  0  0  0  0
  4  6  2  0  0  0  0
  5  6  1  0  0  0  0
  5  8  1  0  0  0  0
  6 17  1  0  0  0  0
  7 18  1  0  0  0  0
  7 19  2  0  0  0  0
  7 20  1  0  0  0  0
  8  9  1  0  0  0  0
  9 12  1  0  0  0  0
 10 12  1  0  0  0  0
 10 18  1  0  0  0  0
 11 12  1  0  0  0  0
 11 18  1  0  0  0  0
 12 17  1  0  0  0  0
 13 16  1  0  0  0  0
 14 16  1  0  0  0  0
 15 16  1  0  0  0  0
 16 20  1  0  0  0  0
  1 21  1  0  0  0  0
  2 22  1  0  0  0  0
  3 23  1  0  0  0  0
  4 24  1  0  0  0  0
  8 25  1  0  0  0  0
  8 26  1  0  0  0  0
  9 27  1  0  0  0  0
  9 28  1  0  0  0  0
 10 29  1  0  0  0  0
 10 30  1  0  0  0  0
 11 31  1  0  0  0  0
 11 32  1  0  0  0  0
 13 33  1  0  0  0  0
 13 34  1  0  0  0  0
 13 35  1  0  0  0  0
 14 36  1  0  0  0  0
 14 37  1  0  0  0  0
 14 38  1  0  0  0  0
 15 39  1  0  0  0  0
 15 40  1  0  0  0  0
 15 41  1  0  0  0  0
 17 42  1  0  0  0  0
M  END
> <id>
EN300-39926449

> <smiles>
CC(C)(C)OC(=O)N1CC2(C1)CCC=3C=CC=CC3N2

> <IUPAC Name>
tert-butyl 3',4'-dihydro-1'H-spiro[azetidine-3,2'-quinoline]-1-carboxylate

> <URL>
https://www.enaminestore.com/catalog/EN300-39926449

> <ROCS_ShapeQuery>
_x0404_0B

> <ROCS_TanimotoCombo>
0.382 

> <ROCS_ShapeTanimoto>
0.335 

> <ROCS_ColorTanimoto>
0.047 

> <ROCS_RefTversky>
0.296 

> <ROCS_RefColorTversky>
0.051 

> <ROCS_RefTverskyCombo>
0.347 

> <ROCS_FitTversky>
1.635 

> <ROCS_FitColorTversky>
0.387 

> <ROCS_FitTverskyCombo>
2.022 

> <ROCS_ColorScore>
-3.670

> <ROCS_Overlap>
1976.615

> <ROCS_Rank>
257                 

$$$$
untitled-dbase-45751_0
  -OEChem-08212314543D

 40 41  0     1  0  0  0  0  0999 V2000
   -8.6137    7.9224  -13.0968 C   0  0  0  0  0  0  0  0  0  0  0  0
   -8.8584    6.8411  -10.8687 C   0  0  0  0  0  0  0  0  0  0  0  0
   -8.6740    6.7732  -12.2631 C   0  0  0  0  0  0  0  0  0  0  0  0
   -8.6350    5.4254  -12.5549 C   0  0  0  0  0  0  0  0  0  0  0  0
   -8.3590    5.3619  -14.9574 C   0  0  0  0  0  0  0  0  0  0  0  0
   -8.0911    2.6605  -12.3326 C   0  0  0  0  0  0  0  0  0  0  0  0
   -8.7492    3.3535  -11.1308 C   0  0  1  0  0  0  0  0  0  0  0  0
   -8.6094    3.1990  -13.6760 C   0  0  1  0  0  0  0  0  0  0  0  0
  -10.0465    2.7462  -13.9558 C   0  0  0  0  0  0  0  0  0  0  0  0
   -6.8464    5.8757  -17.3395 C   0  0  0  0  0  0  0  0  0  0  0  0
   -8.1275    3.9631  -18.3446 C   0  0  0  0  0  0  0  0  0  0  0  0
   -9.3482    6.0188  -17.5749 C   0  0  0  0  0  0  0  0  0  0  0  0
   -8.0476    2.9283   -9.8384 C   0  0  0  0  0  0  0  0  0  0  0  0
   -8.1592    5.0939  -17.3187 C   0  0  0  0  0  0  0  0  0  0  0  0
   -8.5643    8.8609  -13.7776 N   0  0  0  0  0  0  0  0  0  0  0  0
   -8.9250    5.6378  -10.2994 N   0  0  0  0  0  0  0  0  0  0  0  0
   -8.7495    4.7970  -11.3356 N   0  0  0  0  0  0  0  0  0  0  0  0
   -8.5117    4.6804  -13.7346 N   0  0  0  0  0  0  0  0  0  0  0  0
   -8.2701    6.5789  -15.1018 O   0  0  0  0  0  0  0  0  0  0  0  0
   -8.3148    4.4988  -16.0250 O   0  0  0  0  0  0  0  0  0  0  0  0
   -8.1455    1.6007   -9.6816 F   0  0  0  0  0  0  0  0  0  0  0  0
   -6.7521    3.2684   -9.8894 F   0  0  0  0  0  0  0  0  0  0  0  0
   -8.6183    3.5358   -8.7886 F   0  0  0  0  0  0  0  0  0  0  0  0
   -8.9578    7.7156  -10.2407 H   0  0  0  0  0  0  0  0  0  0  0  0
   -7.0039    2.8178  -12.2975 H   0  0  0  0  0  0  0  0  0  0  0  0
   -8.2489    1.5766  -12.2726 H   0  0  0  0  0  0  0  0  0  0  0  0
   -9.8059    3.0662  -11.0673 H   0  0  0  0  0  0  0  0  0  0  0  0
   -7.9659    2.7692  -14.4547 H   0  0  0  0  0  0  0  0  0  0  0  0
  -10.7103    3.1567  -13.1996 H   0  0  0  0  0  0  0  0  0  0  0  0
  -10.0967    1.6610  -13.9301 H   0  0  0  0  0  0  0  0  0  0  0  0
  -10.3539    3.0993  -14.9366 H   0  0  0  0  0  0  0  0  0  0  0  0
   -6.8651    6.6883  -16.6045 H   0  0  0  0  0  0  0  0  0  0  0  0
   -5.9891    5.2302  -17.1225 H   0  0  0  0  0  0  0  0  0  0  0  0
   -6.6869    6.3462  -18.3165 H   0  0  0  0  0  0  0  0  0  0  0  0
   -9.0675    3.3996  -18.3331 H   0  0  0  0  0  0  0  0  0  0  0  0
   -7.3340    3.2447  -18.1092 H   0  0  0  0  0  0  0  0  0  0  0  0
   -7.9628    4.3419  -19.3585 H   0  0  0  0  0  0  0  0  0  0  0  0
  -10.2899    5.4583  -17.5601 H   0  0  0  0  0  0  0  0  0  0  0  0
   -9.4082    6.8154  -16.8262 H   0  0  0  0  0  0  0  0  0  0  0  0
   -9.2775    6.4784  -18.5674 H   0  0  0  0  0  0  0  0  0  0  0  0
  1  3  1  0  0  0  0
  1 15  3  0  0  0  0
  2  3  1  0  0  0  0
  2 16  2  0  0  0  0
  3  4  2  0  0  0  0
  4 17  1  0  0  0  0
  4 18  1  0  0  0  0
  5 18  1  0  0  0  0
  5 19  2  0  0  0  0
  5 20  1  0  0  0  0
  6  7  1  0  0  0  0
  6  8  1  0  0  0  0
  7 13  1  0  0  0  0
  7 17  1  0  0  0  0
  8  9  1  0  0  0  0
  8 18  1  0  0  0  0
 10 14  1  0  0  0  0
 11 14  1  0  0  0  0
 12 14  1  0  0  0  0
 13 21  1  0  0  0  0
 13 22  1  0  0  0  0
 13 23  1  0  0  0  0
 14 20  1  0  0  0  0
 16 17  1  0  0  0  0
  2 24  1  0  0  0  0
  6 25  1  0  0  0  0
  6 26  1  0  0  0  0
  7 27  1  0  0  0  0
  8 28  1  0  0  0  0
  9 29  1  0  0  0  0
  9 30  1  0  0  0  0
  9 31  1  0  0  0  0
 10 32  1  0  0  0  0
 10 33  1  0  0  0  0
 10 34  1  0  0  0  0
 11 35  1  0  0  0  0
 11 36  1  0  0  0  0
 11 37  1  0  0  0  0
 12 38  1  0  0  0  0
 12 39  1  0  0  0  0
 12 40  1  0  0  0  0
M  END
> <id>
EN300-28295601

> <smiles>
CC1CC(N2N=CC(C#N)=C2N1C(=O)OC(C)(C)C)C(F)(F)F

> <IUPAC Name>
tert-butyl 3-cyano-5-methyl-7-(trifluoromethyl)-4H,5H,6H,7H-pyrazolo[1,5-a]pyrimidine-4-carboxylate

> <CAS>
2680670-41-9

> <URL>
https://www.enaminestore.com/catalog/EN300-28295601

> <ROCS_ShapeQuery>
_x0404_0B

> <ROCS_TanimotoCombo>
0.382 

> <ROCS_ShapeTanimoto>
0.317 

> <ROCS_ColorTanimoto>
0.064 

> <ROCS_RefTversky>
0.290 

> <ROCS_RefColorTversky>
0.069 

> <ROCS_RefTverskyCombo>
0.358 

> <ROCS_FitTversky>
1.426 

> <ROCS_FitColorTversky>
0.520 

> <ROCS_FitTverskyCombo>
1.947 

> <ROCS_ColorScore>
-4.945

> <ROCS_Overlap>
1935.997

> <ROCS_Rank>
258                 

$$$$
untitled-dbase-29298_37
  -OEChem-08212314543D

 41 42  0     1  0  0  0  0  0999 V2000
   -8.6492    5.6835  -14.3560 C   0  0  0  0  0  0  0  0  0  0  0  0
   -8.6629    3.5764  -11.2320 C   0  0  0  0  0  0  0  0  0  0  0  0
   -9.1742    6.0221  -10.6968 C   0  0  0  0  0  0  0  0  0  0  0  0
  -10.1898    4.1969   -9.2629 C   0  0  0  0  0  0  0  0  0  0  0  0
   -9.2172    3.9800  -12.5936 C   0  0  0  0  0  0  0  0  0  0  0  0
   -8.3510    6.2416  -11.9616 C   0  0  0  0  0  0  0  0  0  0  0  0
   -8.2567    4.2003   -7.9233 C   0  0  0  0  0  0  0  0  0  0  0  0
   -9.5642    3.4646   -8.0985 C   0  0  2  0  0  0  0  0  0  0  0  0
   -8.9858    4.6043  -10.1262 C   0  0  0  0  0  0  0  0  0  0  0  0
   -7.5831    5.3288  -16.9870 C   0  0  0  0  0  0  0  0  0  0  0  0
   -9.5332    3.7927  -17.3703 C   0  0  0  0  0  0  0  0  0  0  0  0
   -9.9338    6.2196  -16.8624 C   0  0  0  0  0  0  0  0  0  0  0  0
   -9.0292    5.0151  -16.6061 C   0  0  0  0  0  0  0  0  0  0  0  0
   -8.7324    5.2992  -13.0141 N   0  0  0  0  0  0  0  0  0  0  0  0
   -8.2473    6.7810  -14.7380 O   0  0  0  0  0  0  0  0  0  0  0  0
   -7.8480    4.6250   -9.2317 O   0  0  0  0  0  0  0  0  0  0  0  0
   -9.2976    2.1104   -8.4381 O   0  0  0  0  0  0  0  0  0  0  0  0
   -9.0745    4.6998  -15.2098 O   0  0  0  0  0  0  0  0  0  0  0  0
   -9.0724    2.5939  -10.9553 H   0  0  0  0  0  0  0  0  0  0  0  0
   -7.5764    3.4544  -11.3347 H   0  0  0  0  0  0  0  0  0  0  0  0
   -8.8650    6.7666   -9.9549 H   0  0  0  0  0  0  0  0  0  0  0  0
  -10.2334    6.1953  -10.9194 H   0  0  0  0  0  0  0  0  0  0  0  0
  -10.9203    3.5972   -9.8157 H   0  0  0  0  0  0  0  0  0  0  0  0
  -10.7025    5.0902   -8.8842 H   0  0  0  0  0  0  0  0  0  0  0  0
   -8.9045    3.2632  -13.3678 H   0  0  0  0  0  0  0  0  0  0  0  0
  -10.3139    3.9500  -12.5647 H   0  0  0  0  0  0  0  0  0  0  0  0
   -8.4696    7.2742  -12.3070 H   0  0  0  0  0  0  0  0  0  0  0  0
   -7.2834    6.0883  -11.7619 H   0  0  0  0  0  0  0  0  0  0  0  0
   -8.3881    5.1017   -7.3158 H   0  0  0  0  0  0  0  0  0  0  0  0
   -7.4629    3.5857   -7.4902 H   0  0  0  0  0  0  0  0  0  0  0  0
  -10.1808    3.4743   -7.1961 H   0  0  0  0  0  0  0  0  0  0  0  0
   -7.2177    6.2056  -16.4405 H   0  0  0  0  0  0  0  0  0  0  0  0
   -6.9181    4.4852  -16.7754 H   0  0  0  0  0  0  0  0  0  0  0  0
   -7.5036    5.5734  -18.0524 H   0  0  0  0  0  0  0  0  0  0  0  0
  -10.5704    3.5640  -17.1001 H   0  0  0  0  0  0  0  0  0  0  0  0
   -8.9447    2.9037  -17.1162 H   0  0  0  0  0  0  0  0  0  0  0  0
   -9.4824    3.9442  -18.4534 H   0  0  0  0  0  0  0  0  0  0  0  0
  -10.9711    5.9948  -16.5892 H   0  0  0  0  0  0  0  0  0  0  0  0
   -9.6088    7.0965  -16.2931 H   0  0  0  0  0  0  0  0  0  0  0  0
   -9.9438    6.4798  -17.9270 H   0  0  0  0  0  0  0  0  0  0  0  0
   -8.8996    1.6983   -7.6543 H   0  0  0  0  0  0  0  0  0  0  0  0
  1 14  1  0  0  0  0
  1 15  2  0  0  0  0
  1 18  1  0  0  0  0
  2  5  1  0  0  0  0
  2  9  1  0  0  0  0
  3  6  1  0  0  0  0
  3  9  1  0  0  0  0
  4  8  1  0  0  0  0
  4  9  1  0  0  0  0
  5 14  1  0  0  0  0
  6 14  1  0  0  0  0
  7  8  1  0  0  0  0
  7 16  1  0  0  0  0
  8 17  1  0  0  0  0
  9 16  1  0  0  0  0
 10 13  1  0  0  0  0
 11 13  1  0  0  0  0
 12 13  1  0  0  0  0
 13 18  1  0  0  0  0
  2 19  1  0  0  0  0
  2 20  1  0  0  0  0
  3 21  1  0  0  0  0
  3 22  1  0  0  0  0
  4 23  1  0  0  0  0
  4 24  1  0  0  0  0
  5 25  1  0  0  0  0
  5 26  1  0  0  0  0
  6 27  1  0  0  0  0
  6 28  1  0  0  0  0
  7 29  1  0  0  0  0
  7 30  1  0  0  0  0
  8 31  1  0  0  0  0
 10 32  1  0  0  0  0
 10 33  1  0  0  0  0
 10 34  1  0  0  0  0
 11 35  1  0  0  0  0
 11 36  1  0  0  0  0
 11 37  1  0  0  0  0
 12 38  1  0  0  0  0
 12 39  1  0  0  0  0
 12 40  1  0  0  0  0
 17 41  1  0  0  0  0
M  END
> <id>
EN300-154286

> <smiles>
CC(C)(C)OC(=O)N1CCC2(CC(O)CO2)CC1

> <MDLNUMBER>
MFCD09749842

> <IUPAC Name>
tert-butyl 3-hydroxy-1-oxa-8-azaspiro[4.5]decane-8-carboxylate

> <CAS>
240401-09-6

> <Purity>
95

> <URL>
https://www.enaminestore.com/catalog/EN300-154286

> <ROCS_ShapeQuery>
_x0404_0B

> <ROCS_TanimotoCombo>
0.382 

> <ROCS_ShapeTanimoto>
0.299 

> <ROCS_ColorTanimoto>
0.083 

> <ROCS_RefTversky>
0.268 

> <ROCS_RefColorTversky>
0.088 

> <ROCS_RefTverskyCombo>
0.356 

> <ROCS_FitTversky>
1.622 

> <ROCS_FitColorTversky>
0.608 

> <ROCS_FitTverskyCombo>
2.230 

> <ROCS_ColorScore>
-6.346

> <ROCS_Overlap>
1785.773

> <ROCS_Rank>
259                 

$$$$
untitled-dbase-50874_0
  -OEChem-08212314543D

 31 34  0     0  0  0  0  0  0999 V2000
   -9.0591    4.8187   -7.9722 C   0  0  0  0  0  0  0  0  0  0  0  0
   -9.5288    2.4034  -10.7927 C   0  0  0  0  0  0  0  0  0  0  0  0
   -9.4460    2.9360   -9.4942 C   0  0  0  0  0  0  0  0  0  0  0  0
   -9.3076    3.2114  -11.9100 C   0  0  0  0  0  0  0  0  0  0  0  0
   -8.4789    5.9413  -18.0833 C   0  0  0  0  0  0  0  0  0  0  0  0
   -8.7195    4.7917  -18.8367 C   0  0  0  0  0  0  0  0  0  0  0  0
   -9.1409    4.2853   -9.2942 C   0  0  0  0  0  0  0  0  0  0  0  0
   -9.0076    4.5405  -11.6862 C   0  0  0  0  0  0  0  0  0  0  0  0
   -8.5371    5.8836  -16.6880 C   0  0  0  0  0  0  0  0  0  0  0  0
   -8.9238    5.0765  -10.4094 C   0  0  0  0  0  0  0  0  0  0  0  0
   -8.8387    4.6653  -16.0425 C   0  0  0  0  0  0  0  0  0  0  0  0
   -9.0180    3.5857  -18.2022 C   0  0  0  0  0  0  0  0  0  0  0  0
   -9.0778    3.5205  -16.8094 C   0  0  0  0  0  0  0  0  0  0  0  0
   -8.2888    7.0737  -15.8615 C   0  0  0  0  0  0  0  0  0  0  0  0
   -8.3515    6.9878  -14.5225 C   0  0  0  0  0  0  0  0  0  0  0  0
   -8.7147    5.6967  -12.4994 C   0  0  0  0  0  0  0  0  0  0  0  0
   -8.6631    5.7319  -13.8414 C   0  0  0  0  0  0  0  0  0  0  0  0
   -8.9927    5.2523   -6.8978 N   0  0  0  0  0  0  0  0  0  0  0  0
   -8.6067    6.4471  -10.4363 N   0  0  0  0  0  0  0  0  0  0  0  0
   -8.4927    6.7745  -11.6608 N   0  0  0  0  0  0  0  0  0  0  0  0
   -8.8931    4.6232  -14.6374 N   0  0  0  0  0  0  0  0  0  0  0  0
   -9.2474    2.4864  -18.9323 F   0  0  0  0  0  0  0  0  0  0  0  0
   -9.3645    2.3541  -16.2144 F   0  0  0  0  0  0  0  0  0  0  0  0
   -9.7679    1.3518  -10.9263 H   0  0  0  0  0  0  0  0  0  0  0  0
   -9.6243    2.2770   -8.6468 H   0  0  0  0  0  0  0  0  0  0  0  0
   -9.3721    2.8000  -12.9107 H   0  0  0  0  0  0  0  0  0  0  0  0
   -8.2475    6.8722  -18.5946 H   0  0  0  0  0  0  0  0  0  0  0  0
   -8.6739    4.8358  -19.9211 H   0  0  0  0  0  0  0  0  0  0  0  0
   -8.0562    8.0131  -16.3505 H   0  0  0  0  0  0  0  0  0  0  0  0
   -8.1659    7.8743  -13.9228 H   0  0  0  0  0  0  0  0  0  0  0  0
   -9.1109    3.7437  -14.1858 H   0  0  0  0  0  0  0  0  0  0  0  0
  1  7  1  0  0  0  0
  1 18  3  0  0  0  0
  2  3  1  0  0  0  0
  2  4  2  0  0  0  0
  3  7  2  0  0  0  0
  4  8  1  0  0  0  0
  5  6  1  0  0  0  0
  5  9  2  0  0  0  0
  6 12  2  0  0  0  0
  7 10  1  0  0  0  0
  8 10  2  0  0  0  0
  8 16  1  0  0  0  0
  9 11  1  0  0  0  0
  9 14  1  0  0  0  0
 10 19  1  0  0  0  0
 11 13  2  0  0  0  0
 11 21  1  0  0  0  0
 12 13  1  0  0  0  0
 12 22  1  0  0  0  0
 13 23  1  0  0  0  0
 14 15  2  0  0  0  0
 15 17  1  0  0  0  0
 16 17  2  3  0  0  0
 16 20  1  0  0  0  0
 17 21  1  0  0  0  0
 19 20  2  0  0  0  0
  2 24  1  0  0  0  0
  3 25  1  0  0  0  0
  4 26  1  0  0  0  0
  5 27  1  0  0  0  0
  6 28  1  0  0  0  0
 14 29  1  0  0  0  0
 15 30  1  0  0  0  0
 21 31  1  0  0  0  0
M  END
> <id>
EN300-221924

> <smiles>
FC=1C=CC=2C=CC(=C3N=NC=4C3=CC=CC4C#N)NC2C1F

> <IUPAC Name>
3-(7,8-difluoro-1,2-dihydroquinolin-2-ylidene)-3H-indazole-7-carbonitrile

> <CAS>
2768339-14-4

> <Purity>
95

> <URL>
https://www.enaminestore.com/catalog/EN300-221924

> <ROCS_ShapeQuery>
_x0404_0B

> <ROCS_TanimotoCombo>
0.381 

> <ROCS_ShapeTanimoto>
0.331 

> <ROCS_ColorTanimoto>
0.051 

> <ROCS_RefTversky>
0.300 

> <ROCS_RefColorTversky>
0.054 

> <ROCS_RefTverskyCombo>
0.355 

> <ROCS_FitTversky>
1.445 

> <ROCS_FitColorTversky>
0.413 

> <ROCS_FitTverskyCombo>
1.858 

> <ROCS_ColorScore>
-3.924

> <ROCS_Overlap>
2006.390

> <ROCS_Rank>
260                 

$$$$
untitled-dbase-45011_38
  -OEChem-08212314543D

 40 42  0     0  0  0  0  0  0999 V2000
   -7.4937    6.9270  -15.4291 C   0  0  0  0  0  0  0  0  0  0  0  0
   -7.3767    6.5599  -16.7745 C   0  0  0  0  0  0  0  0  0  0  0  0
   -8.4349    4.4171  -16.3373 C   0  0  0  0  0  0  0  0  0  0  0  0
   -8.0900    6.0304  -14.5197 C   0  0  0  0  0  0  0  0  0  0  0  0
   -8.3680    6.0637  -13.1261 C   0  0  0  0  0  0  0  0  0  0  0  0
   -8.5461    4.7954  -14.9944 C   0  0  0  0  0  0  0  0  0  0  0  0
   -7.8407    5.3239  -17.2194 C   0  0  0  0  0  0  0  0  0  0  0  0
   -8.9701    4.8692  -12.7917 C   0  0  0  0  0  0  0  0  0  0  0  0
   -8.7450    5.1466   -9.1143 C   0  0  0  0  0  0  0  0  0  0  0  0
   -8.1014    7.1089  -12.1013 C   0  0  0  0  0  0  0  0  0  0  0  0
   -9.4447    4.4616  -11.4450 C   0  0  0  0  0  0  0  0  0  0  0  0
   -9.0062    6.8865  -10.8772 C   0  0  0  0  0  0  0  0  0  0  0  0
  -10.5454    3.4472   -8.2454 C   0  0  0  0  0  0  0  0  0  0  0  0
   -8.9230    1.5786   -8.6759 C   0  0  0  0  0  0  0  0  0  0  0  0
   -8.5842    3.1001   -6.7066 C   0  0  0  0  0  0  0  0  0  0  0  0
   -9.0872    3.0014   -8.1460 C   0  0  0  0  0  0  0  0  0  0  0  0
   -9.0788    4.1109  -13.9221 N   0  0  0  0  0  0  0  0  0  0  0  0
   -9.0126    5.4714  -10.4495 N   0  0  0  0  0  0  0  0  0  0  0  0
   -8.9005    5.9161   -8.1680 O   0  0  0  0  0  0  0  0  0  0  0  0
   -8.2904    3.8624   -8.9676 O   0  0  0  0  0  0  0  0  0  0  0  0
   -7.6646    4.8621  -19.0465 Br  0  0  0  0  0  0  0  0  0  0  0  0
   -7.1270    7.8941  -15.0971 H   0  0  0  0  0  0  0  0  0  0  0  0
   -6.9150    7.2605  -17.4666 H   0  0  0  0  0  0  0  0  0  0  0  0
   -8.8001    3.4509  -16.6713 H   0  0  0  0  0  0  0  0  0  0  0  0
   -7.0490    7.0571  -11.7978 H   0  0  0  0  0  0  0  0  0  0  0  0
   -8.2818    8.1076  -12.5137 H   0  0  0  0  0  0  0  0  0  0  0  0
  -10.5391    4.4274  -11.4156 H   0  0  0  0  0  0  0  0  0  0  0  0
   -9.0562    3.4737  -11.1811 H   0  0  0  0  0  0  0  0  0  0  0  0
   -8.6874    7.5392  -10.0583 H   0  0  0  0  0  0  0  0  0  0  0  0
  -10.0452    7.1463  -11.1167 H   0  0  0  0  0  0  0  0  0  0  0  0
  -10.6674    4.4681   -7.8660 H   0  0  0  0  0  0  0  0  0  0  0  0
  -10.9078    3.4144   -9.2780 H   0  0  0  0  0  0  0  0  0  0  0  0
  -11.1918    2.8099   -7.6313 H   0  0  0  0  0  0  0  0  0  0  0  0
   -7.8783    1.2546   -8.6065 H   0  0  0  0  0  0  0  0  0  0  0  0
   -9.1935    1.5235   -9.7366 H   0  0  0  0  0  0  0  0  0  0  0  0
   -9.5441    0.8671   -8.1223 H   0  0  0  0  0  0  0  0  0  0  0  0
   -7.5383    2.7804   -6.6350 H   0  0  0  0  0  0  0  0  0  0  0  0
   -8.6601    4.1224   -6.3220 H   0  0  0  0  0  0  0  0  0  0  0  0
   -9.1560    2.4368   -6.0476 H   0  0  0  0  0  0  0  0  0  0  0  0
   -9.4859    3.1869  -13.9702 H   0  0  0  0  0  0  0  0  0  0  0  0
  1  2  1  0  0  0  0
  1  4  2  0  0  0  0
  2  7  2  0  0  0  0
  3  6  2  0  0  0  0
  3  7  1  0  0  0  0
  4  5  1  0  0  0  0
  4  6  1  0  0  0  0
  5  8  2  0  0  0  0
  5 10  1  0  0  0  0
  6 17  1  0  0  0  0
  7 21  1  0  0  0  0
  8 11  1  0  0  0  0
  8 17  1  0  0  0  0
  9 18  1  0  0  0  0
  9 19  2  0  0  0  0
  9 20  1  0  0  0  0
 10 12  1  0  0  0  0
 11 18  1  0  0  0  0
 12 18  1  0  0  0  0
 13 16  1  0  0  0  0
 14 16  1  0  0  0  0
 15 16  1  0  0  0  0
 16 20  1  0  0  0  0
  1 22  1  0  0  0  0
  2 23  1  0  0  0  0
  3 24  1  0  0  0  0
 10 25  1  0  0  0  0
 10 26  1  0  0  0  0
 11 27  1  0  0  0  0
 11 28  1  0  0  0  0
 12 29  1  0  0  0  0
 12 30  1  0  0  0  0
 13 31  1  0  0  0  0
 13 32  1  0  0  0  0
 13 33  1  0  0  0  0
 14 34  1  0  0  0  0
 14 35  1  0  0  0  0
 14 36  1  0  0  0  0
 15 37  1  0  0  0  0
 15 38  1  0  0  0  0
 15 39  1  0  0  0  0
 17 40  1  0  0  0  0
M  END
> <id>
EN300-23410014

> <smiles>
CC(C)(C)OC(=O)N1CCC2=C(C1)NC=3C=C(Br)C=CC23

> <MDLNUMBER>
MFCD27979695

> <IUPAC Name>
tert-butyl 7-bromo-1H,2H,3H,4H,9H-pyrido[3,4-b]indole-2-carboxylate

> <CAS>
196203-96-0

> <URL>
https://www.enaminestore.com/catalog/EN300-23410014

> <ROCS_ShapeQuery>
_x0404_0B

> <ROCS_TanimotoCombo>
0.381 

> <ROCS_ShapeTanimoto>
0.335 

> <ROCS_ColorTanimoto>
0.046 

> <ROCS_RefTversky>
0.298 

> <ROCS_RefColorTversky>
0.051 

> <ROCS_RefTverskyCombo>
0.349 

> <ROCS_FitTversky>
1.590 

> <ROCS_FitColorTversky>
0.350 

> <ROCS_FitTverskyCombo>
1.940 

> <ROCS_ColorScore>
-3.658

> <ROCS_Overlap>
1988.060

> <ROCS_Rank>
261                 

$$$$
untitled-dbase-19637_82
  -OEChem-08212314543D

 42 43  0     0  0  0  0  0  0999 V2000
   -9.2354    3.1155   -8.4173 C   0  0  0  0  0  0  0  0  0  0  0  0
   -8.6592    5.9104   -9.0263 C   0  0  0  0  0  0  0  0  0  0  0  0
   -8.4039    5.6978  -14.4224 C   0  0  0  0  0  0  0  0  0  0  0  0
   -9.9957    3.8542   -9.4980 C   0  0  0  0  0  0  0  0  0  0  0  0
   -8.1422    3.8587   -7.6952 C   0  0  0  0  0  0  0  0  0  0  0  0
   -7.9243    4.4209  -10.9099 C   0  0  0  0  0  0  0  0  0  0  0  0
  -10.0849    5.7728  -11.1017 C   0  0  0  0  0  0  0  0  0  0  0  0
   -8.1803    4.2179  -12.4009 C   0  0  0  0  0  0  0  0  0  0  0  0
   -9.3275    6.4331  -12.2492 C   0  0  0  0  0  0  0  0  0  0  0  0
   -9.1543    4.9767  -10.1461 C   0  0  0  0  0  0  0  0  0  0  0  0
   -6.8304    5.3972  -16.7926 C   0  0  0  0  0  0  0  0  0  0  0  0
   -8.1915    3.3282  -17.2120 C   0  0  0  0  0  0  0  0  0  0  0  0
   -9.3175    5.5720  -17.1369 C   0  0  0  0  0  0  0  0  0  0  0  0
   -8.1816    4.7170  -16.5770 C   0  0  0  0  0  0  0  0  0  0  0  0
   -8.3300    5.2831   -7.8418 N   0  0  0  0  0  0  0  0  0  0  0  0
   -8.6178    5.4489  -13.0629 N   0  0  0  0  0  0  0  0  0  0  0  0
   -9.4562    1.9268   -8.1839 O   0  0  0  0  0  0  0  0  0  0  0  0
   -8.5605    7.1292   -9.1686 O   0  0  0  0  0  0  0  0  0  0  0  0
   -8.2525    6.8186  -14.9049 O   0  0  0  0  0  0  0  0  0  0  0  0
   -8.3881    4.5495  -15.1697 O   0  0  0  0  0  0  0  0  0  0  0  0
  -10.3115    3.1229  -10.2540 H   0  0  0  0  0  0  0  0  0  0  0  0
  -10.9011    4.2644   -9.0296 H   0  0  0  0  0  0  0  0  0  0  0  0
   -8.1851    3.6255   -6.6294 H   0  0  0  0  0  0  0  0  0  0  0  0
   -7.1685    3.5875   -8.1056 H   0  0  0  0  0  0  0  0  0  0  0  0
   -7.6305    3.4558  -10.4739 H   0  0  0  0  0  0  0  0  0  0  0  0
   -7.0568    5.0812  -10.8071 H   0  0  0  0  0  0  0  0  0  0  0  0
  -10.6311    6.5357  -10.5493 H   0  0  0  0  0  0  0  0  0  0  0  0
  -10.8191    5.0924  -11.5343 H   0  0  0  0  0  0  0  0  0  0  0  0
   -7.2662    3.8793  -12.9132 H   0  0  0  0  0  0  0  0  0  0  0  0
   -8.9278    3.4229  -12.5411 H   0  0  0  0  0  0  0  0  0  0  0  0
  -10.0294    7.0177  -12.8542 H   0  0  0  0  0  0  0  0  0  0  0  0
   -8.5774    7.1411  -11.8771 H   0  0  0  0  0  0  0  0  0  0  0  0
   -6.8193    6.3944  -16.3383 H   0  0  0  0  0  0  0  0  0  0  0  0
   -6.0108    4.8109  -16.3646 H   0  0  0  0  0  0  0  0  0  0  0  0
   -6.6315    5.5419  -17.8606 H   0  0  0  0  0  0  0  0  0  0  0  0
   -9.1591    2.8364  -17.0597 H   0  0  0  0  0  0  0  0  0  0  0  0
   -7.4396    2.6808  -16.7464 H   0  0  0  0  0  0  0  0  0  0  0  0
   -7.9914    3.3741  -18.2873 H   0  0  0  0  0  0  0  0  0  0  0  0
  -10.2868    5.0843  -16.9824 H   0  0  0  0  0  0  0  0  0  0  0  0
   -9.3487    6.5598  -16.6660 H   0  0  0  0  0  0  0  0  0  0  0  0
   -9.2076    5.7055  -18.2192 H   0  0  0  0  0  0  0  0  0  0  0  0
   -8.2120    5.8606   -7.0198 H   0  0  0  0  0  0  0  0  0  0  0  0
  1  4  1  0  0  0  0
  1  5  1  0  0  0  0
  1 17  2  0  0  0  0
  2 10  1  0  0  0  0
  2 15  1  0  0  0  0
  2 18  2  0  0  0  0
  3 16  1  0  0  0  0
  3 19  2  0  0  0  0
  3 20  1  0  0  0  0
  4 10  1  0  0  0  0
  5 15  1  0  0  0  0
  6  8  1  0  0  0  0
  6 10  1  0  0  0  0
  7  9  1  0  0  0  0
  7 10  1  0  0  0  0
  8 16  1  0  0  0  0
  9 16  1  0  0  0  0
 11 14  1  0  0  0  0
 12 14  1  0  0  0  0
 13 14  1  0  0  0  0
 14 20  1  0  0  0  0
  4 21  1  0  0  0  0
  4 22  1  0  0  0  0
  5 23  1  0  0  0  0
  5 24  1  0  0  0  0
  6 25  1  0  0  0  0
  6 26  1  0  0  0  0
  7 27  1  0  0  0  0
  7 28  1  0  0  0  0
  8 29  1  0  0  0  0
  8 30  1  0  0  0  0
  9 31  1  0  0  0  0
  9 32  1  0  0  0  0
 11 33  1  0  0  0  0
 11 34  1  0  0  0  0
 11 35  1  0  0  0  0
 12 36  1  0  0  0  0
 12 37  1  0  0  0  0
 12 38  1  0  0  0  0
 13 39  1  0  0  0  0
 13 40  1  0  0  0  0
 13 41  1  0  0  0  0
 15 42  1  0  0  0  0
M  END
> <id>
EN300-1708146

> <smiles>
CC(C)(C)OC(=O)N1CCC2(CC1)CC(=O)CNC2=O

> <MDLNUMBER>
MFCD33031487

> <IUPAC Name>
tert-butyl 1,4-dioxo-2,9-diazaspiro[5.5]undecane-9-carboxylate

> <CAS>
2219371-02-3

> <Purity>
95

> <URL>
https://www.enaminestore.com/catalog/EN300-1708146

> <ROCS_ShapeQuery>
_x0404_0B

> <ROCS_TanimotoCombo>
0.381 

> <ROCS_ShapeTanimoto>
0.316 

> <ROCS_ColorTanimoto>
0.065 

> <ROCS_RefTversky>
0.283 

> <ROCS_RefColorTversky>
0.070 

> <ROCS_RefTverskyCombo>
0.353 

> <ROCS_FitTversky>
1.589 

> <ROCS_FitColorTversky>
0.485 

> <ROCS_FitTverskyCombo>
2.074 

> <ROCS_ColorScore>
-5.060

> <ROCS_Overlap>
1886.653

> <ROCS_Rank>
262                 

$$$$
untitled-dbase-45029_404
  -OEChem-08212314543D

 41 43  0     0  0  0  0  0  0999 V2000
   -8.0816    5.9797  -14.2715 C   0  0  0  0  0  0  0  0  0  0  0  0
  -10.0264    4.1375   -8.0698 C   0  0  0  0  0  0  0  0  0  0  0  0
   -7.9625    3.6779   -8.5458 C   0  0  0  0  0  0  0  0  0  0  0  0
   -9.4851    4.0377  -10.6183 C   0  0  0  0  0  0  0  0  0  0  0  0
   -8.8467    5.8769   -9.6301 C   0  0  0  0  0  0  0  0  0  0  0  0
   -7.5464    5.2918  -11.8048 C   0  0  0  0  0  0  0  0  0  0  0  0
   -9.4977    6.1504  -12.1427 C   0  0  0  0  0  0  0  0  0  0  0  0
   -9.0423    3.0105   -7.6514 C   0  0  0  0  0  0  0  0  0  0  0  0
   -9.0873    4.4424   -9.2065 C   0  0  0  0  0  0  0  0  0  0  0  0
   -8.8504    5.3496  -11.0528 C   0  0  0  0  0  0  0  0  0  0  0  0
   -6.4354    6.1165  -16.6996 C   0  0  0  0  0  0  0  0  0  0  0  0
   -6.5587    3.6079  -16.6633 C   0  0  0  0  0  0  0  0  0  0  0  0
   -8.6536    4.9588  -16.9713 C   0  0  0  0  0  0  0  0  0  0  0  0
   -7.2796    4.9056  -16.3048 C   0  0  0  0  0  0  0  0  0  0  0  0
   -8.2807    5.8928  -12.9137 N   0  0  0  0  0  0  0  0  0  0  0  0
   -8.4864    6.9263  -14.9462 O   0  0  0  0  0  0  0  0  0  0  0  0
   -9.4223    1.6740   -8.0323 O   0  0  0  0  0  0  0  0  0  0  0  0
   -7.4616    4.9202  -14.8799 O   0  0  0  0  0  0  0  0  0  0  0  0
  -11.0146    3.7661   -8.3746 H   0  0  0  0  0  0  0  0  0  0  0  0
  -10.1720    4.9275   -7.3235 H   0  0  0  0  0  0  0  0  0  0  0  0
   -7.2190    4.2746   -8.0109 H   0  0  0  0  0  0  0  0  0  0  0  0
   -7.4420    2.9771   -9.2082 H   0  0  0  0  0  0  0  0  0  0  0  0
   -8.9675    3.1460  -10.9842 H   0  0  0  0  0  0  0  0  0  0  0  0
  -10.5546    3.9264  -10.8049 H   0  0  0  0  0  0  0  0  0  0  0  0
   -9.6276    6.6027   -9.3755 H   0  0  0  0  0  0  0  0  0  0  0  0
   -7.8803    6.2872   -9.3076 H   0  0  0  0  0  0  0  0  0  0  0  0
   -6.7448    5.9332  -11.4336 H   0  0  0  0  0  0  0  0  0  0  0  0
   -7.1660    4.2961  -12.0401 H   0  0  0  0  0  0  0  0  0  0  0  0
  -10.3883    5.7196  -12.6103 H   0  0  0  0  0  0  0  0  0  0  0  0
   -9.6515    7.2162  -11.9477 H   0  0  0  0  0  0  0  0  0  0  0  0
   -8.7899    3.0462   -6.5848 H   0  0  0  0  0  0  0  0  0  0  0  0
   -6.9494    7.0500  -16.4439 H   0  0  0  0  0  0  0  0  0  0  0  0
   -5.4607    6.1084  -16.2010 H   0  0  0  0  0  0  0  0  0  0  0  0
   -6.2699    6.1414  -17.7828 H   0  0  0  0  0  0  0  0  0  0  0  0
   -7.1609    2.7365  -16.3818 H   0  0  0  0  0  0  0  0  0  0  0  0
   -5.6145    3.5213  -16.1135 H   0  0  0  0  0  0  0  0  0  0  0  0
   -6.3426    3.5485  -17.7349 H   0  0  0  0  0  0  0  0  0  0  0  0
   -9.2594    4.0903  -16.6883 H   0  0  0  0  0  0  0  0  0  0  0  0
   -9.2006    5.8662  -16.6959 H   0  0  0  0  0  0  0  0  0  0  0  0
   -8.5587    4.9271  -18.0628 H   0  0  0  0  0  0  0  0  0  0  0  0
   -8.7197    1.0966   -7.7055 H   0  0  0  0  0  0  0  0  0  0  0  0
  1 15  1  0  0  0  0
  1 16  2  0  0  0  0
  1 18  1  0  0  0  0
  2  8  1  0  0  0  0
  2  9  1  0  0  0  0
  3  8  1  0  0  0  0
  3  9  1  0  0  0  0
  4  9  1  0  0  0  0
  4 10  1  0  0  0  0
  5  9  1  0  0  0  0
  5 10  1  0  0  0  0
  6 10  1  0  0  0  0
  6 15  1  0  0  0  0
  7 10  1  0  0  0  0
  7 15  1  0  0  0  0
  8 17  1  0  0  0  0
 11 14  1  0  0  0  0
 12 14  1  0  0  0  0
 13 14  1  0  0  0  0
 14 18  1  0  0  0  0
  2 19  1  0  0  0  0
  2 20  1  0  0  0  0
  3 21  1  0  0  0  0
  3 22  1  0  0  0  0
  4 23  1  0  0  0  0
  4 24  1  0  0  0  0
  5 25  1  0  0  0  0
  5 26  1  0  0  0  0
  6 27  1  0  0  0  0
  6 28  1  0  0  0  0
  7 29  1  0  0  0  0
  7 30  1  0  0  0  0
  8 31  1  0  0  0  0
 11 32  1  0  0  0  0
 11 33  1  0  0  0  0
 11 34  1  0  0  0  0
 12 35  1  0  0  0  0
 12 36  1  0  0  0  0
 12 37  1  0  0  0  0
 13 38  1  0  0  0  0
 13 39  1  0  0  0  0
 13 40  1  0  0  0  0
 17 41  1  0  0  0  0
M  END
> <id>
EN300-27145028

> <smiles>
CC(C)(C)OC(=O)N1CC2(C1)CC3(CC(O)C3)C2

> <MDLNUMBER>
MFCD34183628

> <IUPAC Name>
tert-butyl 8-hydroxy-2-azadispiro[3.1.3^{6}.1^{4}]decane-2-carboxylate

> <CAS>
2680539-02-8

> <Purity>
95

> <URL>
https://www.enaminestore.com/catalog/EN300-27145028

> <ROCS_ShapeQuery>
_x0404_0B

> <ROCS_TanimotoCombo>
0.381 

> <ROCS_ShapeTanimoto>
0.289 

> <ROCS_ColorTanimoto>
0.092 

> <ROCS_RefTversky>
0.262 

> <ROCS_RefColorTversky>
0.096 

> <ROCS_RefTverskyCombo>
0.358 

> <ROCS_FitTversky>
1.570 

> <ROCS_FitColorTversky>
0.661 

> <ROCS_FitTverskyCombo>
2.231 

> <ROCS_ColorScore>
-6.931

> <ROCS_Overlap>
1746.020

> <ROCS_Rank>
263                 

$$$$
untitled-dbase-24950_5
  -OEChem-08212314543D

 37 38  0     0  0  0  0  0  0999 V2000
   -9.0746    3.0648  -10.1687 C   0  0  0  0  0  0  0  0  0  0  0  0
   -8.8644    5.4426   -8.7356 C   0  0  0  0  0  0  0  0  0  0  0  0
   -9.0960    4.3574   -7.9870 C   0  0  0  0  0  0  0  0  0  0  0  0
   -8.8354    4.2291  -10.8056 C   0  0  0  0  0  0  0  0  0  0  0  0
   -9.2350    3.0536   -8.6894 C   0  0  0  0  0  0  0  0  0  0  0  0
   -8.3400    5.6480  -14.3157 C   0  0  0  0  0  0  0  0  0  0  0  0
   -8.6620    4.1936  -12.3047 C   0  0  0  0  0  0  0  0  0  0  0  0
   -8.5007    6.7013  -10.8302 C   0  0  0  0  0  0  0  0  0  0  0  0
   -9.1415    6.6570  -12.2051 C   0  0  0  0  0  0  0  0  0  0  0  0
   -6.4773    5.3823  -16.4714 C   0  0  0  0  0  0  0  0  0  0  0  0
   -7.4192    3.0714  -16.7574 C   0  0  0  0  0  0  0  0  0  0  0  0
   -8.9029    5.0740  -17.0682 C   0  0  0  0  0  0  0  0  0  0  0  0
   -7.7126    4.4991  -16.3017 C   0  0  0  0  0  0  0  0  0  0  0  0
   -8.7484    5.4477  -10.1195 N   0  0  0  0  0  0  0  0  0  0  0  0
   -8.6610    5.5061  -12.9584 N   0  0  0  0  0  0  0  0  0  0  0  0
   -9.4653    2.0132   -8.0837 O   0  0  0  0  0  0  0  0  0  0  0  0
   -8.3218    6.7193  -14.9187 O   0  0  0  0  0  0  0  0  0  0  0  0
   -9.2084    4.4114   -6.6193 O   0  0  0  0  0  0  0  0  0  0  0  0
   -8.0482    4.4475  -14.9104 O   0  0  0  0  0  0  0  0  0  0  0  0
   -9.1632    2.1180  -10.6978 H   0  0  0  0  0  0  0  0  0  0  0  0
   -8.7457    6.4236   -8.2807 H   0  0  0  0  0  0  0  0  0  0  0  0
   -7.7353    3.6356  -12.5907 H   0  0  0  0  0  0  0  0  0  0  0  0
   -9.4948    3.6062  -12.7647 H   0  0  0  0  0  0  0  0  0  0  0  0
   -7.4254    6.8975  -10.9379 H   0  0  0  0  0  0  0  0  0  0  0  0
   -8.9172    7.5318  -10.2433 H   0  0  0  0  0  0  0  0  0  0  0  0
  -10.2211    6.5961  -12.1219 H   0  0  0  0  0  0  0  0  0  0  0  0
   -8.8836    7.5493  -12.7685 H   0  0  0  0  0  0  0  0  0  0  0  0
   -6.6838    6.4080  -16.1453 H   0  0  0  0  0  0  0  0  0  0  0  0
   -5.6263    4.9999  -15.8984 H   0  0  0  0  0  0  0  0  0  0  0  0
   -6.1841    5.4462  -17.5255 H   0  0  0  0  0  0  0  0  0  0  0  0
   -8.3029    2.4342  -16.6374 H   0  0  0  0  0  0  0  0  0  0  0  0
   -6.6287    2.6212  -16.1461 H   0  0  0  0  0  0  0  0  0  0  0  0
   -7.1077    3.0381  -17.8064 H   0  0  0  0  0  0  0  0  0  0  0  0
   -9.7891    4.4407  -16.9466 H   0  0  0  0  0  0  0  0  0  0  0  0
   -9.1512    6.0848  -16.7285 H   0  0  0  0  0  0  0  0  0  0  0  0
   -8.6934    5.1096  -18.1434 H   0  0  0  0  0  0  0  0  0  0  0  0
   -9.3743    3.5301   -6.2636 H   0  0  0  0  0  0  0  0  0  0  0  0
  1  4  2  0  0  0  0
  1  5  1  0  0  0  0
  2  3  2  0  0  0  0
  2 14  1  0  0  0  0
  3  5  1  0  0  0  0
  3 18  1  0  0  0  0
  4  7  1  0  0  0  0
  4 14  1  0  0  0  0
  5 16  2  0  0  0  0
  6 15  1  0  0  0  0
  6 17  2  0  0  0  0
  6 19  1  0  0  0  0
  7 15  1  0  0  0  0
  8  9  1  0  0  0  0
  8 14  1  0  0  0  0
  9 15  1  0  0  0  0
 10 13  1  0  0  0  0
 11 13  1  0  0  0  0
 12 13  1  0  0  0  0
 13 19  1  0  0  0  0
  1 20  1  0  0  0  0
  2 21  1  0  0  0  0
  7 22  1  0  0  0  0
  7 23  1  0  0  0  0
  8 24  1  0  0  0  0
  8 25  1  0  0  0  0
  9 26  1  0  0  0  0
  9 27  1  0  0  0  0
 10 28  1  0  0  0  0
 10 29  1  0  0  0  0
 10 30  1  0  0  0  0
 11 31  1  0  0  0  0
 11 32  1  0  0  0  0
 11 33  1  0  0  0  0
 12 34  1  0  0  0  0
 12 35  1  0  0  0  0
 12 36  1  0  0  0  0
 18 37  1  0  0  0  0
M  END
> <id>
EN300-26981124

> <smiles>
CC(C)(C)OC(=O)N1CCN2C=C(O)C(=O)C=C2C1

> <MDLNUMBER>
MFCD32702932

> <IUPAC Name>
tert-butyl 7-hydroxy-8-oxo-1H,2H,3H,4H,8H-pyrido[1,2-a]pyrazine-2-carboxylate

> <CAS>
2460754-22-5

> <Purity>
95

> <URL>
https://www.enaminestore.com/catalog/EN300-26981124

> <ROCS_ShapeQuery>
_x0404_0B

> <ROCS_TanimotoCombo>
0.381 

> <ROCS_ShapeTanimoto>
0.316 

> <ROCS_ColorTanimoto>
0.065 

> <ROCS_RefTversky>
0.282 

> <ROCS_RefColorTversky>
0.070 

> <ROCS_RefTverskyCombo>
0.352 

> <ROCS_FitTversky>
1.622 

> <ROCS_FitColorTversky>
0.484 

> <ROCS_FitTverskyCombo>
2.106 

> <ROCS_ColorScore>
-5.046

> <ROCS_Overlap>
1878.814

> <ROCS_Rank>
264                 

$$$$
untitled-dbase-27458_205
  -OEChem-08212314543D

 43 44  0     0  0  0  0  0  0999 V2000
   -9.0651    5.5798   -7.7678 C   0  0  0  0  0  0  0  0  0  0  0  0
   -9.5273    3.2075   -8.3721 C   0  0  0  0  0  0  0  0  0  0  0  0
   -8.5680    5.7475  -14.5083 C   0  0  0  0  0  0  0  0  0  0  0  0
   -9.4261    4.2101   -7.2492 C   0  0  0  0  0  0  0  0  0  0  0  0
   -8.2519    5.6020   -9.0423 C   0  0  0  0  0  0  0  0  0  0  0  0
   -9.9375    3.7693   -9.7147 C   0  0  0  0  0  0  0  0  0  0  0  0
   -7.8682    4.2454  -11.1157 C   0  0  0  0  0  0  0  0  0  0  0  0
   -9.8070    5.9055  -11.0309 C   0  0  0  0  0  0  0  0  0  0  0  0
   -8.2720    4.1569  -12.5840 C   0  0  0  0  0  0  0  0  0  0  0  0
   -9.0291    6.5094  -12.1948 C   0  0  0  0  0  0  0  0  0  0  0  0
   -8.9693    4.8774  -10.2157 C   0  0  0  0  0  0  0  0  0  0  0  0
   -7.4413    5.3157  -17.1024 C   0  0  0  0  0  0  0  0  0  0  0  0
   -9.1567    3.4966  -17.3421 C   0  0  0  0  0  0  0  0  0  0  0  0
   -9.8936    5.8795  -17.0472 C   0  0  0  0  0  0  0  0  0  0  0  0
   -8.8332    4.8390  -16.6898 C   0  0  0  0  0  0  0  0  0  0  0  0
   -8.6089    5.4725  -13.1380 N   0  0  0  0  0  0  0  0  0  0  0  0
   -9.3376    6.6045   -7.1469 O   0  0  0  0  0  0  0  0  0  0  0  0
   -9.3747    2.0026   -8.1856 O   0  0  0  0  0  0  0  0  0  0  0  0
   -8.3188    6.8524  -14.9865 O   0  0  0  0  0  0  0  0  0  0  0  0
   -8.8460    4.6436  -15.2711 O   0  0  0  0  0  0  0  0  0  0  0  0
   -8.6566    3.8843   -6.5594 H   0  0  0  0  0  0  0  0  0  0  0  0
  -10.3904    4.2725   -6.7566 H   0  0  0  0  0  0  0  0  0  0  0  0
   -8.0503    6.6469   -9.3082 H   0  0  0  0  0  0  0  0  0  0  0  0
   -7.2876    5.1261   -8.8256 H   0  0  0  0  0  0  0  0  0  0  0  0
   -9.9605    2.9312  -10.4237 H   0  0  0  0  0  0  0  0  0  0  0  0
  -10.9635    4.1428   -9.6276 H   0  0  0  0  0  0  0  0  0  0  0  0
   -7.6119    3.2447  -10.7500 H   0  0  0  0  0  0  0  0  0  0  0  0
   -6.9525    4.8457  -11.0450 H   0  0  0  0  0  0  0  0  0  0  0  0
  -10.1206    6.7195  -10.3681 H   0  0  0  0  0  0  0  0  0  0  0  0
  -10.7223    5.4476  -11.4142 H   0  0  0  0  0  0  0  0  0  0  0  0
   -7.4602    3.6981  -13.1605 H   0  0  0  0  0  0  0  0  0  0  0  0
   -9.1523    3.5158  -12.7150 H   0  0  0  0  0  0  0  0  0  0  0  0
   -9.6428    7.2247  -12.7507 H   0  0  0  0  0  0  0  0  0  0  0  0
   -8.1709    7.0615  -11.8048 H   0  0  0  0  0  0  0  0  0  0  0  0
   -7.2053    6.2790  -16.6363 H   0  0  0  0  0  0  0  0  0  0  0  0
   -6.6677    4.5941  -16.8203 H   0  0  0  0  0  0  0  0  0  0  0  0
   -7.3876    5.4750  -18.1855 H   0  0  0  0  0  0  0  0  0  0  0  0
  -10.1546    3.1508  -17.0489 H   0  0  0  0  0  0  0  0  0  0  0  0
   -8.4531    2.7233  -17.0134 H   0  0  0  0  0  0  0  0  0  0  0  0
   -9.1184    3.5586  -18.4345 H   0  0  0  0  0  0  0  0  0  0  0  0
  -10.8921    5.5379  -16.7514 H   0  0  0  0  0  0  0  0  0  0  0  0
   -9.6978    6.8393  -16.5581 H   0  0  0  0  0  0  0  0  0  0  0  0
   -9.9307    6.0419  -18.1305 H   0  0  0  0  0  0  0  0  0  0  0  0
  1  4  1  0  0  0  0
  1  5  1  0  0  0  0
  1 17  2  0  0  0  0
  2  4  1  0  0  0  0
  2  6  1  0  0  0  0
  2 18  2  0  0  0  0
  3 16  1  0  0  0  0
  3 19  2  0  0  0  0
  3 20  1  0  0  0  0
  5 11  1  0  0  0  0
  6 11  1  0  0  0  0
  7  9  1  0  0  0  0
  7 11  1  0  0  0  0
  8 10  1  0  0  0  0
  8 11  1  0  0  0  0
  9 16  1  0  0  0  0
 10 16  1  0  0  0  0
 12 15  1  0  0  0  0
 13 15  1  0  0  0  0
 14 15  1  0  0  0  0
 15 20  1  0  0  0  0
  4 21  1  0  0  0  0
  4 22  1  0  0  0  0
  5 23  1  0  0  0  0
  5 24  1  0  0  0  0
  6 25  1  0  0  0  0
  6 26  1  0  0  0  0
  7 27  1  0  0  0  0
  7 28  1  0  0  0  0
  8 29  1  0  0  0  0
  8 30  1  0  0  0  0
  9 31  1  0  0  0  0
  9 32  1  0  0  0  0
 10 33  1  0  0  0  0
 10 34  1  0  0  0  0
 12 35  1  0  0  0  0
 12 36  1  0  0  0  0
 12 37  1  0  0  0  0
 13 38  1  0  0  0  0
 13 39  1  0  0  0  0
 13 40  1  0  0  0  0
 14 41  1  0  0  0  0
 14 42  1  0  0  0  0
 14 43  1  0  0  0  0
M  END
> <id>
EN300-7439269

> <smiles>
CC(C)(C)OC(=O)N1CCC2(CC1)CC(=O)CC(=O)C2

> <MDLNUMBER>
MFCD32197757

> <IUPAC Name>
tert-butyl 8,10-dioxo-3-azaspiro[5.5]undecane-3-carboxylate

> <CAS>
2374705-47-0

> <Purity>
95

> <URL>
https://www.enaminestore.com/catalog/EN300-7439269

> <ROCS_ShapeQuery>
_x0404_0B

> <ROCS_TanimotoCombo>
0.381 

> <ROCS_ShapeTanimoto>
0.314 

> <ROCS_ColorTanimoto>
0.066 

> <ROCS_RefTversky>
0.281 

> <ROCS_RefColorTversky>
0.071 

> <ROCS_RefTverskyCombo>
0.353 

> <ROCS_FitTversky>
1.594 

> <ROCS_FitColorTversky>
0.493 

> <ROCS_FitTverskyCombo>
2.087 

> <ROCS_ColorScore>
-5.144

> <ROCS_Overlap>
1877.035

> <ROCS_Rank>
265                 

$$$$
untitled-dbase-43724_45
  -OEChem-08212314543D

 41 42  0     1  0  0  0  0  0999 V2000
   -9.5949    5.5573   -8.8273 C   0  0  0  0  0  0  0  0  0  0  0  0
   -8.6586    3.2706  -10.1267 C   0  0  0  0  0  0  0  0  0  0  0  0
   -9.0372    5.6626  -10.1058 C   0  0  0  0  0  0  0  0  0  0  0  0
   -8.5582    4.5165  -10.7596 C   0  0  0  0  0  0  0  0  0  0  0  0
   -9.6955    4.3116   -8.2087 C   0  0  0  0  0  0  0  0  0  0  0  0
   -9.2299    3.1696   -8.8581 C   0  0  0  0  0  0  0  0  0  0  0  0
   -8.3669    5.6600  -14.3381 C   0  0  0  0  0  0  0  0  0  0  0  0
   -8.8985    6.9889  -10.7939 C   0  0  0  0  0  0  0  0  0  0  0  0
   -9.1776    6.8464  -12.2863 C   0  0  0  0  0  0  0  0  0  0  0  0
   -7.8981    4.6472  -12.1154 C   0  0  2  0  0  0  0  0  0  0  0  0
   -6.3835    4.8253  -11.9558 C   0  0  0  0  0  0  0  0  0  0  0  0
   -6.9101    4.9107  -16.6839 C   0  0  0  0  0  0  0  0  0  0  0  0
   -8.0828    2.6986  -16.4818 C   0  0  0  0  0  0  0  0  0  0  0  0
   -9.4180    4.7919  -16.8607 C   0  0  0  0  0  0  0  0  0  0  0  0
   -8.1732    4.1975  -16.2035 C   0  0  0  0  0  0  0  0  0  0  0  0
   -8.4619    5.7395  -12.9388 N   0  0  0  0  0  0  0  0  0  0  0  0
   -8.3544    6.6342  -15.0884 O   0  0  0  0  0  0  0  0  0  0  0  0
  -10.2587    4.2222   -6.9711 O   0  0  0  0  0  0  0  0  0  0  0  0
   -9.3326    1.9471   -8.2653 O   0  0  0  0  0  0  0  0  0  0  0  0
   -8.2811    4.3673  -14.7855 O   0  0  0  0  0  0  0  0  0  0  0  0
   -9.9540    6.4424   -8.3128 H   0  0  0  0  0  0  0  0  0  0  0  0
   -8.2986    2.3748  -10.6209 H   0  0  0  0  0  0  0  0  0  0  0  0
   -9.6066    7.6893  -10.3522 H   0  0  0  0  0  0  0  0  0  0  0  0
   -7.8902    7.3792  -10.6628 H   0  0  0  0  0  0  0  0  0  0  0  0
  -10.2719    6.7480  -12.4502 H   0  0  0  0  0  0  0  0  0  0  0  0
   -8.8893    7.7753  -12.8254 H   0  0  0  0  0  0  0  0  0  0  0  0
   -8.0736    3.7033  -12.6464 H   0  0  0  0  0  0  0  0  0  0  0  0
   -6.1814    5.7551  -11.4315 H   0  0  0  0  0  0  0  0  0  0  0  0
   -5.9169    4.8539  -12.9365 H   0  0  0  0  0  0  0  0  0  0  0  0
   -5.9790    3.9931  -11.3863 H   0  0  0  0  0  0  0  0  0  0  0  0
   -6.9711    5.9868  -16.4859 H   0  0  0  0  0  0  0  0  0  0  0  0
   -6.0136    4.5172  -16.1938 H   0  0  0  0  0  0  0  0  0  0  0  0
   -6.7880    4.8022  -17.7676 H   0  0  0  0  0  0  0  0  0  0  0  0
   -8.9870    2.1829  -16.1387 H   0  0  0  0  0  0  0  0  0  0  0  0
   -7.2454    2.2500  -15.9352 H   0  0  0  0  0  0  0  0  0  0  0  0
   -7.9503    2.4931  -17.5489 H   0  0  0  0  0  0  0  0  0  0  0  0
  -10.3241    4.2805  -16.5163 H   0  0  0  0  0  0  0  0  0  0  0  0
   -9.5191    5.8597  -16.6410 H   0  0  0  0  0  0  0  0  0  0  0  0
   -9.3840    4.6619  -17.9485 H   0  0  0  0  0  0  0  0  0  0  0  0
  -10.5340    5.1003   -6.6641 H   0  0  0  0  0  0  0  0  0  0  0  0
   -9.7472    2.0313   -7.3923 H   0  0  0  0  0  0  0  0  0  0  0  0
  1  3  2  0  0  0  0
  1  5  1  0  0  0  0
  2  4  2  0  0  0  0
  2  6  1  0  0  0  0
  3  4  1  0  0  0  0
  3  8  1  0  0  0  0
  4 10  1  0  0  0  0
  5  6  2  0  0  0  0
  5 18  1  0  0  0  0
  6 19  1  0  0  0  0
  7 16  1  0  0  0  0
  7 17  2  0  0  0  0
  7 20  1  0  0  0  0
  8  9  1  0  0  0  0
  9 16  1  0  0  0  0
 10 11  1  0  0  0  0
 10 16  1  0  0  0  0
 12 15  1  0  0  0  0
 13 15  1  0  0  0  0
 14 15  1  0  0  0  0
 15 20  1  0  0  0  0
  1 21  1  0  0  0  0
  2 22  1  0  0  0  0
  8 23  1  0  0  0  0
  8 24  1  0  0  0  0
  9 25  1  0  0  0  0
  9 26  1  0  0  0  0
 10 27  1  0  0  0  0
 11 28  1  0  0  0  0
 11 29  1  0  0  0  0
 11 30  1  0  0  0  0
 12 31  1  0  0  0  0
 12 32  1  0  0  0  0
 12 33  1  0  0  0  0
 13 34  1  0  0  0  0
 13 35  1  0  0  0  0
 13 36  1  0  0  0  0
 14 37  1  0  0  0  0
 14 38  1  0  0  0  0
 14 39  1  0  0  0  0
 18 40  1  0  0  0  0
 19 41  1  0  0  0  0
M  END
> <id>
EN300-28229090

> <smiles>
CC1N(CCC=2C=C(O)C(O)=CC12)C(=O)OC(C)(C)C

> <IUPAC Name>
tert-butyl 6,7-dihydroxy-1-methyl-1,2,3,4-tetrahydroisoquinoline-2-carboxylate

> <CAS>
230301-78-7

> <URL>
https://www.enaminestore.com/catalog/EN300-28229090

> <ROCS_ShapeQuery>
_x0404_0B

> <ROCS_TanimotoCombo>
0.381 

> <ROCS_ShapeTanimoto>
0.295 

> <ROCS_ColorTanimoto>
0.085 

> <ROCS_RefTversky>
0.269 

> <ROCS_RefColorTversky>
0.091 

> <ROCS_RefTverskyCombo>
0.360 

> <ROCS_FitTversky>
1.500 

> <ROCS_FitColorTversky>
0.578 

> <ROCS_FitTverskyCombo>
2.078 

> <ROCS_ColorScore>
-6.575

> <ROCS_Overlap>
1793.283

> <ROCS_Rank>
266                 

$$$$
untitled-dbase-20043_87
  -OEChem-08212314543D

 45 47  0     1  0  0  0  0  0999 V2000
   -8.5915    5.7619  -14.3928 C   0  0  0  0  0  0  0  0  0  0  0  0
   -8.2810    4.1807  -10.9822 C   0  0  0  0  0  0  0  0  0  0  0  0
   -9.8885    6.1712  -10.9439 C   0  0  0  0  0  0  0  0  0  0  0  0
  -10.3088    4.1996   -9.4056 C   0  0  0  0  0  0  0  0  0  0  0  0
   -8.6666    4.1591  -12.4563 C   0  0  0  0  0  0  0  0  0  0  0  0
   -9.0033    6.6155  -12.1035 C   0  0  0  0  0  0  0  0  0  0  0  0
  -10.1995    2.8701   -7.1306 C   0  0  0  0  0  0  0  0  0  0  0  0
   -8.4365    4.6982   -7.9505 C   0  0  2  0  0  0  0  0  0  0  0  0
   -9.2433    5.0376  -10.1307 C   0  0  0  0  0  0  0  0  0  0  0  0
   -9.5984    3.7874   -8.1677 C   0  0  2  0  0  0  0  0  0  0  0  0
   -8.5222    5.5035   -6.6670 C   0  0  0  0  0  0  0  0  0  0  0  0
   -7.4489    5.1171  -16.9349 C   0  0  0  0  0  0  0  0  0  0  0  0
   -9.4493    3.6311  -17.2504 C   0  0  0  0  0  0  0  0  0  0  0  0
   -9.7613    6.1093  -16.9870 C   0  0  0  0  0  0  0  0  0  0  0  0
   -8.9200    4.8991  -16.5840 C   0  0  0  0  0  0  0  0  0  0  0  0
   -8.7393    5.5095  -13.0253 N   0  0  0  0  0  0  0  0  0  0  0  0
   -8.1287    6.8013  -14.8593 O   0  0  0  0  0  0  0  0  0  0  0  0
   -9.2708    2.3903   -8.1090 O   0  0  0  0  0  0  0  0  0  0  0  0
   -8.4729    5.6306   -9.0536 O   0  0  0  0  0  0  0  0  0  0  0  0
   -9.0287    4.7196  -15.1673 O   0  0  0  0  0  0  0  0  0  0  0  0
   -8.2681    3.1492  -10.5986 H   0  0  0  0  0  0  0  0  0  0  0  0
   -7.2520    4.5600  -10.9050 H   0  0  0  0  0  0  0  0  0  0  0  0
  -10.0678    7.0384  -10.2982 H   0  0  0  0  0  0  0  0  0  0  0  0
  -10.8590    5.8425  -11.3335 H   0  0  0  0  0  0  0  0  0  0  0  0
  -11.1679    4.8196   -9.1214 H   0  0  0  0  0  0  0  0  0  0  0  0
  -10.6776    3.3660  -10.0131 H   0  0  0  0  0  0  0  0  0  0  0  0
   -7.9235    3.6022  -13.0454 H   0  0  0  0  0  0  0  0  0  0  0  0
   -9.6253    3.6385  -12.5825 H   0  0  0  0  0  0  0  0  0  0  0  0
   -9.4721    7.4614  -12.6168 H   0  0  0  0  0  0  0  0  0  0  0  0
   -8.0303    6.9652  -11.7346 H   0  0  0  0  0  0  0  0  0  0  0  0
   -9.8550    2.9319   -6.1071 H   0  0  0  0  0  0  0  0  0  0  0  0
  -11.2371    2.5816   -7.2399 H   0  0  0  0  0  0  0  0  0  0  0  0
   -7.4818    4.1614   -7.9999 H   0  0  0  0  0  0  0  0  0  0  0  0
   -9.4732    6.0378   -6.6185 H   0  0  0  0  0  0  0  0  0  0  0  0
   -7.7098    6.2316   -6.6224 H   0  0  0  0  0  0  0  0  0  0  0  0
   -8.4478    4.8431   -5.8005 H   0  0  0  0  0  0  0  0  0  0  0  0
   -7.0651    6.0263  -16.4585 H   0  0  0  0  0  0  0  0  0  0  0  0
   -6.8293    4.2712  -16.6195 H   0  0  0  0  0  0  0  0  0  0  0  0
   -7.3209    5.2562  -18.0145 H   0  0  0  0  0  0  0  0  0  0  0  0
  -10.5045    3.4708  -17.0013 H   0  0  0  0  0  0  0  0  0  0  0  0
   -8.9097    2.7472  -16.8915 H   0  0  0  0  0  0  0  0  0  0  0  0
   -9.3534    3.6772  -18.3400 H   0  0  0  0  0  0  0  0  0  0  0  0
  -10.8165    5.9533  -16.7354 H   0  0  0  0  0  0  0  0  0  0  0  0
   -9.4188    7.0224  -16.4894 H   0  0  0  0  0  0  0  0  0  0  0  0
   -9.7220    6.2677  -18.0708 H   0  0  0  0  0  0  0  0  0  0  0  0
  1 16  1  0  0  0  0
  1 17  2  0  0  0  0
  1 20  1  0  0  0  0
  2  5  1  0  0  0  0
  2  9  1  0  0  0  0
  3  6  1  0  0  0  0
  3  9  1  0  0  0  0
  4  9  1  0  0  0  0
  4 10  1  0  0  0  0
  5 16  1  0  0  0  0
  6 16  1  0  0  0  0
  7 10  1  0  0  0  0
  7 18  1  0  0  0  0
  8 10  1  0  0  0  0
  8 11  1  0  0  0  0
  8 19  1  0  0  0  0
  9 19  1  0  0  0  0
 10 18  1  0  0  0  0
 12 15  1  0  0  0  0
 13 15  1  0  0  0  0
 14 15  1  0  0  0  0
 15 20  1  0  0  0  0
  2 21  1  0  0  0  0
  2 22  1  0  0  0  0
  3 23  1  0  0  0  0
  3 24  1  0  0  0  0
  4 25  1  0  0  0  0
  4 26  1  0  0  0  0
  5 27  1  0  0  0  0
  5 28  1  0  0  0  0
  6 29  1  0  0  0  0
  6 30  1  0  0  0  0
  7 31  1  0  0  0  0
  7 32  1  0  0  0  0
  8 33  1  0  0  0  0
 11 34  1  0  0  0  0
 11 35  1  0  0  0  0
 11 36  1  0  0  0  0
 12 37  1  0  0  0  0
 12 38  1  0  0  0  0
 12 39  1  0  0  0  0
 13 40  1  0  0  0  0
 13 41  1  0  0  0  0
 13 42  1  0  0  0  0
 14 43  1  0  0  0  0
 14 44  1  0  0  0  0
 14 45  1  0  0  0  0
M  END
> <id>
EN300-1708460

> <smiles>
CC1OC2(CC31CO3)CCN(CC2)C(=O)OC(C)(C)C

> <IUPAC Name>
tert-butyl 12-methyl-1,11-dioxa-8-azadispiro[2.1.5^{5}.2^{3}]dodecane-8-carboxylate

> <CAS>
2219376-67-5

> <URL>
https://www.enaminestore.com/catalog/EN300-1708460

> <ROCS_ShapeQuery>
_x0404_0B

> <ROCS_TanimotoCombo>
0.381 

> <ROCS_ShapeTanimoto>
0.314 

> <ROCS_ColorTanimoto>
0.067 

> <ROCS_RefTversky>
0.282 

> <ROCS_RefColorTversky>
0.071 

> <ROCS_RefTverskyCombo>
0.353 

> <ROCS_FitTversky>
1.572 

> <ROCS_FitColorTversky>
0.539 

> <ROCS_FitTverskyCombo>
2.111 

> <ROCS_ColorScore>
-5.111

> <ROCS_Overlap>
1878.472

> <ROCS_Rank>
267                 

$$$$
untitled-dbase-16673_13
  -OEChem-08212314543D

 42 45  0     1  0  0  0  0  0999 V2000
  -10.0471    3.2697   -7.0752 C   0  0  0  0  0  0  0  0  0  0  0  0
   -8.5428    3.2014   -6.8335 C   0  0  0  0  0  0  0  0  0  0  0  0
   -9.9527    6.4012  -13.7407 C   0  0  0  0  0  0  0  0  0  0  0  0
   -7.5706    6.2420  -12.9683 C   0  0  0  0  0  0  0  0  0  0  0  0
  -10.1743    4.3095   -9.3985 C   0  0  0  0  0  0  0  0  0  0  0  0
   -7.6821    4.2654   -8.9772 C   0  0  0  0  0  0  0  0  0  0  0  0
   -9.2205    4.3680  -12.4023 C   0  0  0  0  0  0  0  0  0  0  0  0
   -9.4608    5.9694  -15.1180 C   0  0  0  0  0  0  0  0  0  0  0  0
   -7.2102    5.8306  -14.3929 C   0  0  0  0  0  0  0  0  0  0  0  0
   -9.4282    6.5790  -11.2837 C   0  0  0  0  0  0  0  0  0  0  0  0
  -10.2065    3.0033   -8.5743 C   0  0  1  0  0  0  0  0  0  0  0  0
   -7.9483    2.9456   -8.2195 C   0  0  2  0  0  0  0  0  0  0  0  0
   -9.0373    5.8915  -12.6062 C   0  0  0  0  0  0  0  0  0  0  0  0
   -8.7829    4.6516  -10.0029 C   0  0  0  0  0  0  0  0  0  0  0  0
   -8.4976    3.8791  -11.2299 N   0  0  0  0  0  0  0  0  0  0  0  0
   -9.0225    2.1832   -8.8781 N   0  0  0  0  0  0  0  0  0  0  0  0
   -8.1188    6.4004  -15.3324 O   0  0  0  0  0  0  0  0  0  0  0  0
   -8.6512    6.0702  -10.2007 O   0  0  0  0  0  0  0  0  0  0  0  0
  -10.5415    2.4785   -6.4977 H   0  0  0  0  0  0  0  0  0  0  0  0
  -10.4849    4.2218   -6.7607 H   0  0  0  0  0  0  0  0  0  0  0  0
   -8.1489    4.1047   -6.3600 H   0  0  0  0  0  0  0  0  0  0  0  0
   -8.3226    2.3597   -6.1660 H   0  0  0  0  0  0  0  0  0  0  0  0
  -10.0566    7.4918  -13.7272 H   0  0  0  0  0  0  0  0  0  0  0  0
  -10.9572    5.9809  -13.5971 H   0  0  0  0  0  0  0  0  0  0  0  0
   -6.9046    5.7053  -12.2805 H   0  0  0  0  0  0  0  0  0  0  0  0
   -7.3810    7.3120  -12.8300 H   0  0  0  0  0  0  0  0  0  0  0  0
  -10.9167    4.2061  -10.2046 H   0  0  0  0  0  0  0  0  0  0  0  0
  -10.5157    5.1350   -8.7578 H   0  0  0  0  0  0  0  0  0  0  0  0
   -7.5290    5.0598   -8.2356 H   0  0  0  0  0  0  0  0  0  0  0  0
   -6.7203    4.1542   -9.5040 H   0  0  0  0  0  0  0  0  0  0  0  0
  -10.2854    4.1246  -12.2810 H   0  0  0  0  0  0  0  0  0  0  0  0
   -8.8927    3.8177  -13.2960 H   0  0  0  0  0  0  0  0  0  0  0  0
   -9.4706    4.8775  -15.1849 H   0  0  0  0  0  0  0  0  0  0  0  0
  -10.1007    6.3484  -15.9207 H   0  0  0  0  0  0  0  0  0  0  0  0
   -6.1838    6.1141  -14.6539 H   0  0  0  0  0  0  0  0  0  0  0  0
   -7.2775    4.7411  -14.4879 H   0  0  0  0  0  0  0  0  0  0  0  0
   -9.3046    7.6634  -11.3450 H   0  0  0  0  0  0  0  0  0  0  0  0
  -10.4758    6.4051  -11.0302 H   0  0  0  0  0  0  0  0  0  0  0  0
  -11.1365    2.4666   -8.7754 H   0  0  0  0  0  0  0  0  0  0  0  0
   -7.0260    2.3697   -8.1463 H   0  0  0  0  0  0  0  0  0  0  0  0
   -8.7405    2.8987  -11.0717 H   0  0  0  0  0  0  0  0  0  0  0  0
   -9.1186    1.2825   -8.4108 H   0  0  0  0  0  0  0  0  0  0  0  0
  1  2  1  0  0  0  0
  1 11  1  0  0  0  0
  2 12  1  0  0  0  0
  3  8  1  0  0  0  0
  3 13  1  0  0  0  0
  4  9  1  0  0  0  0
  4 13  1  0  0  0  0
  5 11  1  0  0  0  0
  5 14  1  0  0  0  0
  6 12  1  0  0  0  0
  6 14  1  0  0  0  0
  7 13  1  0  0  0  0
  7 15  1  0  0  0  0
  8 17  1  0  0  0  0
  9 17  1  0  0  0  0
 10 13  1  0  0  0  0
 10 18  1  0  0  0  0
 11 16  1  0  0  0  0
 12 16  1  0  0  0  0
 14 15  1  0  0  0  0
 14 18  1  0  0  0  0
  1 19  1  0  0  0  0
  1 20  1  0  0  0  0
  2 21  1  0  0  0  0
  2 22  1  0  0  0  0
  3 23  1  0  0  0  0
  3 24  1  0  0  0  0
  4 25  1  0  0  0  0
  4 26  1  0  0  0  0
  5 27  1  0  0  0  0
  5 28  1  0  0  0  0
  6 29  1  0  0  0  0
  6 30  1  0  0  0  0
  7 31  1  0  0  0  0
  7 32  1  0  0  0  0
  8 33  1  0  0  0  0
  8 34  1  0  0  0  0
  9 35  1  0  0  0  0
  9 36  1  0  0  0  0
 10 37  1  0  0  0  0
 10 38  1  0  0  0  0
 11 39  1  0  0  0  0
 12 40  1  0  0  0  0
 15 41  1  0  0  0  0
 16 42  1  0  0  0  0
M  END
> <id>
EN300-1278993

> <smiles>
C1CC2CC3(CC1N2)NCC4(CCOCC4)CO3

> <IUPAC Name>
dispiro[8-azabicyclo[3.2.1]octane-3,2'-[1,3]oxazinane-5',4''-oxane]

> <URL>
https://www.enaminestore.com/catalog/EN300-1278993

> <ROCS_ShapeQuery>
_x0404_0B

> <ROCS_TanimotoCombo>
0.381 

> <ROCS_ShapeTanimoto>
0.250 

> <ROCS_ColorTanimoto>
0.131 

> <ROCS_RefTversky>
0.234 

> <ROCS_RefColorTversky>
0.142 

> <ROCS_RefTverskyCombo>
0.376 

> <ROCS_FitTversky>
1.387 

> <ROCS_FitColorTversky>
0.612 

> <ROCS_FitTverskyCombo>
1.999 

> <ROCS_ColorScore>
-10.329

> <ROCS_Overlap>
1557.339

> <ROCS_Rank>
268                 

$$$$
untitled-dbase-45865_164
  -OEChem-08212314543D

 48 49  0     0  0  0  0  0  0999 V2000
   -9.0834    5.8982  -12.5278 C   0  0  0  0  0  0  0  0  0  0  0  0
   -8.9659    4.6438  -11.9717 C   0  0  0  0  0  0  0  0  0  0  0  0
   -8.9276    6.7758  -11.4459 C   0  0  0  0  0  0  0  0  0  0  0  0
   -8.4957    3.8521   -9.6475 C   0  0  0  0  0  0  0  0  0  0  0  0
   -8.5945    4.8503  -16.0136 C   0  0  0  0  0  0  0  0  0  0  0  0
   -9.3298    6.1473  -13.9680 C   0  0  0  0  0  0  0  0  0  0  0  0
   -9.0556    3.3696  -12.7326 C   0  0  0  0  0  0  0  0  0  0  0  0
   -9.6695    3.6494  -14.1164 C   0  0  0  0  0  0  0  0  0  0  0  0
   -6.7908    2.7423   -7.6724 C   0  0  0  0  0  0  0  0  0  0  0  0
   -7.8469    4.3921   -6.1001 C   0  0  0  0  0  0  0  0  0  0  0  0
   -9.2601    2.6301   -7.1985 C   0  0  0  0  0  0  0  0  0  0  0  0
   -7.7264    4.3037  -18.6855 C   0  0  0  0  0  0  0  0  0  0  0  0
   -9.6853    2.7360  -18.8039 C   0  0  0  0  0  0  0  0  0  0  0  0
  -10.0692    5.1927  -18.4497 C   0  0  0  0  0  0  0  0  0  0  0  0
   -8.0496    3.5490   -7.3572 C   0  0  0  0  0  0  0  0  0  0  0  0
   -9.1366    4.0142  -18.1735 C   0  0  0  0  0  0  0  0  0  0  0  0
   -8.7157    6.1378  -10.2924 N   0  0  0  0  0  0  0  0  0  0  0  0
   -8.7249    4.8189  -10.6267 N   0  0  0  0  0  0  0  0  0  0  0  0
   -9.1402    4.8873  -14.7248 N   0  0  0  0  0  0  0  0  0  0  0  0
   -8.4887    2.6637   -9.9238 O   0  0  0  0  0  0  0  0  0  0  0  0
   -7.7719    5.6575  -16.4422 O   0  0  0  0  0  0  0  0  0  0  0  0
   -8.2986    4.4468   -8.4428 O   0  0  0  0  0  0  0  0  0  0  0  0
   -9.0735    3.8046  -16.7580 O   0  0  0  0  0  0  0  0  0  0  0  0
   -8.9977    8.8400  -11.5466 I   0  0  0  0  0  0  0  0  0  0  0  0
  -10.3386    6.5376  -14.1262 H   0  0  0  0  0  0  0  0  0  0  0  0
   -8.6087    6.8712  -14.3629 H   0  0  0  0  0  0  0  0  0  0  0  0
   -8.0685    2.9156  -12.8657 H   0  0  0  0  0  0  0  0  0  0  0  0
   -9.6886    2.6624  -12.1844 H   0  0  0  0  0  0  0  0  0  0  0  0
   -9.4225    2.8350  -14.8093 H   0  0  0  0  0  0  0  0  0  0  0  0
  -10.7606    3.6860  -14.0369 H   0  0  0  0  0  0  0  0  0  0  0  0
   -6.9322    2.1358   -8.5741 H   0  0  0  0  0  0  0  0  0  0  0  0
   -5.9225    3.3920   -7.8230 H   0  0  0  0  0  0  0  0  0  0  0  0
   -6.5621    2.0416   -6.8612 H   0  0  0  0  0  0  0  0  0  0  0  0
   -8.7477    4.9726   -5.8703 H   0  0  0  0  0  0  0  0  0  0  0  0
   -7.0395    5.1192   -6.2438 H   0  0  0  0  0  0  0  0  0  0  0  0
   -7.6038    3.7710   -5.2320 H   0  0  0  0  0  0  0  0  0  0  0  0
  -10.1632    3.2085   -6.9725 H   0  0  0  0  0  0  0  0  0  0  0  0
   -9.4430    2.0439   -8.1049 H   0  0  0  0  0  0  0  0  0  0  0  0
   -9.1174    1.9391   -6.3598 H   0  0  0  0  0  0  0  0  0  0  0  0
   -7.3290    5.2205  -18.2354 H   0  0  0  0  0  0  0  0  0  0  0  0
   -7.0394    3.4808  -18.4626 H   0  0  0  0  0  0  0  0  0  0  0  0
   -7.7298    4.4678  -19.7692 H   0  0  0  0  0  0  0  0  0  0  0  0
  -10.6971    2.5244  -18.4394 H   0  0  0  0  0  0  0  0  0  0  0  0
   -9.0711    1.8707  -18.5295 H   0  0  0  0  0  0  0  0  0  0  0  0
   -9.7178    2.8058  -19.8960 H   0  0  0  0  0  0  0  0  0  0  0  0
  -11.0808    4.9853  -18.0826 H   0  0  0  0  0  0  0  0  0  0  0  0
   -9.7104    6.1111  -17.9738 H   0  0  0  0  0  0  0  0  0  0  0  0
  -10.1619    5.3721  -19.5270 H   0  0  0  0  0  0  0  0  0  0  0  0
  1  2  2  0  0  0  0
  1  3  1  0  0  0  0
  1  6  1  0  0  0  0
  2  7  1  0  0  0  0
  2 18  1  0  0  0  0
  3 17  2  0  0  0  0
  3 24  1  0  0  0  0
  4 18  1  0  0  0  0
  4 20  2  0  0  0  0
  4 22  1  0  0  0  0
  5 19  1  0  0  0  0
  5 21  2  0  0  0  0
  5 23  1  0  0  0  0
  6 19  1  0  0  0  0
  7  8  1  0  0  0  0
  8 19  1  0  0  0  0
  9 15  1  0  0  0  0
 10 15  1  0  0  0  0
 11 15  1  0  0  0  0
 12 16  1  0  0  0  0
 13 16  1  0  0  0  0
 14 16  1  0  0  0  0
 15 22  1  0  0  0  0
 16 23  1  0  0  0  0
 17 18  1  0  0  0  0
  6 25  1  0  0  0  0
  6 26  1  0  0  0  0
  7 27  1  0  0  0  0
  7 28  1  0  0  0  0
  8 29  1  0  0  0  0
  8 30  1  0  0  0  0
  9 31  1  0  0  0  0
  9 32  1  0  0  0  0
  9 33  1  0  0  0  0
 10 34  1  0  0  0  0
 10 35  1  0  0  0  0
 10 36  1  0  0  0  0
 11 37  1  0  0  0  0
 11 38  1  0  0  0  0
 11 39  1  0  0  0  0
 12 40  1  0  0  0  0
 12 41  1  0  0  0  0
 12 42  1  0  0  0  0
 13 43  1  0  0  0  0
 13 44  1  0  0  0  0
 13 45  1  0  0  0  0
 14 46  1  0  0  0  0
 14 47  1  0  0  0  0
 14 48  1  0  0  0  0
M  END
> <id>
EN300-28262886

> <smiles>
CC(C)(C)OC(=O)N1CCC2=C(C1)C(I)=NN2C(=O)OC(C)(C)C

> <IUPAC Name>
1,5-di-tert-butyl 3-iodo-1H,4H,5H,6H,7H-pyrazolo[4,3-c]pyridine-1,5-dicarboxylate

> <CAS>
2680786-22-3

> <URL>
https://www.enaminestore.com/catalog/EN300-28262886

> <ROCS_ShapeQuery>
_x0404_0B

> <ROCS_TanimotoCombo>
0.381 

> <ROCS_ShapeTanimoto>
0.340 

> <ROCS_ColorTanimoto>
0.041 

> <ROCS_RefTversky>
0.306 

> <ROCS_RefColorTversky>
0.045 

> <ROCS_RefTverskyCombo>
0.351 

> <ROCS_FitTversky>
1.497 

> <ROCS_FitColorTversky>
0.286 

> <ROCS_FitTverskyCombo>
1.783 

> <ROCS_ColorScore>
-3.258

> <ROCS_Overlap>
2040.643

> <ROCS_Rank>
269                 

$$$$
untitled-dbase-34200_114
  -OEChem-08212314543D

 45 47  0     0  0  0  0  0  0999 V2000
   -8.9758    3.1235   -7.1504 C   0  0  0  0  0  0  0  0  0  0  0  0
   -9.1150    2.0935   -8.0527 C   0  0  0  0  0  0  0  0  0  0  0  0
   -8.9175    4.3938   -7.7946 C   0  0  0  0  0  0  0  0  0  0  0  0
   -9.0205    4.2879   -9.1714 C   0  0  0  0  0  0  0  0  0  0  0  0
   -8.6743    5.6145  -14.5254 C   0  0  0  0  0  0  0  0  0  0  0  0
   -8.7826    5.7222   -7.1273 C   0  0  0  0  0  0  0  0  0  0  0  0
  -10.2104    5.4860  -11.0814 C   0  0  0  0  0  0  0  0  0  0  0  0
   -7.6532    5.4611  -10.9526 C   0  0  0  0  0  0  0  0  0  0  0  0
   -8.3053    6.7867   -8.1210 C   0  0  0  0  0  0  0  0  0  0  0  0
   -9.9297    4.9011  -12.4656 C   0  0  0  0  0  0  0  0  0  0  0  0
   -7.7868    6.1872  -12.2877 C   0  0  0  0  0  0  0  0  0  0  0  0
   -8.9738    5.4746  -10.1339 C   0  0  0  0  0  0  0  0  0  0  0  0
   -7.6336    4.5074  -16.9496 C   0  0  0  0  0  0  0  0  0  0  0  0
   -9.7633    3.1787  -17.0401 C   0  0  0  0  0  0  0  0  0  0  0  0
   -9.8489    5.6868  -17.1400 C   0  0  0  0  0  0  0  0  0  0  0  0
   -9.1126    4.4767  -16.5670 C   0  0  0  0  0  0  0  0  0  0  0  0
   -9.0884    6.7482   -9.3613 N   0  0  0  0  0  0  0  0  0  0  0  0
   -8.8085    5.5706  -13.1337 N   0  0  0  0  0  0  0  0  0  0  0  0
   -8.1280    6.5291  -15.1395 O   0  0  0  0  0  0  0  0  0  0  0  0
   -9.2148    4.5149  -15.1390 O   0  0  0  0  0  0  0  0  0  0  0  0
   -9.1761    2.6572   -9.6651 S   0  0  0  0  0  0  0  0  0  0  0  0
   -8.9214    2.9713   -6.0800 H   0  0  0  0  0  0  0  0  0  0  0  0
   -9.1867    1.0363   -7.8399 H   0  0  0  0  0  0  0  0  0  0  0  0
   -9.7406    6.0301   -6.6912 H   0  0  0  0  0  0  0  0  0  0  0  0
   -8.0607    5.6315   -6.3051 H   0  0  0  0  0  0  0  0  0  0  0  0
  -10.6123    6.5041  -11.1930 H   0  0  0  0  0  0  0  0  0  0  0  0
  -11.0296    4.9050  -10.6277 H   0  0  0  0  0  0  0  0  0  0  0  0
   -7.3407    4.4317  -11.1618 H   0  0  0  0  0  0  0  0  0  0  0  0
   -6.8413    5.9145  -10.3709 H   0  0  0  0  0  0  0  0  0  0  0  0
   -8.3456    7.7835   -7.6685 H   0  0  0  0  0  0  0  0  0  0  0  0
   -7.2537    6.5953   -8.3609 H   0  0  0  0  0  0  0  0  0  0  0  0
   -9.7182    3.8280  -12.3642 H   0  0  0  0  0  0  0  0  0  0  0  0
  -10.8016    4.9756  -13.1292 H   0  0  0  0  0  0  0  0  0  0  0  0
   -8.0707    7.2385  -12.1468 H   0  0  0  0  0  0  0  0  0  0  0  0
   -6.8119    6.1961  -12.7891 H   0  0  0  0  0  0  0  0  0  0  0  0
   -7.1629    5.4376  -16.6117 H   0  0  0  0  0  0  0  0  0  0  0  0
   -7.0871    3.6636  -16.5158 H   0  0  0  0  0  0  0  0  0  0  0  0
   -7.5106    4.4764  -18.0383 H   0  0  0  0  0  0  0  0  0  0  0  0
  -10.8246    3.1523  -16.7677 H   0  0  0  0  0  0  0  0  0  0  0  0
   -9.2992    2.3109  -16.5576 H   0  0  0  0  0  0  0  0  0  0  0  0
   -9.6807    3.0574  -18.1251 H   0  0  0  0  0  0  0  0  0  0  0  0
  -10.9098    5.6650  -16.8656 H   0  0  0  0  0  0  0  0  0  0  0  0
   -9.4185    6.6276  -16.7816 H   0  0  0  0  0  0  0  0  0  0  0  0
   -9.8126    5.6822  -18.2354 H   0  0  0  0  0  0  0  0  0  0  0  0
  -10.0651    6.9622   -9.1532 H   0  0  0  0  0  0  0  0  0  0  0  0
  1  2  2  0  0  0  0
  1  3  1  0  0  0  0
  2 21  1  0  0  0  0
  3  4  2  0  0  0  0
  3  6  1  0  0  0  0
  4 12  1  0  0  0  0
  4 21  1  0  0  0  0
  5 18  1  0  0  0  0
  5 19  2  0  0  0  0
  5 20  1  0  0  0  0
  6  9  1  0  0  0  0
  7 10  1  0  0  0  0
  7 12  1  0  0  0  0
  8 11  1  0  0  0  0
  8 12  1  0  0  0  0
  9 17  1  0  0  0  0
 10 18  1  0  0  0  0
 11 18  1  0  0  0  0
 12 17  1  0  0  0  0
 13 16  1  0  0  0  0
 14 16  1  0  0  0  0
 15 16  1  0  0  0  0
 16 20  1  0  0  0  0
  1 22  1  0  0  0  0
  2 23  1  0  0  0  0
  6 24  1  0  0  0  0
  6 25  1  0  0  0  0
  7 26  1  0  0  0  0
  7 27  1  0  0  0  0
  8 28  1  0  0  0  0
  8 29  1  0  0  0  0
  9 30  1  0  0  0  0
  9 31  1  0  0  0  0
 10 32  1  0  0  0  0
 10 33  1  0  0  0  0
 11 34  1  0  0  0  0
 11 35  1  0  0  0  0
 13 36  1  0  0  0  0
 13 37  1  0  0  0  0
 13 38  1  0  0  0  0
 14 39  1  0  0  0  0
 14 40  1  0  0  0  0
 14 41  1  0  0  0  0
 15 42  1  0  0  0  0
 15 43  1  0  0  0  0
 15 44  1  0  0  0  0
 17 45  1  0  0  0  0
M  END
> <id>
EN300-370326

> <smiles>
CC(C)(C)OC(=O)N1CCC2(CC1)NCCC=3C=CSC32

> <MDLNUMBER>
MFCD30728241

> <IUPAC Name>
tert-butyl 5',6'-dihydro-4'H-spiro[piperidine-4,7'-thieno[2,3-c]pyridine]-1-carboxylate

> <CAS>
2138234-26-9

> <URL>
https://www.enaminestore.com/catalog/EN300-370326

> <ROCS_ShapeQuery>
_x0404_0B

> <ROCS_TanimotoCombo>
0.380 

> <ROCS_ShapeTanimoto>
0.306 

> <ROCS_ColorTanimoto>
0.075 

> <ROCS_RefTversky>
0.277 

> <ROCS_RefColorTversky>
0.079 

> <ROCS_RefTverskyCombo>
0.357 

> <ROCS_FitTversky>
1.510 

> <ROCS_FitColorTversky>
0.549 

> <ROCS_FitTverskyCombo>
2.059 

> <ROCS_ColorScore>
-5.736

> <ROCS_Overlap>
1849.476

> <ROCS_Rank>
270                 

$$$$
untitled-dbase-27581_0
  -OEChem-08212314543D

 27 29  0     0  0  0  0  0  0999 V2000
   -8.8626    4.9849  -15.1728 C   0  0  0  0  0  0  0  0  0  0  0  0
   -8.8677    5.1249  -13.9796 C   0  0  0  0  0  0  0  0  0  0  0  0
   -8.8441    4.4927  -19.3641 C   0  0  0  0  0  0  0  0  0  0  0  0
   -7.9090    3.8187  -18.5786 C   0  0  0  0  0  0  0  0  0  0  0  0
   -9.7853    5.3294  -18.7643 C   0  0  0  0  0  0  0  0  0  0  0  0
   -7.9153    3.9813  -17.1933 C   0  0  0  0  0  0  0  0  0  0  0  0
   -9.7915    5.4920  -17.3790 C   0  0  0  0  0  0  0  0  0  0  0  0
   -9.0049    4.2078  -11.7094 C   0  0  0  0  0  0  0  0  0  0  0  0
   -9.1362    3.5513   -8.1905 C   0  0  0  0  0  0  0  0  0  0  0  0
   -9.0090    4.8186   -7.6943 C   0  0  0  0  0  0  0  0  0  0  0  0
   -8.7508    6.5320  -11.9851 C   0  0  0  0  0  0  0  0  0  0  0  0
   -8.8565    4.8180  -16.5934 C   0  0  0  0  0  0  0  0  0  0  0  0
   -8.8740    5.2909  -12.5640 C   0  0  0  0  0  0  0  0  0  0  0  0
   -9.0101    4.3816  -10.3302 C   0  0  0  0  0  0  0  0  0  0  0  0
   -8.8790    5.6852   -9.8309 C   0  0  0  0  0  0  0  0  0  0  0  0
   -9.1381    3.3208   -9.5126 N   0  0  0  0  0  0  0  0  0  0  0  0
   -8.8807    5.8832   -8.5080 N   0  0  0  0  0  0  0  0  0  0  0  0
   -8.7520    6.7382  -10.6504 N   0  0  0  0  0  0  0  0  0  0  0  0
   -8.8379    4.3674  -20.4430 H   0  0  0  0  0  0  0  0  0  0  0  0
   -7.1754    3.1682  -19.0455 H   0  0  0  0  0  0  0  0  0  0  0  0
  -10.5130    5.8552  -19.3754 H   0  0  0  0  0  0  0  0  0  0  0  0
   -7.1798    3.4492  -16.5946 H   0  0  0  0  0  0  0  0  0  0  0  0
  -10.5310    6.1479  -16.9260 H   0  0  0  0  0  0  0  0  0  0  0  0
   -9.1063    3.2034  -12.1181 H   0  0  0  0  0  0  0  0  0  0  0  0
   -9.2404    2.6856   -7.5495 H   0  0  0  0  0  0  0  0  0  0  0  0
   -9.0052    5.0254   -6.6317 H   0  0  0  0  0  0  0  0  0  0  0  0
   -8.6435    7.4344  -12.5797 H   0  0  0  0  0  0  0  0  0  0  0  0
  1  2  3  0  0  0  0
  1 12  1  0  0  0  0
  2 13  1  0  0  0  0
  3  4  2  0  0  0  0
  3  5  1  0  0  0  0
  4  6  1  0  0  0  0
  5  7  2  0  0  0  0
  6 12  2  0  0  0  0
  7 12  1  0  0  0  0
  8 13  1  0  0  0  0
  8 14  2  0  0  0  0
  9 10  1  0  0  0  0
  9 16  2  0  0  0  0
 10 17  2  0  0  0  0
 11 13  2  0  0  0  0
 11 18  1  0  0  0  0
 14 15  1  0  0  0  0
 14 16  1  0  0  0  0
 15 17  1  0  0  0  0
 15 18  2  0  0  0  0
  3 19  1  0  0  0  0
  4 20  1  0  0  0  0
  5 21  1  0  0  0  0
  6 22  1  0  0  0  0
  7 23  1  0  0  0  0
  8 24  1  0  0  0  0
  9 25  1  0  0  0  0
 10 26  1  0  0  0  0
 11 27  1  0  0  0  0
M  END
> <id>
EN300-45198

> <smiles>
C(#CC=1C=NC=2N=CC=NC2C1)C=3C=CC=CC3

> <MDLNUMBER>
MFCD32639858

> <IUPAC Name>
7-(2-phenylethynyl)pyrido[2,3-b]pyrazine

> <CAS>
1264192-44-0

> <Purity>
95

> <URL>
https://www.enaminestore.com/catalog/EN300-45198

> <ROCS_ShapeQuery>
_x0404_0B

> <ROCS_TanimotoCombo>
0.380 

> <ROCS_ShapeTanimoto>
0.312 

> <ROCS_ColorTanimoto>
0.068 

> <ROCS_RefTversky>
0.279 

> <ROCS_RefColorTversky>
0.072 

> <ROCS_RefTverskyCombo>
0.351 

> <ROCS_FitTversky>
1.624 

> <ROCS_FitColorTversky>
0.546 

> <ROCS_FitTverskyCombo>
2.170 

> <ROCS_ColorScore>
-5.185

> <ROCS_Overlap>
1859.771

> <ROCS_Rank>
271                 

$$$$
untitled-dbase-45774_710
  -OEChem-08212314543D

 53 54  0     0  0  0  0  0  0999 V2000
   -5.9075    2.6594  -10.4942 C   0  0  0  0  0  0  0  0  0  0  0  0
   -6.6707    3.7282  -10.0258 C   0  0  0  0  0  0  0  0  0  0  0  0
   -6.2271    2.0571  -11.7052 C   0  0  0  0  0  0  0  0  0  0  0  0
   -8.1002    3.5910  -11.9873 C   0  0  0  0  0  0  0  0  0  0  0  0
   -7.7644    4.2119  -10.7660 C   0  0  0  0  0  0  0  0  0  0  0  0
   -7.3173    2.5159  -12.4434 C   0  0  0  0  0  0  0  0  0  0  0  0
   -8.9455    5.4471   -8.9533 C   0  0  0  0  0  0  0  0  0  0  0  0
   -8.8336    5.7328  -14.4820 C   0  0  0  0  0  0  0  0  0  0  0  0
   -9.3388    3.9605  -12.7680 C   0  0  0  0  0  0  0  0  0  0  0  0
   -8.6024    6.5059  -11.1773 C   0  0  0  0  0  0  0  0  0  0  0  0
   -9.6841    6.3567  -12.2384 C   0  0  0  0  0  0  0  0  0  0  0  0
  -10.1471    5.1955   -6.3660 C   0  0  0  0  0  0  0  0  0  0  0  0
   -9.9586    2.7162   -6.7220 C   0  0  0  0  0  0  0  0  0  0  0  0
   -7.8836    4.1286   -6.6360 C   0  0  0  0  0  0  0  0  0  0  0  0
   -7.0133    5.3520  -16.6573 C   0  0  0  0  0  0  0  0  0  0  0  0
   -8.7774    3.8507  -17.6285 C   0  0  0  0  0  0  0  0  0  0  0  0
   -9.2709    6.2859  -17.2621 C   0  0  0  0  0  0  0  0  0  0  0  0
   -9.3545    4.0806   -7.0469 C   0  0  0  0  0  0  0  0  0  0  0  0
   -8.5118    5.0658  -16.7424 C   0  0  0  0  0  0  0  0  0  0  0  0
   -8.4850    5.3486  -10.2786 N   0  0  0  0  0  0  0  0  0  0  0  0
   -9.3176    5.3470  -13.2255 N   0  0  0  0  0  0  0  0  0  0  0  0
   -8.9572    6.4911   -8.3025 O   0  0  0  0  0  0  0  0  0  0  0  0
   -8.3131    6.8210  -14.7205 O   0  0  0  0  0  0  0  0  0  0  0  0
   -9.4379    4.2628   -8.4650 O   0  0  0  0  0  0  0  0  0  0  0  0
   -8.9918    4.7555  -15.4295 O   0  0  0  0  0  0  0  0  0  0  0  0
   -7.6567    1.5269  -14.0434 Br  0  0  0  0  0  0  0  0  0  0  0  0
   -5.0770    2.2857   -9.9036 H   0  0  0  0  0  0  0  0  0  0  0  0
   -6.4205    4.1285   -9.0521 H   0  0  0  0  0  0  0  0  0  0  0  0
   -5.6186    1.2222  -12.0474 H   0  0  0  0  0  0  0  0  0  0  0  0
   -9.4598    3.3567  -13.6663 H   0  0  0  0  0  0  0  0  0  0  0  0
  -10.2317    3.7967  -12.1557 H   0  0  0  0  0  0  0  0  0  0  0  0
   -7.6371    6.6937  -11.6800 H   0  0  0  0  0  0  0  0  0  0  0  0
   -8.7600    7.4126  -10.5626 H   0  0  0  0  0  0  0  0  0  0  0  0
  -10.6211    6.0372  -11.7743 H   0  0  0  0  0  0  0  0  0  0  0  0
   -9.8663    7.3156  -12.7294 H   0  0  0  0  0  0  0  0  0  0  0  0
   -9.7166    6.1765   -6.5968 H   0  0  0  0  0  0  0  0  0  0  0  0
  -11.1962    5.1938   -6.6792 H   0  0  0  0  0  0  0  0  0  0  0  0
  -10.1112    5.0910   -5.2756 H   0  0  0  0  0  0  0  0  0  0  0  0
   -9.3931    1.9133   -7.2085 H   0  0  0  0  0  0  0  0  0  0  0  0
  -10.9849    2.6437   -7.1000 H   0  0  0  0  0  0  0  0  0  0  0  0
   -9.9721    2.5267   -5.6438 H   0  0  0  0  0  0  0  0  0  0  0  0
   -7.3149    3.3290   -7.1242 H   0  0  0  0  0  0  0  0  0  0  0  0
   -7.4235    5.0877   -6.8951 H   0  0  0  0  0  0  0  0  0  0  0  0
   -7.7752    3.9706   -5.5568 H   0  0  0  0  0  0  0  0  0  0  0  0
   -6.8185    6.2235  -16.0222 H   0  0  0  0  0  0  0  0  0  0  0  0
   -6.4617    4.4969  -16.2532 H   0  0  0  0  0  0  0  0  0  0  0  0
   -6.6043    5.5920  -17.6454 H   0  0  0  0  0  0  0  0  0  0  0  0
   -9.8514    3.6417  -17.6924 H   0  0  0  0  0  0  0  0  0  0  0  0
   -8.3126    2.9517  -17.2077 H   0  0  0  0  0  0  0  0  0  0  0  0
   -8.3920    3.9981  -18.6425 H   0  0  0  0  0  0  0  0  0  0  0  0
  -10.3458    6.0809  -17.3232 H   0  0  0  0  0  0  0  0  0  0  0  0
   -9.1216    7.1583  -16.6177 H   0  0  0  0  0  0  0  0  0  0  0  0
   -8.9469    6.5432  -18.2770 H   0  0  0  0  0  0  0  0  0  0  0  0
  1  2  1  0  0  0  0
  1  3  2  0  0  0  0
  2  5  2  0  0  0  0
  3  6  1  0  0  0  0
  4  5  1  0  0  0  0
  4  6  2  0  0  0  0
  4  9  1  0  0  0  0
  5 20  1  0  0  0  0
  6 26  1  0  0  0  0
  7 20  1  0  0  0  0
  7 22  2  0  0  0  0
  7 24  1  0  0  0  0
  8 21  1  0  0  0  0
  8 23  2  0  0  0  0
  8 25  1  0  0  0  0
  9 21  1  0  0  0  0
 10 11  1  0  0  0  0
 10 20  1  0  0  0  0
 11 21  1  0  0  0  0
 12 18  1  0  0  0  0
 13 18  1  0  0  0  0
 14 18  1  0  0  0  0
 15 19  1  0  0  0  0
 16 19  1  0  0  0  0
 17 19  1  0  0  0  0
 18 24  1  0  0  0  0
 19 25  1  0  0  0  0
  1 27  1  0  0  0  0
  2 28  1  0  0  0  0
  3 29  1  0  0  0  0
  9 30  1  0  0  0  0
  9 31  1  0  0  0  0
 10 32  1  0  0  0  0
 10 33  1  0  0  0  0
 11 34  1  0  0  0  0
 11 35  1  0  0  0  0
 12 36  1  0  0  0  0
 12 37  1  0  0  0  0
 12 38  1  0  0  0  0
 13 39  1  0  0  0  0
 13 40  1  0  0  0  0
 13 41  1  0  0  0  0
 14 42  1  0  0  0  0
 14 43  1  0  0  0  0
 14 44  1  0  0  0  0
 15 45  1  0  0  0  0
 15 46  1  0  0  0  0
 15 47  1  0  0  0  0
 16 48  1  0  0  0  0
 16 49  1  0  0  0  0
 16 50  1  0  0  0  0
 17 51  1  0  0  0  0
 17 52  1  0  0  0  0
 17 53  1  0  0  0  0
M  END
> <id>
EN300-28304096

> <smiles>
CC(C)(C)OC(=O)N1CCN(C(=O)OC(C)(C)C)C=2C=CC=C(Br)C2C1

> <IUPAC Name>
1,4-di-tert-butyl 6-bromo-2,3,4,5-tetrahydro-1H-1,4-benzodiazepine-1,4-dicarboxylate

> <CAS>
2680802-86-0

> <URL>
https://www.enaminestore.com/catalog/EN300-28304096

> <ROCS_ShapeQuery>
_x0404_0B

> <ROCS_TanimotoCombo>
0.380 

> <ROCS_ShapeTanimoto>
0.333 

> <ROCS_ColorTanimoto>
0.047 

> <ROCS_RefTversky>
0.304 

> <ROCS_RefColorTversky>
0.051 

> <ROCS_RefTverskyCombo>
0.355 

> <ROCS_FitTversky>
1.410 

> <ROCS_FitColorTversky>
0.354 

> <ROCS_FitTverskyCombo>
1.764 

> <ROCS_ColorScore>
-3.695

> <ROCS_Overlap>
2029.521

> <ROCS_Rank>
272                 

$$$$
untitled-dbase-1072_75
  -OEChem-08212314543D

 35 36  0     0  0  0  0  0  0999 V2000
   -9.0538    3.2189  -10.0500 C   0  0  0  0  0  0  0  0  0  0  0  0
   -8.8344    4.3241  -10.7679 C   0  0  0  0  0  0  0  0  0  0  0  0
   -8.8148    5.5905  -10.0021 C   0  0  0  0  0  0  0  0  0  0  0  0
   -9.2126    3.2937   -8.5831 C   0  0  0  0  0  0  0  0  0  0  0  0
   -8.5987    5.6750  -14.2926 C   0  0  0  0  0  0  0  0  0  0  0  0
   -8.6313    4.3113  -12.2484 C   0  0  0  0  0  0  0  0  0  0  0  0
   -8.6435    6.8590  -10.7995 C   0  0  0  0  0  0  0  0  0  0  0  0
   -9.3579    6.7298  -12.1327 C   0  0  0  0  0  0  0  0  0  0  0  0
   -7.1644    4.8281  -16.6186 C   0  0  0  0  0  0  0  0  0  0  0  0
   -8.9564    3.0848  -16.8618 C   0  0  0  0  0  0  0  0  0  0  0  0
   -9.5554    5.5205  -16.9910 C   0  0  0  0  0  0  0  0  0  0  0  0
   -8.6296    4.4866  -16.3515 C   0  0  0  0  0  0  0  0  0  0  0  0
   -8.9309    5.6932   -8.7174 N   0  0  0  0  0  0  0  0  0  0  0  0
   -9.1178    4.5455   -8.0251 N   0  0  0  0  0  0  0  0  0  0  0  0
   -8.8293    5.6045  -12.9100 N   0  0  0  0  0  0  0  0  0  0  0  0
   -9.4082    2.2691   -7.9330 O   0  0  0  0  0  0  0  0  0  0  0  0
   -8.2091    6.6878  -14.8724 O   0  0  0  0  0  0  0  0  0  0  0  0
   -8.8482    4.4923  -14.9362 O   0  0  0  0  0  0  0  0  0  0  0  0
   -9.1084    2.2366  -10.5169 H   0  0  0  0  0  0  0  0  0  0  0  0
   -7.5891    3.9860  -12.4821 H   0  0  0  0  0  0  0  0  0  0  0  0
   -9.2814    3.5409  -12.7306 H   0  0  0  0  0  0  0  0  0  0  0  0
   -9.0452    7.7096  -10.2389 H   0  0  0  0  0  0  0  0  0  0  0  0
   -7.5707    7.0307  -10.9445 H   0  0  0  0  0  0  0  0  0  0  0  0
  -10.4133    6.5361  -11.9715 H   0  0  0  0  0  0  0  0  0  0  0  0
   -9.2510    7.6383  -12.7125 H   0  0  0  0  0  0  0  0  0  0  0  0
   -6.9259    5.8336  -16.2538 H   0  0  0  0  0  0  0  0  0  0  0  0
   -6.4893    4.1139  -16.1361 H   0  0  0  0  0  0  0  0  0  0  0  0
   -6.9535    4.8314  -17.6942 H   0  0  0  0  0  0  0  0  0  0  0  0
  -10.0067    2.8355  -16.6722 H   0  0  0  0  0  0  0  0  0  0  0  0
   -8.3603    2.3295  -16.3368 H   0  0  0  0  0  0  0  0  0  0  0  0
   -8.7663    2.9913  -17.9359 H   0  0  0  0  0  0  0  0  0  0  0  0
  -10.6064    5.2757  -16.7995 H   0  0  0  0  0  0  0  0  0  0  0  0
   -9.3600    6.5277  -16.6090 H   0  0  0  0  0  0  0  0  0  0  0  0
   -9.4339    5.5314  -18.0802 H   0  0  0  0  0  0  0  0  0  0  0  0
   -9.1980    4.6676   -7.0214 H   0  0  0  0  0  0  0  0  0  0  0  0
  1  2  2  0  0  0  0
  1  4  1  0  0  0  0
  2  3  1  0  0  0  0
  2  6  1  0  0  0  0
  3  7  1  0  0  0  0
  3 13  2  0  0  0  0
  4 14  1  0  0  0  0
  4 16  2  0  0  0  0
  5 15  1  0  0  0  0
  5 17  2  0  0  0  0
  5 18  1  0  0  0  0
  6 15  1  0  0  0  0
  7  8  1  0  0  0  0
  8 15  1  0  0  0  0
  9 12  1  0  0  0  0
 10 12  1  0  0  0  0
 11 12  1  0  0  0  0
 12 18  1  0  0  0  0
 13 14  1  0  0  0  0
  1 19  1  0  0  0  0
  6 20  1  0  0  0  0
  6 21  1  0  0  0  0
  7 22  1  0  0  0  0
  7 23  1  0  0  0  0
  8 24  1  0  0  0  0
  8 25  1  0  0  0  0
  9 26  1  0  0  0  0
  9 27  1  0  0  0  0
  9 28  1  0  0  0  0
 10 29  1  0  0  0  0
 10 30  1  0  0  0  0
 10 31  1  0  0  0  0
 11 32  1  0  0  0  0
 11 33  1  0  0  0  0
 11 34  1  0  0  0  0
 14 35  1  0  0  0  0
M  END
> <id>
EN300-62027

> <smiles>
CC(C)(C)OC(=O)N1CCC2=NNC(=O)C=C2C1

> <MDLNUMBER>
MFCD07757616

> <IUPAC Name>
tert-butyl 3-oxo-2H,3H,5H,6H,7H,8H-pyrido[4,3-c]pyridazine-6-carboxylate

> <CAS>
890091-87-9

> <Purity>
95

> <URL>
https://www.enaminestore.com/catalog/EN300-62027

> <ROCS_ShapeQuery>
_x0404_0B

> <ROCS_TanimotoCombo>
0.380 

> <ROCS_ShapeTanimoto>
0.306 

> <ROCS_ColorTanimoto>
0.074 

> <ROCS_RefTversky>
0.274 

> <ROCS_RefColorTversky>
0.079 

> <ROCS_RefTverskyCombo>
0.352 

> <ROCS_FitTversky>
1.632 

> <ROCS_FitColorTversky>
0.544 

> <ROCS_FitTverskyCombo>
2.176 

> <ROCS_ColorScore>
-5.680

> <ROCS_Overlap>
1823.224

> <ROCS_Rank>
273                 

$$$$
untitled-dbase-45468_52
  -OEChem-08212314543D

 40 42  0     0  0  0  0  0  0999 V2000
   -9.0546    5.9747   -8.0637 C   0  0  0  0  0  0  0  0  0  0  0  0
   -8.8991    6.7906   -9.1878 C   0  0  0  0  0  0  0  0  0  0  0  0
   -9.1265    4.5889   -8.1863 C   0  0  0  0  0  0  0  0  0  0  0  0
   -8.8864    4.7763  -10.5905 C   0  0  0  0  0  0  0  0  0  0  0  0
   -8.7703    4.5094  -11.9819 C   0  0  0  0  0  0  0  0  0  0  0  0
   -8.8184    6.1657  -10.4376 C   0  0  0  0  0  0  0  0  0  0  0  0
   -9.0443    3.9756   -9.4415 C   0  0  0  0  0  0  0  0  0  0  0  0
   -8.6424    5.7196  -12.6300 C   0  0  0  0  0  0  0  0  0  0  0  0
   -9.1757    4.5524  -16.0944 C   0  0  0  0  0  0  0  0  0  0  0  0
   -8.7860    3.2263  -12.7352 C   0  0  0  0  0  0  0  0  0  0  0  0
   -8.4845    5.9310  -14.0913 C   0  0  0  0  0  0  0  0  0  0  0  0
   -8.1532    3.4243  -14.1235 C   0  0  0  0  0  0  0  0  0  0  0  0
   -8.8772    4.4619  -18.9392 C   0  0  0  0  0  0  0  0  0  0  0  0
   -7.8780    6.7562  -18.7221 C   0  0  0  0  0  0  0  0  0  0  0  0
   -6.7596    4.7956  -17.6205 C   0  0  0  0  0  0  0  0  0  0  0  0
   -8.0961    5.4115  -18.0320 C   0  0  0  0  0  0  0  0  0  0  0  0
   -8.6683    6.7137  -11.6943 N   0  0  0  0  0  0  0  0  0  0  0  0
   -8.6665    4.6380  -14.7932 N   0  0  0  0  0  0  0  0  0  0  0  0
   -9.8227    3.6000  -16.5257 O   0  0  0  0  0  0  0  0  0  0  0  0
   -8.8698    5.6529  -16.8511 O   0  0  0  0  0  0  0  0  0  0  0  0
   -9.1177    2.0833   -9.4905 Br  0  0  0  0  0  0  0  0  0  0  0  0
   -9.1195    6.4306   -7.0789 H   0  0  0  0  0  0  0  0  0  0  0  0
   -8.8429    7.8698   -9.0903 H   0  0  0  0  0  0  0  0  0  0  0  0
   -9.2431    3.9934   -7.2833 H   0  0  0  0  0  0  0  0  0  0  0  0
   -8.2294    2.4653  -12.1760 H   0  0  0  0  0  0  0  0  0  0  0  0
   -9.8079    2.8665  -12.8829 H   0  0  0  0  0  0  0  0  0  0  0  0
   -9.2539    6.6135  -14.4678 H   0  0  0  0  0  0  0  0  0  0  0  0
   -7.5008    6.3533  -14.3166 H   0  0  0  0  0  0  0  0  0  0  0  0
   -7.0630    3.4622  -14.0314 H   0  0  0  0  0  0  0  0  0  0  0  0
   -8.3961    2.5788  -14.7797 H   0  0  0  0  0  0  0  0  0  0  0  0
   -9.0358    3.4955  -18.4475 H   0  0  0  0  0  0  0  0  0  0  0  0
   -9.8526    4.8770  -19.2132 H   0  0  0  0  0  0  0  0  0  0  0  0
   -8.3194    4.2528  -19.8592 H   0  0  0  0  0  0  0  0  0  0  0  0
   -7.3180    7.4406  -18.0747 H   0  0  0  0  0  0  0  0  0  0  0  0
   -8.8353    7.2459  -18.9341 H   0  0  0  0  0  0  0  0  0  0  0  0
   -7.3304    6.6432  -19.6633 H   0  0  0  0  0  0  0  0  0  0  0  0
   -6.1992    5.4765  -16.9697 H   0  0  0  0  0  0  0  0  0  0  0  0
   -6.8984    3.8475  -17.0909 H   0  0  0  0  0  0  0  0  0  0  0  0
   -6.1272    4.6154  -18.4973 H   0  0  0  0  0  0  0  0  0  0  0  0
   -8.5890    7.7026  -11.8884 H   0  0  0  0  0  0  0  0  0  0  0  0
  1  2  1  0  0  0  0
  1  3  2  0  0  0  0
  2  6  2  0  0  0  0
  3  7  1  0  0  0  0
  4  5  1  0  0  0  0
  4  6  1  0  0  0  0
  4  7  2  0  0  0  0
  5  8  2  0  0  0  0
  5 10  1  0  0  0  0
  6 17  1  0  0  0  0
  7 21  1  0  0  0  0
  8 11  1  0  0  0  0
  8 17  1  0  0  0  0
  9 18  1  0  0  0  0
  9 19  2  0  0  0  0
  9 20  1  0  0  0  0
 10 12  1  0  0  0  0
 11 18  1  0  0  0  0
 12 18  1  0  0  0  0
 13 16  1  0  0  0  0
 14 16  1  0  0  0  0
 15 16  1  0  0  0  0
 16 20  1  0  0  0  0
  1 22  1  0  0  0  0
  2 23  1  0  0  0  0
  3 24  1  0  0  0  0
 10 25  1  0  0  0  0
 10 26  1  0  0  0  0
 11 27  1  0  0  0  0
 11 28  1  0  0  0  0
 12 29  1  0  0  0  0
 12 30  1  0  0  0  0
 13 31  1  0  0  0  0
 13 32  1  0  0  0  0
 13 33  1  0  0  0  0
 14 34  1  0  0  0  0
 14 35  1  0  0  0  0
 14 36  1  0  0  0  0
 15 37  1  0  0  0  0
 15 38  1  0  0  0  0
 15 39  1  0  0  0  0
 17 40  1  0  0  0  0
M  END
> <id>
EN300-28298602

> <smiles>
CC(C)(C)OC(=O)N1CCC2=C(C1)NC=3C=CC=C(Br)C23

> <MDLNUMBER>
MFCD32206957

> <IUPAC Name>
tert-butyl 5-bromo-1H,2H,3H,4H,9H-pyrido[3,4-b]indole-2-carboxylate

> <CAS>
2251731-93-6

> <URL>
https://www.enaminestore.com/catalog/EN300-28298602

> <ROCS_ShapeQuery>
_x0404_0B

> <ROCS_TanimotoCombo>
0.380 

> <ROCS_ShapeTanimoto>
0.343 

> <ROCS_ColorTanimoto>
0.036 

> <ROCS_RefTversky>
0.303 

> <ROCS_RefColorTversky>
0.040 

> <ROCS_RefTverskyCombo>
0.344 

> <ROCS_FitTversky>
1.618 

> <ROCS_FitColorTversky>
0.278 

> <ROCS_FitTverskyCombo>
1.896 

> <ROCS_ColorScore>
-2.909

> <ROCS_Overlap>
2023.672

> <ROCS_Rank>
274                 

$$$$
untitled-dbase-23579_53
  -OEChem-08212314543D

 54 57  0     1  0  0  0  0  0999 V2000
   -8.0116    2.3658  -18.0788 C   0  0  0  0  0  0  0  0  0  0  0  0
   -7.6077    1.1764  -17.4710 C   0  0  0  0  0  0  0  0  0  0  0  0
   -8.2299    3.5095  -17.3092 C   0  0  0  0  0  0  0  0  0  0  0  0
   -7.4092    1.1271  -16.0914 C   0  0  0  0  0  0  0  0  0  0  0  0
   -8.0490    3.4606  -15.9234 C   0  0  0  0  0  0  0  0  0  0  0  0
   -7.6076    2.2736  -15.3199 C   0  0  0  0  0  0  0  0  0  0  0  0
   -6.9923    2.5201  -11.2001 C   0  0  0  0  0  0  0  0  0  0  0  0
   -6.0745    2.9232  -12.0919 C   0  0  0  0  0  0  0  0  0  0  0  0
   -8.2762    4.6995  -15.1487 C   0  0  0  0  0  0  0  0  0  0  0  0
   -8.0451    5.1270   -9.5074 C   0  0  0  0  0  0  0  0  0  0  0  0
   -6.9191    2.7767   -9.7257 C   0  0  0  0  0  0  0  0  0  0  0  0
   -6.1324    2.6893  -13.5780 C   0  0  0  0  0  0  0  0  0  0  0  0
  -10.1953    7.9047  -12.6137 C   0  0  0  0  0  0  0  0  0  0  0  0
  -10.2702    7.7453  -11.0975 C   0  0  0  0  0  0  0  0  0  0  0  0
  -10.2253    6.6013  -13.4081 C   0  0  0  0  0  0  0  0  0  0  0  0
   -8.9928    7.1810  -10.4766 C   0  0  0  0  0  0  0  0  0  0  0  0
   -9.4538    4.9765  -11.6160 C   0  0  0  0  0  0  0  0  0  0  0  0
   -9.5609    2.8761   -9.2978 C   0  0  0  0  0  0  0  0  0  0  0  0
   -8.3423    3.2932   -7.6768 C   0  0  0  0  0  0  0  0  0  0  0  0
   -9.1457    5.5972  -12.9893 C   0  0  1  0  0  0  0  0  0  0  0  0
   -8.1536    3.5708   -9.2224 C   0  0  0  0  0  0  0  0  0  0  0  0
   -9.0228    4.5385  -13.9926 N   0  0  0  0  0  0  0  0  0  0  0  0
   -9.2785    2.2102   -8.0161 N   0  0  0  0  0  0  0  0  0  0  0  0
   -8.8577    5.7199  -10.5022 N   0  0  0  0  0  0  0  0  0  0  0  0
   -7.7908    5.7517  -15.5526 O   0  0  0  0  0  0  0  0  0  0  0  0
   -7.2842    5.8257   -8.8129 O   0  0  0  0  0  0  0  0  0  0  0  0
   -7.4123    2.1736  -13.9678 O   0  0  0  0  0  0  0  0  0  0  0  0
   -8.1661    2.3980  -19.1546 H   0  0  0  0  0  0  0  0  0  0  0  0
   -7.4571    0.2858  -18.0742 H   0  0  0  0  0  0  0  0  0  0  0  0
   -8.5338    4.4198  -17.8108 H   0  0  0  0  0  0  0  0  0  0  0  0
   -7.1195    0.1828  -15.6505 H   0  0  0  0  0  0  0  0  0  0  0  0
   -7.8368    1.9096  -11.5499 H   0  0  0  0  0  0  0  0  0  0  0  0
   -5.1595    3.4160  -11.7217 H   0  0  0  0  0  0  0  0  0  0  0  0
   -6.8250    1.8255   -9.1768 H   0  0  0  0  0  0  0  0  0  0  0  0
   -5.9815    3.3193   -9.5103 H   0  0  0  0  0  0  0  0  0  0  0  0
   -5.8968    3.6411  -14.1074 H   0  0  0  0  0  0  0  0  0  0  0  0
   -5.3481    1.9557  -13.8633 H   0  0  0  0  0  0  0  0  0  0  0  0
  -10.9761    8.6044  -12.9781 H   0  0  0  0  0  0  0  0  0  0  0  0
   -9.2351    8.4080  -12.8507 H   0  0  0  0  0  0  0  0  0  0  0  0
  -10.5289    8.6965  -10.6235 H   0  0  0  0  0  0  0  0  0  0  0  0
  -11.0853    7.0549  -10.8579 H   0  0  0  0  0  0  0  0  0  0  0  0
  -11.2083    6.1483  -13.3045 H   0  0  0  0  0  0  0  0  0  0  0  0
  -10.0995    6.8285  -14.4648 H   0  0  0  0  0  0  0  0  0  0  0  0
   -8.1255    7.5936  -11.0009 H   0  0  0  0  0  0  0  0  0  0  0  0
   -8.9409    7.5309   -9.4495 H   0  0  0  0  0  0  0  0  0  0  0  0
  -10.5337    4.9431  -11.4867 H   0  0  0  0  0  0  0  0  0  0  0  0
   -9.1014    3.9484  -11.5733 H   0  0  0  0  0  0  0  0  0  0  0  0
  -10.4097    3.5679   -9.2488 H   0  0  0  0  0  0  0  0  0  0  0  0
   -9.7171    2.1904  -10.1345 H   0  0  0  0  0  0  0  0  0  0  0  0
   -7.4540    2.9711   -7.1272 H   0  0  0  0  0  0  0  0  0  0  0  0
   -8.8126    4.1126   -7.1204 H   0  0  0  0  0  0  0  0  0  0  0  0
   -8.2279    6.0997  -12.9185 H   0  0  0  0  0  0  0  0  0  0  0  0
   -9.5404    3.6715  -13.8400 H   0  0  0  0  0  0  0  0  0  0  0  0
  -10.0778    2.1212   -7.3927 H   0  0  0  0  0  0  0  0  0  0  0  0
  1  2  2  0  0  0  0
  1  3  1  0  0  0  0
  2  4  1  0  0  0  0
  3  5  2  0  0  0  0
  4  6  2  0  0  0  0
  5  6  1  0  0  0  0
  5  9  1  0  0  0  0
  6 27  1  0  0  0  0
  7  8  2  3  0  0  0
  7 11  1  0  0  0  0
  8 12  1  0  0  0  0
  9 22  1  0  0  0  0
  9 25  2  0  0  0  0
 10 21  1  0  0  0  0
 10 24  1  0  0  0  0
 10 26  2  0  0  0  0
 11 21  1  0  0  0  0
 12 27  1  0  0  0  0
 13 14  1  0  0  0  0
 13 15  1  0  0  0  0
 14 16  1  0  0  0  0
 15 20  1  1  0  0  0
 16 24  1  0  0  0  0
 17 20  1  0  0  0  0
 17 24  1  0  0  0  0
 18 21  1  0  0  0  0
 18 23  1  0  0  0  0
 19 21  1  0  0  0  0
 19 23  1  0  0  0  0
 20 22  1  0  0  0  0
  1 28  1  0  0  0  0
  2 29  1  0  0  0  0
  3 30  1  0  0  0  0
  4 31  1  0  0  0  0
  7 32  1  0  0  0  0
  8 33  1  0  0  0  0
 11 34  1  0  0  0  0
 11 35  1  0  0  0  0
 12 36  1  0  0  0  0
 12 37  1  0  0  0  0
 13 38  1  0  0  0  0
 13 39  1  0  0  0  0
 14 40  1  0  0  0  0
 14 41  1  0  0  0  0
 15 42  1  0  0  0  0
 15 43  1  0  0  0  0
 16 44  1  0  0  0  0
 16 45  1  0  0  0  0
 17 46  1  0  0  0  0
 17 47  1  0  0  0  0
 18 48  1  0  0  0  0
 18 49  1  0  0  0  0
 19 50  1  0  0  0  0
 19 51  1  0  0  0  0
 20 52  1  0  0  0  0
 22 53  1  0  0  0  0
 23 54  1  0  0  0  0
M  END
> <id>
EN300-6481322

> <smiles>
O=C1N[C@H]2CCCCN(C2)C(=O)C3(CNC3)CC=CCOC=4C=CC=CC14

> <IUPAC Name>
(1'S)-10'-oxa-2',17'-diazaspiro[azetidine-3,15'-tricyclo[15.4.1.0,4,9]docosane]-4'(9'),5',7',12'-tetraene-3',16'-dione

> <CAS>
2648862-22-8

> <URL>
https://www.enaminestore.com/catalog/EN300-6481322

> <ROCS_ShapeQuery>
_x0404_0B

> <ROCS_TanimotoCombo>
0.380 

> <ROCS_ShapeTanimoto>
0.267 

> <ROCS_ColorTanimoto>
0.113 

> <ROCS_RefTversky>
0.258 

> <ROCS_RefColorTversky>
0.119 

> <ROCS_RefTverskyCombo>
0.376 

> <ROCS_FitTversky>
1.152 

> <ROCS_FitColorTversky>
0.696 

> <ROCS_FitTverskyCombo>
1.848 

> <ROCS_ColorScore>
-8.580

> <ROCS_Overlap>
1721.917

> <ROCS_Rank>
275                 

$$$$
untitled-dbase-51861_53
  -OEChem-08212314543D

 54 57  0     1  0  0  0  0  0999 V2000
   -8.0116    2.3658  -18.0788 C   0  0  0  0  0  0  0  0  0  0  0  0
   -7.6077    1.1764  -17.4710 C   0  0  0  0  0  0  0  0  0  0  0  0
   -8.2299    3.5095  -17.3092 C   0  0  0  0  0  0  0  0  0  0  0  0
   -7.4092    1.1271  -16.0914 C   0  0  0  0  0  0  0  0  0  0  0  0
   -8.0490    3.4606  -15.9234 C   0  0  0  0  0  0  0  0  0  0  0  0
   -7.6076    2.2736  -15.3199 C   0  0  0  0  0  0  0  0  0  0  0  0
   -6.9923    2.5201  -11.2001 C   0  0  0  0  0  0  0  0  0  0  0  0
   -6.0745    2.9232  -12.0919 C   0  0  0  0  0  0  0  0  0  0  0  0
   -8.2762    4.6995  -15.1487 C   0  0  0  0  0  0  0  0  0  0  0  0
   -8.0451    5.1270   -9.5074 C   0  0  0  0  0  0  0  0  0  0  0  0
   -6.9191    2.7767   -9.7257 C   0  0  0  0  0  0  0  0  0  0  0  0
   -6.1324    2.6893  -13.5780 C   0  0  0  0  0  0  0  0  0  0  0  0
  -10.1953    7.9047  -12.6137 C   0  0  0  0  0  0  0  0  0  0  0  0
  -10.2702    7.7453  -11.0975 C   0  0  0  0  0  0  0  0  0  0  0  0
  -10.2253    6.6013  -13.4081 C   0  0  0  0  0  0  0  0  0  0  0  0
   -8.9928    7.1810  -10.4766 C   0  0  0  0  0  0  0  0  0  0  0  0
   -9.4538    4.9765  -11.6160 C   0  0  0  0  0  0  0  0  0  0  0  0
   -9.5609    2.8761   -9.2978 C   0  0  0  0  0  0  0  0  0  0  0  0
   -8.3423    3.2932   -7.6768 C   0  0  0  0  0  0  0  0  0  0  0  0
   -9.1457    5.5972  -12.9893 C   0  0  1  0  0  0  0  0  0  0  0  0
   -8.1536    3.5708   -9.2224 C   0  0  0  0  0  0  0  0  0  0  0  0
   -9.0228    4.5385  -13.9926 N   0  0  0  0  0  0  0  0  0  0  0  0
   -9.2785    2.2102   -8.0161 N   0  0  0  0  0  0  0  0  0  0  0  0
   -8.8577    5.7199  -10.5022 N   0  0  0  0  0  0  0  0  0  0  0  0
   -7.7908    5.7517  -15.5526 O   0  0  0  0  0  0  0  0  0  0  0  0
   -7.2842    5.8257   -8.8129 O   0  0  0  0  0  0  0  0  0  0  0  0
   -7.4123    2.1736  -13.9678 O   0  0  0  0  0  0  0  0  0  0  0  0
   -8.1661    2.3980  -19.1546 H   0  0  0  0  0  0  0  0  0  0  0  0
   -7.4571    0.2858  -18.0742 H   0  0  0  0  0  0  0  0  0  0  0  0
   -8.5338    4.4198  -17.8108 H   0  0  0  0  0  0  0  0  0  0  0  0
   -7.1195    0.1828  -15.6505 H   0  0  0  0  0  0  0  0  0  0  0  0
   -7.8368    1.9096  -11.5499 H   0  0  0  0  0  0  0  0  0  0  0  0
   -5.1595    3.4160  -11.7217 H   0  0  0  0  0  0  0  0  0  0  0  0
   -6.8250    1.8255   -9.1768 H   0  0  0  0  0  0  0  0  0  0  0  0
   -5.9815    3.3193   -9.5103 H   0  0  0  0  0  0  0  0  0  0  0  0
   -5.8968    3.6411  -14.1074 H   0  0  0  0  0  0  0  0  0  0  0  0
   -5.3481    1.9557  -13.8633 H   0  0  0  0  0  0  0  0  0  0  0  0
  -10.9761    8.6044  -12.9781 H   0  0  0  0  0  0  0  0  0  0  0  0
   -9.2351    8.4080  -12.8507 H   0  0  0  0  0  0  0  0  0  0  0  0
  -10.5289    8.6965  -10.6235 H   0  0  0  0  0  0  0  0  0  0  0  0
  -11.0853    7.0549  -10.8579 H   0  0  0  0  0  0  0  0  0  0  0  0
  -11.2083    6.1483  -13.3045 H   0  0  0  0  0  0  0  0  0  0  0  0
  -10.0995    6.8285  -14.4648 H   0  0  0  0  0  0  0  0  0  0  0  0
   -8.1255    7.5936  -11.0009 H   0  0  0  0  0  0  0  0  0  0  0  0
   -8.9409    7.5309   -9.4495 H   0  0  0  0  0  0  0  0  0  0  0  0
  -10.5337    4.9431  -11.4867 H   0  0  0  0  0  0  0  0  0  0  0  0
   -9.1014    3.9484  -11.5733 H   0  0  0  0  0  0  0  0  0  0  0  0
  -10.4097    3.5679   -9.2488 H   0  0  0  0  0  0  0  0  0  0  0  0
   -9.7171    2.1904  -10.1345 H   0  0  0  0  0  0  0  0  0  0  0  0
   -7.4540    2.9711   -7.1272 H   0  0  0  0  0  0  0  0  0  0  0  0
   -8.8126    4.1126   -7.1204 H   0  0  0  0  0  0  0  0  0  0  0  0
   -8.2279    6.0997  -12.9185 H   0  0  0  0  0  0  0  0  0  0  0  0
   -9.5404    3.6715  -13.8400 H   0  0  0  0  0  0  0  0  0  0  0  0
  -10.0778    2.1212   -7.3927 H   0  0  0  0  0  0  0  0  0  0  0  0
  1  2  2  0  0  0  0
  1  3  1  0  0  0  0
  2  4  1  0  0  0  0
  3  5  2  0  0  0  0
  4  6  2  0  0  0  0
  5  6  1  0  0  0  0
  5  9  1  0  0  0  0
  6 27  1  0  0  0  0
  7  8  2  3  0  0  0
  7 11  1  0  0  0  0
  8 12  1  0  0  0  0
  9 22  1  0  0  0  0
  9 25  2  0  0  0  0
 10 21  1  0  0  0  0
 10 24  1  0  0  0  0
 10 26  2  0  0  0  0
 11 21  1  0  0  0  0
 12 27  1  0  0  0  0
 13 14  1  0  0  0  0
 13 15  1  0  0  0  0
 14 16  1  0  0  0  0
 15 20  1  1  0  0  0
 16 24  1  0  0  0  0
 17 20  1  0  0  0  0
 17 24  1  0  0  0  0
 18 21  1  0  0  0  0
 18 23  1  0  0  0  0
 19 21  1  0  0  0  0
 19 23  1  0  0  0  0
 20 22  1  0  0  0  0
  1 28  1  0  0  0  0
  2 29  1  0  0  0  0
  3 30  1  0  0  0  0
  4 31  1  0  0  0  0
  7 32  1  0  0  0  0
  8 33  1  0  0  0  0
 11 34  1  0  0  0  0
 11 35  1  0  0  0  0
 12 36  1  0  0  0  0
 12 37  1  0  0  0  0
 13 38  1  0  0  0  0
 13 39  1  0  0  0  0
 14 40  1  0  0  0  0
 14 41  1  0  0  0  0
 15 42  1  0  0  0  0
 15 43  1  0  0  0  0
 16 44  1  0  0  0  0
 16 45  1  0  0  0  0
 17 46  1  0  0  0  0
 17 47  1  0  0  0  0
 18 48  1  0  0  0  0
 18 49  1  0  0  0  0
 19 50  1  0  0  0  0
 19 51  1  0  0  0  0
 20 52  1  0  0  0  0
 22 53  1  0  0  0  0
 23 54  1  0  0  0  0
M  END
> <id>
EN300-6481321

> <smiles>
OC(=O)C(F)(F)F.O=C1N[C@H]2CCCCN(C2)C(=O)C3(CNC3)CC=CCOC=4C=CC=CC14

> <IUPAC Name>
(1'S)-10'-oxa-2',17'-diazaspiro[azetidine-3,15'-tricyclo[15.4.1.0,4,9]docosane]-4'(9'),5',7',12'-tetraene-3',16'-dione; trifluoroacetic acid

> <CAS>
2648862-26-2

> <URL>
https://www.enaminestore.com/catalog/EN300-6481321

> <Saltdate>
OC(=O)C(F)(F)F

> <ROCS_ShapeQuery>
_x0404_0B

> <ROCS_TanimotoCombo>
0.380 

> <ROCS_ShapeTanimoto>
0.267 

> <ROCS_ColorTanimoto>
0.113 

> <ROCS_RefTversky>
0.258 

> <ROCS_RefColorTversky>
0.119 

> <ROCS_RefTverskyCombo>
0.376 

> <ROCS_FitTversky>
1.152 

> <ROCS_FitColorTversky>
0.696 

> <ROCS_FitTverskyCombo>
1.848 

> <ROCS_ColorScore>
-8.580

> <ROCS_Overlap>
1721.917

> <ROCS_Rank>
276                 

$$$$
untitled-dbase-43728_49
  -OEChem-08212314543D

 43 46  0     1  0  0  0  0  0999 V2000
   -8.9080    6.0588  -14.7536 C   0  0  0  0  0  0  0  0  0  0  0  0
   -8.7848    2.5803  -11.2655 C   0  0  0  0  0  0  0  0  0  0  0  0
   -7.2298    5.9308  -11.5863 C   0  0  0  0  0  0  0  0  0  0  0  0
   -9.6258    3.7428  -11.7911 C   0  0  1  0  0  0  0  0  0  0  0  0
   -7.4611    3.3067  -11.5412 C   0  0  2  0  0  0  0  0  0  0  0  0
   -7.6724    4.6767  -10.8107 C   0  0  2  0  0  0  0  0  0  0  0  0
   -9.2284    4.8144  -10.7657 C   0  0  1  0  0  0  0  0  0  0  0  0
   -8.5101    6.3986  -12.3197 C   0  0  2  0  0  0  0  0  0  0  0  0
   -8.9811    4.0691  -13.1915 C   0  0  2  0  0  0  0  0  0  0  0  0
   -7.5610    3.4783  -13.0631 C   0  0  2  0  0  0  0  0  0  0  0  0
   -9.5727    6.2104  -11.2489 C   0  0  2  0  0  0  0  0  0  0  0  0
   -6.8741    5.1731  -16.1548 C   0  0  0  0  0  0  0  0  0  0  0  0
   -8.3862    3.4435  -17.1704 C   0  0  0  0  0  0  0  0  0  0  0  0
   -8.5681    5.8424  -17.8917 C   0  0  0  0  0  0  0  0  0  0  0  0
   -8.2640    4.9000  -16.7280 C   0  0  0  0  0  0  0  0  0  0  0  0
   -8.8547    5.5233  -13.4615 N   0  0  0  0  0  0  0  0  0  0  0  0
   -8.6844    7.2366  -15.0264 O   0  0  0  0  0  0  0  0  0  0  0  0
   -7.4679    2.2193  -13.7207 O   0  0  0  0  0  0  0  0  0  0  0  0
   -9.4138    7.1440  -10.1904 O   0  0  0  0  0  0  0  0  0  0  0  0
   -9.2334    5.1207  -15.6973 O   0  0  0  0  0  0  0  0  0  0  0  0
   -8.9429    2.3667  -10.2026 H   0  0  0  0  0  0  0  0  0  0  0  0
   -8.9237    1.6562  -11.8350 H   0  0  0  0  0  0  0  0  0  0  0  0
   -6.9269    6.7040  -10.8681 H   0  0  0  0  0  0  0  0  0  0  0  0
   -6.3723    5.7791  -12.2466 H   0  0  0  0  0  0  0  0  0  0  0  0
  -10.7026    3.5647  -11.8350 H   0  0  0  0  0  0  0  0  0  0  0  0
   -6.5776    2.7519  -11.2176 H   0  0  0  0  0  0  0  0  0  0  0  0
   -7.2458    4.6504   -9.8024 H   0  0  0  0  0  0  0  0  0  0  0  0
   -9.6183    4.6029   -9.7634 H   0  0  0  0  0  0  0  0  0  0  0  0
   -8.4095    7.4422  -12.6326 H   0  0  0  0  0  0  0  0  0  0  0  0
   -9.5448    3.5699  -13.9861 H   0  0  0  0  0  0  0  0  0  0  0  0
   -6.7730    4.1059  -13.4871 H   0  0  0  0  0  0  0  0  0  0  0  0
  -10.5965    6.2920  -11.6289 H   0  0  0  0  0  0  0  0  0  0  0  0
   -6.7824    6.2176  -15.8361 H   0  0  0  0  0  0  0  0  0  0  0  0
   -6.6575    4.5276  -15.2973 H   0  0  0  0  0  0  0  0  0  0  0  0
   -6.0997    5.0122  -16.9135 H   0  0  0  0  0  0  0  0  0  0  0  0
   -9.3818    3.2431  -17.5823 H   0  0  0  0  0  0  0  0  0  0  0  0
   -8.2624    2.7651  -16.3185 H   0  0  0  0  0  0  0  0  0  0  0  0
   -7.6392    3.1875  -17.9288 H   0  0  0  0  0  0  0  0  0  0  0  0
   -9.5650    5.6467  -18.3031 H   0  0  0  0  0  0  0  0  0  0  0  0
   -8.5213    6.8919  -17.5837 H   0  0  0  0  0  0  0  0  0  0  0  0
   -7.8590    5.6886  -18.7132 H   0  0  0  0  0  0  0  0  0  0  0  0
   -6.6060    1.8436  -13.4810 H   0  0  0  0  0  0  0  0  0  0  0  0
   -9.6448    8.0168  -10.5483 H   0  0  0  0  0  0  0  0  0  0  0  0
  1 16  1  0  0  0  0
  1 17  2  0  0  0  0
  1 20  1  0  0  0  0
  2  4  1  0  0  0  0
  2  5  1  0  0  0  0
  3  6  1  0  0  0  0
  3  8  1  0  0  0  0
  4  7  1  0  0  0  0
  4  9  1  0  0  0  0
  5  6  1  0  0  0  0
  5 10  1  0  0  0  0
  6  7  1  0  0  0  0
  7 11  1  0  0  0  0
  8 11  1  0  0  0  0
  8 16  1  0  0  0  0
  9 10  1  0  0  0  0
  9 16  1  0  0  0  0
 10 18  1  0  0  0  0
 11 19  1  0  0  0  0
 12 15  1  0  0  0  0
 13 15  1  0  0  0  0
 14 15  1  0  0  0  0
 15 20  1  0  0  0  0
  2 21  1  0  0  0  0
  2 22  1  0  0  0  0
  3 23  1  0  0  0  0
  3 24  1  0  0  0  0
  4 25  1  0  0  0  0
  5 26  1  0  0  0  0
  6 27  1  0  0  0  0
  7 28  1  0  0  0  0
  8 29  1  0  0  0  0
  9 30  1  0  0  0  0
 10 31  1  0  0  0  0
 11 32  1  0  0  0  0
 12 33  1  0  0  0  0
 12 34  1  0  0  0  0
 12 35  1  0  0  0  0
 13 36  1  0  0  0  0
 13 37  1  0  0  0  0
 13 38  1  0  0  0  0
 14 39  1  0  0  0  0
 14 40  1  0  0  0  0
 14 41  1  0  0  0  0
 18 42  1  0  0  0  0
 19 43  1  0  0  0  0
M  END
> <id>
EN300-28229091

> <smiles>
CC(C)(C)OC(=O)N1C2CC3C4CC(C3C2O)C1C4O

> <IUPAC Name>
tert-butyl 5,11-dihydroxy-7-azatetracyclo[6.2.1.0^{2,6}.0^{4,10}]undecane-7-carboxylate

> <CAS>
2639452-29-0

> <URL>
https://www.enaminestore.com/catalog/EN300-28229091

> <ROCS_ShapeQuery>
_x0404_0B

> <ROCS_TanimotoCombo>
0.379 

> <ROCS_ShapeTanimoto>
0.261 

> <ROCS_ColorTanimoto>
0.119 

> <ROCS_RefTversky>
0.245 

> <ROCS_RefColorTversky>
0.145 

> <ROCS_RefTverskyCombo>
0.390 

> <ROCS_FitTversky>
1.325 

> <ROCS_FitColorTversky>
0.393 

> <ROCS_FitTverskyCombo>
1.718 

> <ROCS_ColorScore>
-10.622

> <ROCS_Overlap>
1634.888

> <ROCS_Rank>
277                 

$$$$
untitled-dbase-47273_0
  -OEChem-08212314543D

 39 41  0     0  0  0  0  0  0999 V2000
   -9.2037    2.8926   -7.4145 C   0  0  0  0  0  0  0  0  0  0  0  0
   -8.5312    5.7356  -14.1705 C   0  0  0  0  0  0  0  0  0  0  0  0
   -9.1514    2.7990   -8.9522 C   0  0  0  0  0  0  0  0  0  0  0  0
   -7.7754    4.8434   -9.7516 C   0  0  0  0  0  0  0  0  0  0  0  0
   -9.9270    5.1014   -9.8523 C   0  0  0  0  0  0  0  0  0  0  0  0
   -8.5924    6.3924  -11.6846 C   0  0  0  0  0  0  0  0  0  0  0  0
   -8.8293    4.2709  -12.0580 C   0  0  0  0  0  0  0  0  0  0  0  0
   -9.0237    4.4609   -7.4326 C   0  0  0  0  0  0  0  0  0  0  0  0
   -8.9698    4.3136   -8.9574 C   0  0  0  0  0  0  0  0  0  0  0  0
   -8.7797    5.1630  -10.8443 C   0  0  0  0  0  0  0  0  0  0  0  0
   -7.1724    5.3346  -16.6491 C   0  0  0  0  0  0  0  0  0  0  0  0
   -8.6604    3.3303  -16.9284 C   0  0  0  0  0  0  0  0  0  0  0  0
   -9.6681    5.6269  -16.7938 C   0  0  0  0  0  0  0  0  0  0  0  0
   -8.5325    4.7233  -16.3156 C   0  0  0  0  0  0  0  0  0  0  0  0
   -8.6377    5.4922  -12.8292 N   0  0  0  0  0  0  0  0  0  0  0  0
   -9.3348    2.0631   -6.5386 O   0  0  0  0  0  0  0  0  0  0  0  0
   -8.3665    6.8499  -14.6590 O   0  0  0  0  0  0  0  0  0  0  0  0
   -8.6315    4.5800  -14.8946 O   0  0  0  0  0  0  0  0  0  0  0  0
   -7.5115    4.9185   -6.5636 Cl  0  0  0  0  0  0  0  0  0  0  0  0
  -10.4679    5.2555   -6.7016 Cl  0  0  0  0  0  0  0  0  0  0  0  0
   -8.3064    2.2083   -9.3162 H   0  0  0  0  0  0  0  0  0  0  0  0
  -10.0798    2.4209   -9.3891 H   0  0  0  0  0  0  0  0  0  0  0  0
   -7.3031    5.7375   -9.3283 H   0  0  0  0  0  0  0  0  0  0  0  0
   -6.9903    4.1235   -9.9996 H   0  0  0  0  0  0  0  0  0  0  0  0
  -10.8333    4.5839  -10.1795 H   0  0  0  0  0  0  0  0  0  0  0  0
  -10.2123    6.0860   -9.4642 H   0  0  0  0  0  0  0  0  0  0  0  0
   -9.4143    7.1133  -11.6808 H   0  0  0  0  0  0  0  0  0  0  0  0
   -7.6323    6.9059  -11.5873 H   0  0  0  0  0  0  0  0  0  0  0  0
   -8.0063    3.5614  -12.1777 H   0  0  0  0  0  0  0  0  0  0  0  0
   -9.7852    3.7841  -12.2686 H   0  0  0  0  0  0  0  0  0  0  0  0
   -7.0767    6.3346  -16.2111 H   0  0  0  0  0  0  0  0  0  0  0  0
   -6.3496    4.7133  -16.2807 H   0  0  0  0  0  0  0  0  0  0  0  0
   -7.0544    5.4588  -17.7317 H   0  0  0  0  0  0  0  0  0  0  0  0
   -9.6348    2.8879  -16.6917 H   0  0  0  0  0  0  0  0  0  0  0  0
   -7.9049    2.6517  -16.5162 H   0  0  0  0  0  0  0  0  0  0  0  0
   -8.5465    3.3558  -18.0170 H   0  0  0  0  0  0  0  0  0  0  0  0
  -10.6438    5.1886  -16.5547 H   0  0  0  0  0  0  0  0  0  0  0  0
   -9.6136    6.6198  -16.3356 H   0  0  0  0  0  0  0  0  0  0  0  0
   -9.6404    5.7442  -17.8832 H   0  0  0  0  0  0  0  0  0  0  0  0
  1  3  1  0  0  0  0
  1  8  1  0  0  0  0
  1 16  2  0  0  0  0
  2 15  1  0  0  0  0
  2 17  2  0  0  0  0
  2 18  1  0  0  0  0
  3  9  1  0  0  0  0
  4  9  1  0  0  0  0
  4 10  1  0  0  0  0
  5  9  1  0  0  0  0
  5 10  1  0  0  0  0
  6 10  1  0  0  0  0
  6 15  1  0  0  0  0
  7 10  1  0  0  0  0
  7 15  1  0  0  0  0
  8  9  1  0  0  0  0
  8 19  1  0  0  0  0
  8 20  1  0  0  0  0
 11 14  1  0  0  0  0
 12 14  1  0  0  0  0
 13 14  1  0  0  0  0
 14 18  1  0  0  0  0
  3 21  1  0  0  0  0
  3 22  1  0  0  0  0
  4 23  1  0  0  0  0
  4 24  1  0  0  0  0
  5 25  1  0  0  0  0
  5 26  1  0  0  0  0
  6 27  1  0  0  0  0
  6 28  1  0  0  0  0
  7 29  1  0  0  0  0
  7 30  1  0  0  0  0
 11 31  1  0  0  0  0
 11 32  1  0  0  0  0
 11 33  1  0  0  0  0
 12 34  1  0  0  0  0
 12 35  1  0  0  0  0
 12 36  1  0  0  0  0
 13 37  1  0  0  0  0
 13 38  1  0  0  0  0
 13 39  1  0  0  0  0
M  END
> <id>
EN300-37432230

> <smiles>
CC(C)(C)OC(=O)N1CC2(C1)CC3(CC(=O)C3(Cl)Cl)C2

> <IUPAC Name>
tert-butyl 7,7-dichloro-8-oxo-2-azadispiro[3.1.3^{6}.1^{4}]decane-2-carboxylate

> <Purity>
80

> <URL>
https://www.enaminestore.com/catalog/EN300-37432230

> <ROCS_ShapeQuery>
_x0404_0B

> <ROCS_TanimotoCombo>
0.379 

> <ROCS_ShapeTanimoto>
0.310 

> <ROCS_ColorTanimoto>
0.069 

> <ROCS_RefTversky>
0.279 

> <ROCS_RefColorTversky>
0.073 

> <ROCS_RefTverskyCombo>
0.352 

> <ROCS_FitTversky>
1.575 

> <ROCS_FitColorTversky>
0.552 

> <ROCS_FitTverskyCombo>
2.127 

> <ROCS_ColorScore>
-5.265

> <ROCS_Overlap>
1859.429

> <ROCS_Rank>
278                 

$$$$
untitled-dbase-11723_12
  -OEChem-08212314543D

 35 36  0     0  0  0  0  0  0999 V2000
   -7.2504    2.0186  -11.8640 C   0  0  0  0  0  0  0  0  0  0  0  0
   -6.8564    0.9806  -11.4068 C   0  0  0  0  0  0  0  0  0  0  0  0
   -9.1337    6.5665  -12.2739 C   0  0  0  0  0  0  0  0  0  0  0  0
   -9.3635    6.7987  -10.9139 C   0  0  0  0  0  0  0  0  0  0  0  0
   -8.4956    4.6153  -10.3470 C   0  0  0  0  0  0  0  0  0  0  0  0
   -7.7197    3.5566  -13.7455 C   0  0  0  0  0  0  0  0  0  0  0  0
   -7.7186    3.2491  -12.4080 C   0  0  0  0  0  0  0  0  0  0  0  0
   -8.2548    4.3583  -11.7129 C   0  0  0  0  0  0  0  0  0  0  0  0
   -8.5756    5.3346  -12.6661 C   0  0  0  0  0  0  0  0  0  0  0  0
   -9.0497    5.8376   -9.9614 C   0  0  0  0  0  0  0  0  0  0  0  0
   -8.3977    5.4799  -15.1596 C   0  0  0  0  0  0  0  0  0  0  0  0
   -6.6324    5.1782  -17.3605 C   0  0  0  0  0  0  0  0  0  0  0  0
   -8.4646    3.8117  -18.4021 C   0  0  0  0  0  0  0  0  0  0  0  0
   -8.8621    6.2322  -17.8624 C   0  0  0  0  0  0  0  0  0  0  0  0
   -8.1415    4.9527  -17.4399 C   0  0  0  0  0  0  0  0  0  0  0  0
   -8.2397    4.8266  -13.9256 N   0  0  0  0  0  0  0  0  0  0  0  0
   -6.3843   -0.2621  -10.8598 N   0  0  0  0  0  0  0  0  0  0  0  0
   -8.3365    6.6948  -15.2523 O   0  0  0  0  0  0  0  0  0  0  0  0
   -8.6136    4.5707  -16.1443 O   0  0  0  0  0  0  0  0  0  0  0  0
   -9.2793    6.0836   -8.6647 F   0  0  0  0  0  0  0  0  0  0  0  0
   -9.3893    7.3368  -12.9930 H   0  0  0  0  0  0  0  0  0  0  0  0
   -9.7940    7.7460  -10.5997 H   0  0  0  0  0  0  0  0  0  0  0  0
   -8.2542    3.8733   -9.5909 H   0  0  0  0  0  0  0  0  0  0  0  0
   -7.3886    2.9653  -14.5899 H   0  0  0  0  0  0  0  0  0  0  0  0
   -6.3964    5.9964  -16.6708 H   0  0  0  0  0  0  0  0  0  0  0  0
   -6.1071    4.2780  -17.0248 H   0  0  0  0  0  0  0  0  0  0  0  0
   -6.2288    5.4706  -18.3367 H   0  0  0  0  0  0  0  0  0  0  0  0
   -9.5464    3.6464  -18.4622 H   0  0  0  0  0  0  0  0  0  0  0  0
   -8.0274    2.8698  -18.0514 H   0  0  0  0  0  0  0  0  0  0  0  0
   -8.0883    4.0144  -19.4101 H   0  0  0  0  0  0  0  0  0  0  0  0
   -9.9447    6.0707  -17.9194 H   0  0  0  0  0  0  0  0  0  0  0  0
   -8.6714    7.0523  -17.1626 H   0  0  0  0  0  0  0  0  0  0  0  0
   -8.5433    6.5467  -18.8627 H   0  0  0  0  0  0  0  0  0  0  0  0
   -6.8510   -0.6681  -10.0615 H   0  0  0  0  0  0  0  0  0  0  0  0
   -5.5874   -0.7226  -11.2760 H   0  0  0  0  0  0  0  0  0  0  0  0
  1  2  3  0  0  0  0
  1  7  1  0  0  0  0
  2 17  1  0  0  0  0
  3  4  1  0  0  0  0
  3  9  2  0  0  0  0
  4 10  2  0  0  0  0
  5  8  2  0  0  0  0
  5 10  1  0  0  0  0
  6  7  2  0  0  0  0
  6 16  1  0  0  0  0
  7  8  1  0  0  0  0
  8  9  1  0  0  0  0
  9 16  1  0  0  0  0
 10 20  1  0  0  0  0
 11 16  1  0  0  0  0
 11 18  2  0  0  0  0
 11 19  1  0  0  0  0
 12 15  1  0  0  0  0
 13 15  1  0  0  0  0
 14 15  1  0  0  0  0
 15 19  1  0  0  0  0
  3 21  1  0  0  0  0
  4 22  1  0  0  0  0
  5 23  1  0  0  0  0
  6 24  1  0  0  0  0
 12 25  1  0  0  0  0
 12 26  1  0  0  0  0
 12 27  1  0  0  0  0
 13 28  1  0  0  0  0
 13 29  1  0  0  0  0
 13 30  1  0  0  0  0
 14 31  1  0  0  0  0
 14 32  1  0  0  0  0
 14 33  1  0  0  0  0
 17 34  1  0  0  0  0
 17 35  1  0  0  0  0
M  END
> <id>
EN300-624595

> <smiles>
CC(C)(C)OC(=O)N1C=C(C#CN)C=2C=C(F)C=CC12

> <MDLNUMBER>
MFCD30752588

> <IUPAC Name>
tert-butyl 3-(2-aminoethynyl)-5-fluoro-1H-indole-1-carboxylate

> <CAS>
2137804-90-9

> <URL>
https://www.enaminestore.com/catalog/EN300-624595

> <ROCS_ShapeQuery>
_x0404_0B

> <ROCS_TanimotoCombo>
0.379 

> <ROCS_ShapeTanimoto>
0.294 

> <ROCS_ColorTanimoto>
0.085 

> <ROCS_RefTversky>
0.269 

> <ROCS_RefColorTversky>
0.088 

> <ROCS_RefTverskyCombo>
0.357 

> <ROCS_FitTversky>
1.482 

> <ROCS_FitColorTversky>
0.672 

> <ROCS_FitTverskyCombo>
2.154 

> <ROCS_ColorScore>
-6.381

> <ROCS_Overlap>
1791.180

> <ROCS_Rank>
279                 

$$$$
untitled-dbase-12690_115
  -OEChem-08212314543D

 40 41  0     0  0  0  0  0  0999 V2000
   -8.5042    4.1726   -7.5177 C   0  0  0  0  0  0  0  0  0  0  0  0
   -8.3604    5.4284   -7.9471 C   0  0  0  0  0  0  0  0  0  0  0  0
   -9.2923    3.2478   -8.3532 C   0  0  0  0  0  0  0  0  0  0  0  0
   -8.3827    5.7719  -14.3949 C   0  0  0  0  0  0  0  0  0  0  0  0
  -10.0037    3.8451   -9.5408 C   0  0  0  0  0  0  0  0  0  0  0  0
   -7.9144    4.5167  -10.8746 C   0  0  0  0  0  0  0  0  0  0  0  0
  -10.1181    5.7843  -11.1159 C   0  0  0  0  0  0  0  0  0  0  0  0
   -8.1208    4.3020  -12.3697 C   0  0  0  0  0  0  0  0  0  0  0  0
   -9.3350    6.4839  -12.2220 C   0  0  0  0  0  0  0  0  0  0  0  0
   -9.1946    5.0056  -10.1471 C   0  0  0  0  0  0  0  0  0  0  0  0
   -6.7943    5.5084  -16.7597 C   0  0  0  0  0  0  0  0  0  0  0  0
   -8.0940    3.3995  -17.1753 C   0  0  0  0  0  0  0  0  0  0  0  0
   -9.2844    5.6102  -17.1117 C   0  0  0  0  0  0  0  0  0  0  0  0
   -8.1259    4.7903  -16.5454 C   0  0  0  0  0  0  0  0  0  0  0  0
   -8.5931    5.5205  -13.0356 N   0  0  0  0  0  0  0  0  0  0  0  0
   -9.4104    2.0674   -8.0378 O   0  0  0  0  0  0  0  0  0  0  0  0
   -8.2623    6.8950  -14.8807 O   0  0  0  0  0  0  0  0  0  0  0  0
   -8.7939    5.9537   -9.1325 O   0  0  0  0  0  0  0  0  0  0  0  0
   -8.3316    4.6219  -15.1381 O   0  0  0  0  0  0  0  0  0  0  0  0
   -8.1102    3.8316   -6.5689 H   0  0  0  0  0  0  0  0  0  0  0  0
   -7.8637    6.1901   -7.3613 H   0  0  0  0  0  0  0  0  0  0  0  0
  -10.1785    3.0612  -10.2878 H   0  0  0  0  0  0  0  0  0  0  0  0
  -10.9787    4.1960   -9.1773 H   0  0  0  0  0  0  0  0  0  0  0  0
   -7.5695    3.5736  -10.4218 H   0  0  0  0  0  0  0  0  0  0  0  0
   -7.0960    5.2401  -10.7465 H   0  0  0  0  0  0  0  0  0  0  0  0
  -10.6791    6.5442  -10.5607 H   0  0  0  0  0  0  0  0  0  0  0  0
  -10.8460    5.1011  -11.5680 H   0  0  0  0  0  0  0  0  0  0  0  0
   -7.1795    4.0134  -12.8572 H   0  0  0  0  0  0  0  0  0  0  0  0
   -8.8281    3.4792  -12.5322 H   0  0  0  0  0  0  0  0  0  0  0  0
  -10.0214    7.0780  -12.8330 H   0  0  0  0  0  0  0  0  0  0  0  0
   -8.6005    7.1798  -11.7977 H   0  0  0  0  0  0  0  0  0  0  0  0
   -6.8132    6.5071  -16.3089 H   0  0  0  0  0  0  0  0  0  0  0  0
   -5.9594    4.9475  -16.3272 H   0  0  0  0  0  0  0  0  0  0  0  0
   -6.5965    5.6549  -17.8277 H   0  0  0  0  0  0  0  0  0  0  0  0
   -9.0474    2.8806  -17.0239 H   0  0  0  0  0  0  0  0  0  0  0  0
   -7.3251    2.7757  -16.7052 H   0  0  0  0  0  0  0  0  0  0  0  0
   -7.8921    3.4474  -18.2502 H   0  0  0  0  0  0  0  0  0  0  0  0
  -10.2397    5.0953  -16.9581 H   0  0  0  0  0  0  0  0  0  0  0  0
   -9.3454    6.5984  -16.6444 H   0  0  0  0  0  0  0  0  0  0  0  0
   -9.1752    5.7429  -18.1941 H   0  0  0  0  0  0  0  0  0  0  0  0
  1  2  2  0  0  0  0
  1  3  1  0  0  0  0
  2 18  1  0  0  0  0
  3  5  1  0  0  0  0
  3 16  2  0  0  0  0
  4 15  1  0  0  0  0
  4 17  2  0  0  0  0
  4 19  1  0  0  0  0
  5 10  1  0  0  0  0
  6  8  1  0  0  0  0
  6 10  1  0  0  0  0
  7  9  1  0  0  0  0
  7 10  1  0  0  0  0
  8 15  1  0  0  0  0
  9 15  1  0  0  0  0
 10 18  1  0  0  0  0
 11 14  1  0  0  0  0
 12 14  1  0  0  0  0
 13 14  1  0  0  0  0
 14 19  1  0  0  0  0
  1 20  1  0  0  0  0
  2 21  1  0  0  0  0
  5 22  1  0  0  0  0
  5 23  1  0  0  0  0
  6 24  1  0  0  0  0
  6 25  1  0  0  0  0
  7 26  1  0  0  0  0
  7 27  1  0  0  0  0
  8 28  1  0  0  0  0
  8 29  1  0  0  0  0
  9 30  1  0  0  0  0
  9 31  1  0  0  0  0
 11 32  1  0  0  0  0
 11 33  1  0  0  0  0
 11 34  1  0  0  0  0
 12 35  1  0  0  0  0
 12 36  1  0  0  0  0
 12 37  1  0  0  0  0
 13 38  1  0  0  0  0
 13 39  1  0  0  0  0
 13 40  1  0  0  0  0
M  END
> <id>
EN300-383795

> <smiles>
CC(C)(C)OC(=O)N1CCC2(CC1)CC(=O)C=CO2

> <MDLNUMBER>
MFCD24471469

> <IUPAC Name>
tert-butyl 4-oxo-1-oxa-9-azaspiro[5.5]undec-2-ene-9-carboxylate

> <CAS>
1346229-50-2

> <Purity>
95

> <URL>
https://www.enaminestore.com/catalog/EN300-383795

> <ROCS_ShapeQuery>
_x0404_0B

> <ROCS_TanimotoCombo>
0.379 

> <ROCS_ShapeTanimoto>
0.309 

> <ROCS_ColorTanimoto>
0.070 

> <ROCS_RefTversky>
0.276 

> <ROCS_RefColorTversky>
0.074 

> <ROCS_RefTverskyCombo>
0.351 

> <ROCS_FitTversky>
1.606 

> <ROCS_FitColorTversky>
0.566 

> <ROCS_FitTverskyCombo>
2.172 

> <ROCS_ColorScore>
-5.370

> <ROCS_Overlap>
1842.836

> <ROCS_Rank>
280                 

$$$$
untitled-dbase-44847_52
  -OEChem-08212314543D

 40 42  0     0  0  0  0  0  0999 V2000
   -9.0405    6.7760   -9.1890 C   0  0  0  0  0  0  0  0  0  0  0  0
   -9.1162    5.9492   -8.0647 C   0  0  0  0  0  0  0  0  0  0  0  0
   -8.8913    3.9610   -9.4399 C   0  0  0  0  0  0  0  0  0  0  0  0
   -8.8115    4.7729  -10.5891 C   0  0  0  0  0  0  0  0  0  0  0  0
   -8.6612    4.5184  -11.9796 C   0  0  0  0  0  0  0  0  0  0  0  0
   -8.8890    6.1619  -10.4376 C   0  0  0  0  0  0  0  0  0  0  0  0
   -9.0432    4.5632   -8.1859 C   0  0  0  0  0  0  0  0  0  0  0  0
   -8.6563    5.7350  -12.6286 C   0  0  0  0  0  0  0  0  0  0  0  0
   -9.0478    4.5161  -16.0942 C   0  0  0  0  0  0  0  0  0  0  0  0
   -8.5396    3.2402  -12.7313 C   0  0  0  0  0  0  0  0  0  0  0  0
   -8.5138    5.9605  -14.0893 C   0  0  0  0  0  0  0  0  0  0  0  0
   -7.9238    3.5018  -14.1166 C   0  0  0  0  0  0  0  0  0  0  0  0
   -8.7270    4.4551  -18.9373 C   0  0  0  0  0  0  0  0  0  0  0  0
   -7.9726    6.8409  -18.7180 C   0  0  0  0  0  0  0  0  0  0  0  0
   -6.6623    5.0079  -17.6084 C   0  0  0  0  0  0  0  0  0  0  0  0
   -8.0534    5.4813  -18.0273 C   0  0  0  0  0  0  0  0  0  0  0  0
   -8.7902    6.7216  -11.6943 N   0  0  0  0  0  0  0  0  0  0  0  0
   -8.5569    4.6552  -14.7905 N   0  0  0  0  0  0  0  0  0  0  0  0
   -9.5901    3.5013  -16.5274 O   0  0  0  0  0  0  0  0  0  0  0  0
   -8.8540    5.6420  -16.8506 O   0  0  0  0  0  0  0  0  0  0  0  0
   -9.1497    3.4799   -6.6383 Br  0  0  0  0  0  0  0  0  0  0  0  0
   -9.0972    7.8551   -9.0927 H   0  0  0  0  0  0  0  0  0  0  0  0
   -9.2338    6.4128   -7.0876 H   0  0  0  0  0  0  0  0  0  0  0  0
   -8.8349    2.8799   -9.5362 H   0  0  0  0  0  0  0  0  0  0  0  0
   -7.9019    2.5489  -12.1674 H   0  0  0  0  0  0  0  0  0  0  0  0
   -9.5212    2.7682  -12.8498 H   0  0  0  0  0  0  0  0  0  0  0  0
   -9.3480    6.5592  -14.4705 H   0  0  0  0  0  0  0  0  0  0  0  0
   -7.5783    6.4826  -14.3101 H   0  0  0  0  0  0  0  0  0  0  0  0
   -6.8439    3.6530  -14.0185 H   0  0  0  0  0  0  0  0  0  0  0  0
   -8.0738    2.6345  -14.7723 H   0  0  0  0  0  0  0  0  0  0  0  0
   -8.7869    3.4778  -18.4451 H   0  0  0  0  0  0  0  0  0  0  0  0
   -9.7388    4.7664  -19.2167 H   0  0  0  0  0  0  0  0  0  0  0  0
   -8.1457    4.3044  -19.8542 H   0  0  0  0  0  0  0  0  0  0  0  0
   -7.4900    7.5803  -18.0687 H   0  0  0  0  0  0  0  0  0  0  0  0
   -8.9745    7.2284  -18.9355 H   0  0  0  0  0  0  0  0  0  0  0  0
   -7.4114    6.7847  -19.6563 H   0  0  0  0  0  0  0  0  0  0  0  0
   -6.1789    5.7438  -16.9556 H   0  0  0  0  0  0  0  0  0  0  0  0
   -6.7045    4.0509  -17.0783 H   0  0  0  0  0  0  0  0  0  0  0  0
   -6.0101    4.8938  -18.4818 H   0  0  0  0  0  0  0  0  0  0  0  0
   -8.8126    7.7133  -11.8891 H   0  0  0  0  0  0  0  0  0  0  0  0
  1  2  1  0  0  0  0
  1  6  2  0  0  0  0
  2  7  2  0  0  0  0
  3  4  2  0  0  0  0
  3  7  1  0  0  0  0
  4  5  1  0  0  0  0
  4  6  1  0  0  0  0
  5  8  2  0  0  0  0
  5 10  1  0  0  0  0
  6 17  1  0  0  0  0
  7 21  1  0  0  0  0
  8 11  1  0  0  0  0
  8 17  1  0  0  0  0
  9 18  1  0  0  0  0
  9 19  2  0  0  0  0
  9 20  1  0  0  0  0
 10 12  1  0  0  0  0
 11 18  1  0  0  0  0
 12 18  1  0  0  0  0
 13 16  1  0  0  0  0
 14 16  1  0  0  0  0
 15 16  1  0  0  0  0
 16 20  1  0  0  0  0
  1 22  1  0  0  0  0
  2 23  1  0  0  0  0
  3 24  1  0  0  0  0
 10 25  1  0  0  0  0
 10 26  1  0  0  0  0
 11 27  1  0  0  0  0
 11 28  1  0  0  0  0
 12 29  1  0  0  0  0
 12 30  1  0  0  0  0
 13 31  1  0  0  0  0
 13 32  1  0  0  0  0
 13 33  1  0  0  0  0
 14 34  1  0  0  0  0
 14 35  1  0  0  0  0
 14 36  1  0  0  0  0
 15 37  1  0  0  0  0
 15 38  1  0  0  0  0
 15 39  1  0  0  0  0
 17 40  1  0  0  0  0
M  END
> <id>
EN300-7384180

> <smiles>
CC(C)(C)OC(=O)N1CCC2=C(C1)NC=3C=CC(Br)=CC23

> <MDLNUMBER>
MFCD28952870

> <IUPAC Name>
tert-butyl 6-bromo-1H,2H,3H,4H,9H-pyrido[3,4-b]indole-2-carboxylate

> <CAS>
1173155-59-3

> <URL>
https://www.enaminestore.com/catalog/EN300-7384180

> <ROCS_ShapeQuery>
_x0404_0B

> <ROCS_TanimotoCombo>
0.379 

> <ROCS_ShapeTanimoto>
0.343 

> <ROCS_ColorTanimoto>
0.036 

> <ROCS_RefTversky>
0.303 

> <ROCS_RefColorTversky>
0.040 

> <ROCS_RefTverskyCombo>
0.343 

> <ROCS_FitTversky>
1.617 

> <ROCS_FitColorTversky>
0.278 

> <ROCS_FitTverskyCombo>
1.895 

> <ROCS_ColorScore>
-2.908

> <ROCS_Overlap>
2021.309

> <ROCS_Rank>
281                 

$$$$
untitled-dbase-10418_45
  -OEChem-08212314543D

 48 50  0     1  0  0  0  0  0999 V2000
   -9.1928    3.1411   -7.1459 C   0  0  0  0  0  0  0  0  0  0  0  0
   -9.1422    2.0924   -8.0360 C   0  0  0  0  0  0  0  0  0  0  0  0
   -9.0698    4.4022   -7.7989 C   0  0  0  0  0  0  0  0  0  0  0  0
   -8.9050    4.2691   -9.1676 C   0  0  0  0  0  0  0  0  0  0  0  0
   -8.8012    5.6918  -14.5254 C   0  0  0  0  0  0  0  0  0  0  0  0
   -9.0981    5.7469   -7.1467 C   0  0  0  0  0  0  0  0  0  0  0  0
   -7.5284    5.2874  -11.0496 C   0  0  0  0  0  0  0  0  0  0  0  0
  -10.0703    5.6145  -10.9786 C   0  0  0  0  0  0  0  0  0  0  0  0
   -7.6701    6.0625  -12.3565 C   0  0  0  0  0  0  0  0  0  0  0  0
   -9.9561    5.0343  -12.3875 C   0  0  0  0  0  0  0  0  0  0  0  0
   -9.4115    6.8490   -8.1771 C   0  0  1  0  0  0  0  0  0  0  0  0
   -8.7729    5.4451  -10.1346 C   0  0  0  0  0  0  0  0  0  0  0  0
   -9.1930    8.2298   -7.5609 C   0  0  0  0  0  0  0  0  0  0  0  0
   -8.1273    4.5703  -17.0693 C   0  0  0  0  0  0  0  0  0  0  0  0
  -10.4200    3.5455  -17.0182 C   0  0  0  0  0  0  0  0  0  0  0  0
  -10.1669    6.0443  -17.0213 C   0  0  0  0  0  0  0  0  0  0  0  0
   -9.5597    4.7206  -16.5588 C   0  0  0  0  0  0  0  0  0  0  0  0
   -8.5438    6.6996   -9.3569 N   0  0  0  0  0  0  0  0  0  0  0  0
   -8.8241    5.6017  -13.1296 N   0  0  0  0  0  0  0  0  0  0  0  0
   -8.1869    6.5525  -15.1529 O   0  0  0  0  0  0  0  0  0  0  0  0
   -9.5370    4.7049  -15.1270 O   0  0  0  0  0  0  0  0  0  0  0  0
   -8.9543    2.6281   -9.6483 S   0  0  0  0  0  0  0  0  0  0  0  0
   -9.3143    3.0079   -6.0786 H   0  0  0  0  0  0  0  0  0  0  0  0
   -9.2104    1.0366   -7.8152 H   0  0  0  0  0  0  0  0  0  0  0  0
   -9.8513    5.7616   -6.3495 H   0  0  0  0  0  0  0  0  0  0  0  0
   -8.1212    5.9253   -6.6786 H   0  0  0  0  0  0  0  0  0  0  0  0
   -7.3678    4.2339  -11.3022 H   0  0  0  0  0  0  0  0  0  0  0  0
   -6.6258    5.6197  -10.5250 H   0  0  0  0  0  0  0  0  0  0  0  0
  -10.3646    6.6711  -11.0442 H   0  0  0  0  0  0  0  0  0  0  0  0
  -10.9094    5.1136  -10.4721 H   0  0  0  0  0  0  0  0  0  0  0  0
   -7.8067    7.1364  -12.1748 H   0  0  0  0  0  0  0  0  0  0  0  0
   -6.7436    5.9624  -12.9328 H   0  0  0  0  0  0  0  0  0  0  0  0
   -9.8491    3.9435  -12.3184 H   0  0  0  0  0  0  0  0  0  0  0  0
  -10.8622    5.2120  -12.9817 H   0  0  0  0  0  0  0  0  0  0  0  0
  -10.4621    6.7798   -8.4779 H   0  0  0  0  0  0  0  0  0  0  0  0
   -8.1554    8.3337   -7.2495 H   0  0  0  0  0  0  0  0  0  0  0  0
   -9.8403    8.3527   -6.6947 H   0  0  0  0  0  0  0  0  0  0  0  0
   -9.4255    9.0005   -8.2934 H   0  0  0  0  0  0  0  0  0  0  0  0
   -7.5066    5.4119  -16.7417 H   0  0  0  0  0  0  0  0  0  0  0  0
   -7.6684    3.6413  -16.7157 H   0  0  0  0  0  0  0  0  0  0  0  0
   -8.1003    4.5745  -18.1650 H   0  0  0  0  0  0  0  0  0  0  0  0
  -11.4485    3.6491  -16.6541 H   0  0  0  0  0  0  0  0  0  0  0  0
  -10.0416    2.6015  -16.6096 H   0  0  0  0  0  0  0  0  0  0  0  0
  -10.4450    3.4655  -18.1098 H   0  0  0  0  0  0  0  0  0  0  0  0
  -11.1943    6.1523  -16.6552 H   0  0  0  0  0  0  0  0  0  0  0  0
   -9.5828    6.9008  -16.6693 H   0  0  0  0  0  0  0  0  0  0  0  0
  -10.2224    6.0864  -18.1151 H   0  0  0  0  0  0  0  0  0  0  0  0
   -8.6216    7.5201   -9.9543 H   0  0  0  0  0  0  0  0  0  0  0  0
  1  2  2  0  0  0  0
  1  3  1  0  0  0  0
  2 22  1  0  0  0  0
  3  4  2  0  0  0  0
  3  6  1  0  0  0  0
  4 12  1  0  0  0  0
  4 22  1  0  0  0  0
  5 19  1  0  0  0  0
  5 20  2  0  0  0  0
  5 21  1  0  0  0  0
  6 11  1  0  0  0  0
  7  9  1  0  0  0  0
  7 12  1  0  0  0  0
  8 10  1  0  0  0  0
  8 12  1  0  0  0  0
  9 19  1  0  0  0  0
 10 19  1  0  0  0  0
 11 13  1  0  0  0  0
 11 18  1  0  0  0  0
 12 18  1  0  0  0  0
 14 17  1  0  0  0  0
 15 17  1  0  0  0  0
 16 17  1  0  0  0  0
 17 21  1  0  0  0  0
  1 23  1  0  0  0  0
  2 24  1  0  0  0  0
  6 25  1  0  0  0  0
  6 26  1  0  0  0  0
  7 27  1  0  0  0  0
  7 28  1  0  0  0  0
  8 29  1  0  0  0  0
  8 30  1  0  0  0  0
  9 31  1  0  0  0  0
  9 32  1  0  0  0  0
 10 33  1  0  0  0  0
 10 34  1  0  0  0  0
 11 35  1  0  0  0  0
 13 36  1  0  0  0  0
 13 37  1  0  0  0  0
 13 38  1  0  0  0  0
 14 39  1  0  0  0  0
 14 40  1  0  0  0  0
 14 41  1  0  0  0  0
 15 42  1  0  0  0  0
 15 43  1  0  0  0  0
 15 44  1  0  0  0  0
 16 45  1  0  0  0  0
 16 46  1  0  0  0  0
 16 47  1  0  0  0  0
 18 48  1  0  0  0  0
M  END
> <id>
EN300-370353

> <smiles>
CC1CC=2C=CSC2C3(CCN(CC3)C(=O)OC(C)(C)C)N1

> <MDLNUMBER>
MFCD30728268

> <IUPAC Name>
tert-butyl 5'-methyl-5',6'-dihydro-4'H-spiro[piperidine-4,7'-thieno[2,3-c]pyridine]-1-carboxylate

> <CAS>
2137764-64-6

> <URL>
https://www.enaminestore.com/catalog/EN300-370353

> <ROCS_ShapeQuery>
_x0404_0B

> <ROCS_TanimotoCombo>
0.379 

> <ROCS_ShapeTanimoto>
0.304 

> <ROCS_ColorTanimoto>
0.075 

> <ROCS_RefTversky>
0.277 

> <ROCS_RefColorTversky>
0.080 

> <ROCS_RefTverskyCombo>
0.357 

> <ROCS_FitTversky>
1.462 

> <ROCS_FitColorTversky>
0.554 

> <ROCS_FitTverskyCombo>
2.016 

> <ROCS_ColorScore>
-5.785

> <ROCS_Overlap>
1848.720

> <ROCS_Rank>
282                 

$$$$
untitled-dbase-8516_74
  -OEChem-08212314543D

 37 39  0     0  0  0  0  0  0999 V2000
   -9.3943    4.4282  -17.4081 C   0  0  0  0  0  0  0  0  0  0  0  0
   -8.2454    4.5035  -18.1956 C   0  0  0  0  0  0  0  0  0  0  0  0
   -7.1779    5.8795  -16.5191 C   0  0  0  0  0  0  0  0  0  0  0  0
   -9.4285    5.0819  -16.1734 C   0  0  0  0  0  0  0  0  0  0  0  0
   -8.3186    5.7946  -15.7184 C   0  0  0  0  0  0  0  0  0  0  0  0
   -7.1408    5.2320  -17.7545 C   0  0  0  0  0  0  0  0  0  0  0  0
  -10.6507    5.0617  -15.3516 C   0  0  0  0  0  0  0  0  0  0  0  0
   -8.6543    5.1673   -9.2657 C   0  0  0  0  0  0  0  0  0  0  0  0
  -10.6398    5.9616  -14.1453 C   0  0  0  0  0  0  0  0  0  0  0  0
   -9.2015    7.1455  -12.4526 C   0  0  0  0  0  0  0  0  0  0  0  0
   -8.8179    4.6652  -12.9064 C   0  0  0  0  0  0  0  0  0  0  0  0
   -9.6086    6.6547  -11.0689 C   0  0  0  0  0  0  0  0  0  0  0  0
   -8.0026    4.8261  -11.6258 C   0  0  0  0  0  0  0  0  0  0  0  0
   -9.2340    6.0287  -13.5252 C   0  0  0  0  0  0  0  0  0  0  0  0
   -8.3695    3.7068   -9.0129 C   0  0  0  0  0  0  0  0  0  0  0  0
   -8.7601    5.5517  -10.6038 N   0  0  0  0  0  0  0  0  0  0  0  0
  -11.6308    4.4019  -15.6751 O   0  0  0  0  0  0  0  0  0  0  0  0
   -8.7828    5.9369   -8.3108 O   0  0  0  0  0  0  0  0  0  0  0  0
   -8.2643    6.4402  -14.5132 O   0  0  0  0  0  0  0  0  0  0  0  0
   -6.0259    5.3131  -18.5314 O   0  0  0  0  0  0  0  0  0  0  0  0
  -10.2422    3.8518  -17.7665 H   0  0  0  0  0  0  0  0  0  0  0  0
   -8.2143    3.9857  -19.1506 H   0  0  0  0  0  0  0  0  0  0  0  0
   -6.3204    6.4599  -16.1868 H   0  0  0  0  0  0  0  0  0  0  0  0
  -10.9767    6.9591  -14.4420 H   0  0  0  0  0  0  0  0  0  0  0  0
  -11.3611    5.5439  -13.4348 H   0  0  0  0  0  0  0  0  0  0  0  0
   -9.8720    7.9666  -12.7534 H   0  0  0  0  0  0  0  0  0  0  0  0
   -8.1959    7.5840  -12.3720 H   0  0  0  0  0  0  0  0  0  0  0  0
   -8.2132    4.1031  -13.6287 H   0  0  0  0  0  0  0  0  0  0  0  0
   -9.7114    4.0656  -12.6912 H   0  0  0  0  0  0  0  0  0  0  0  0
   -9.5244    7.4614  -10.3261 H   0  0  0  0  0  0  0  0  0  0  0  0
  -10.6633    6.3490  -11.0824 H   0  0  0  0  0  0  0  0  0  0  0  0
   -7.6871    3.8402  -11.2773 H   0  0  0  0  0  0  0  0  0  0  0  0
   -7.0890    5.4022  -11.8177 H   0  0  0  0  0  0  0  0  0  0  0  0
   -7.2957    3.5556   -8.9779 H   0  0  0  0  0  0  0  0  0  0  0  0
   -8.8013    3.1166   -9.8148 H   0  0  0  0  0  0  0  0  0  0  0  0
   -8.8161    3.4166   -8.0674 H   0  0  0  0  0  0  0  0  0  0  0  0
   -6.1532    4.8156  -19.3549 H   0  0  0  0  0  0  0  0  0  0  0  0
  1  2  1  0  0  0  0
  1  4  2  0  0  0  0
  2  6  2  0  0  0  0
  3  5  2  0  0  0  0
  3  6  1  0  0  0  0
  4  5  1  0  0  0  0
  4  7  1  0  0  0  0
  5 19  1  0  0  0  0
  6 20  1  0  0  0  0
  7  9  1  0  0  0  0
  7 17  2  0  0  0  0
  8 15  1  0  0  0  0
  8 16  1  0  0  0  0
  8 18  2  0  0  0  0
  9 14  1  0  0  0  0
 10 12  1  0  0  0  0
 10 14  1  0  0  0  0
 11 13  1  0  0  0  0
 11 14  1  0  0  0  0
 12 16  1  0  0  0  0
 13 16  1  0  0  0  0
 14 19  1  0  0  0  0
  1 21  1  0  0  0  0
  2 22  1  0  0  0  0
  3 23  1  0  0  0  0
  9 24  1  0  0  0  0
  9 25  1  0  0  0  0
 10 26  1  0  0  0  0
 10 27  1  0  0  0  0
 11 28  1  0  0  0  0
 11 29  1  0  0  0  0
 12 30  1  0  0  0  0
 12 31  1  0  0  0  0
 13 32  1  0  0  0  0
 13 33  1  0  0  0  0
 15 34  1  0  0  0  0
 15 35  1  0  0  0  0
 15 36  1  0  0  0  0
 20 37  1  0  0  0  0
M  END
> <id>
EN300-302757

> <smiles>
CC(=O)N1CCC2(CC1)CC(=O)C=3C=CC(O)=CC3O2

> <MDLNUMBER>
MFCD10040039

> <IUPAC Name>
1'-acetyl-7-hydroxy-3,4-dihydrospiro[1-benzopyran-2,4'-piperidine]-4-one

> <CAS>
924775-34-8

> <Purity>
95

> <URL>
https://www.enaminestore.com/catalog/EN300-302757

> <ROCS_ShapeQuery>
_x0404_0B

> <ROCS_TanimotoCombo>
0.379 

> <ROCS_ShapeTanimoto>
0.318 

> <ROCS_ColorTanimoto>
0.061 

> <ROCS_RefTversky>
0.285 

> <ROCS_RefColorTversky>
0.066 

> <ROCS_RefTverskyCombo>
0.352 

> <ROCS_FitTversky>
1.568 

> <ROCS_FitColorTversky>
0.421 

> <ROCS_FitTverskyCombo>
1.989 

> <ROCS_ColorScore>
-4.790

> <ROCS_Overlap>
1902.568

> <ROCS_Rank>
283                 

$$$$
untitled-dbase-29811_108
  -OEChem-08212314543D

 40 41  0     0  0  0  0  0  0999 V2000
   -8.3055    5.6417   -7.5891 C   0  0  0  0  0  0  0  0  0  0  0  0
   -8.4178    6.3795   -8.7658 C   0  0  0  0  0  0  0  0  0  0  0  0
   -8.5739    4.2816   -7.6051 C   0  0  0  0  0  0  0  0  0  0  0  0
   -8.8032    5.7783   -9.9837 C   0  0  0  0  0  0  0  0  0  0  0  0
   -9.0436    4.3909  -10.0055 C   0  0  0  0  0  0  0  0  0  0  0  0
   -8.9413    3.6650   -8.7999 C   0  0  0  0  0  0  0  0  0  0  0  0
   -8.4639    5.4208  -14.4427 C   0  0  0  0  0  0  0  0  0  0  0  0
   -8.8895    6.7024  -11.1776 C   0  0  0  0  0  0  0  0  0  0  0  0
   -9.4499    3.6172  -11.2384 C   0  0  0  0  0  0  0  0  0  0  0  0
   -9.6885    6.2289  -12.3866 C   0  0  0  0  0  0  0  0  0  0  0  0
   -8.6472    3.9382  -12.4952 C   0  0  0  0  0  0  0  0  0  0  0  0
   -6.4957    4.9398  -16.4640 C   0  0  0  0  0  0  0  0  0  0  0  0
   -7.9832    3.0553  -17.2023 C   0  0  0  0  0  0  0  0  0  0  0  0
   -8.8249    5.4201  -17.2880 C   0  0  0  0  0  0  0  0  0  0  0  0
   -7.9342    4.4300  -16.5390 C   0  0  0  0  0  0  0  0  0  0  0  0
   -8.9695    5.2042  -13.1501 N   0  0  0  0  0  0  0  0  0  0  0  0
   -8.0853    6.5157  -14.8573 O   0  0  0  0  0  0  0  0  0  0  0  0
   -9.2019    2.3219   -8.7558 O   0  0  0  0  0  0  0  0  0  0  0  0
   -8.4360    4.2837  -15.2055 O   0  0  0  0  0  0  0  0  0  0  0  0
   -8.0066    6.1302   -6.6677 H   0  0  0  0  0  0  0  0  0  0  0  0
   -8.1993    7.4477   -8.7310 H   0  0  0  0  0  0  0  0  0  0  0  0
   -8.4934    3.7044   -6.6888 H   0  0  0  0  0  0  0  0  0  0  0  0
   -9.3353    7.6720  -10.8483 H   0  0  0  0  0  0  0  0  0  0  0  0
   -7.8529    6.9937  -11.4801 H   0  0  0  0  0  0  0  0  0  0  0  0
   -9.4029    2.5374  -11.0105 H   0  0  0  0  0  0  0  0  0  0  0  0
  -10.5102    3.7974  -11.4793 H   0  0  0  0  0  0  0  0  0  0  0  0
  -10.6657    5.8199  -12.0951 H   0  0  0  0  0  0  0  0  0  0  0  0
   -9.8929    7.0888  -13.0358 H   0  0  0  0  0  0  0  0  0  0  0  0
   -7.5667    3.9518  -12.2253 H   0  0  0  0  0  0  0  0  0  0  0  0
   -8.7362    3.1252  -13.2546 H   0  0  0  0  0  0  0  0  0  0  0  0
   -6.4563    5.9264  -15.9884 H   0  0  0  0  0  0  0  0  0  0  0  0
   -5.8542    4.2556  -15.8992 H   0  0  0  0  0  0  0  0  0  0  0  0
   -6.0718    5.0630  -17.4671 H   0  0  0  0  0  0  0  0  0  0  0  0
   -9.0135    2.6856  -17.2582 H   0  0  0  0  0  0  0  0  0  0  0  0
   -7.4223    2.3186  -16.6158 H   0  0  0  0  0  0  0  0  0  0  0  0
   -7.5685    3.0804  -18.2152 H   0  0  0  0  0  0  0  0  0  0  0  0
   -9.8567    5.0546  -17.3419 H   0  0  0  0  0  0  0  0  0  0  0  0
   -8.8310    6.4025  -16.8048 H   0  0  0  0  0  0  0  0  0  0  0  0
   -8.4860    5.5432  -18.3230 H   0  0  0  0  0  0  0  0  0  0  0  0
   -9.0844    1.9901   -7.8532 H   0  0  0  0  0  0  0  0  0  0  0  0
  1  2  1  0  0  0  0
  1  3  2  0  0  0  0
  2  4  2  0  0  0  0
  3  6  1  0  0  0  0
  4  5  1  0  0  0  0
  4  8  1  0  0  0  0
  5  6  2  0  0  0  0
  5  9  1  0  0  0  0
  6 18  1  0  0  0  0
  7 16  1  0  0  0  0
  7 17  2  0  0  0  0
  7 19  1  0  0  0  0
  8 10  1  0  0  0  0
  9 11  1  0  0  0  0
 10 16  1  0  0  0  0
 11 16  1  0  0  0  0
 12 15  1  0  0  0  0
 13 15  1  0  0  0  0
 14 15  1  0  0  0  0
 15 19  1  0  0  0  0
  1 20  1  0  0  0  0
  2 21  1  0  0  0  0
  3 22  1  0  0  0  0
  8 23  1  0  0  0  0
  8 24  1  0  0  0  0
  9 25  1  0  0  0  0
  9 26  1  0  0  0  0
 10 27  1  0  0  0  0
 10 28  1  0  0  0  0
 11 29  1  0  0  0  0
 11 30  1  0  0  0  0
 12 31  1  0  0  0  0
 12 32  1  0  0  0  0
 12 33  1  0  0  0  0
 13 34  1  0  0  0  0
 13 35  1  0  0  0  0
 13 36  1  0  0  0  0
 14 37  1  0  0  0  0
 14 38  1  0  0  0  0
 14 39  1  0  0  0  0
 18 40  1  0  0  0  0
M  END
> <id>
EN300-12445471

> <smiles>
CC(C)(C)OC(=O)N1CCC=2C=CC=C(O)C2CC1

> <MDLNUMBER>
MFCD19687818

> <IUPAC Name>
tert-butyl 6-hydroxy-2,3,4,5-tetrahydro-1H-3-benzazepine-3-carboxylate

> <CAS>
873446-59-4

> <URL>
https://www.enaminestore.com/catalog/EN300-12445471

> <ROCS_ShapeQuery>
_x0404_0B

> <ROCS_TanimotoCombo>
0.379 

> <ROCS_ShapeTanimoto>
0.300 

> <ROCS_ColorTanimoto>
0.079 

> <ROCS_RefTversky>
0.270 

> <ROCS_RefColorTversky>
0.083 

> <ROCS_RefTverskyCombo>
0.353 

> <ROCS_FitTversky>
1.571 

> <ROCS_FitColorTversky>
0.630 

> <ROCS_FitTverskyCombo>
2.201 

> <ROCS_ColorScore>
-5.976

> <ROCS_Overlap>
1802.059

> <ROCS_Rank>
284                 

$$$$
untitled-dbase-23768_0
  -OEChem-08212314543D

 28 31  0     0  0  0  0  0  0999 V2000
   -9.2518    4.4756   -8.2779 C   0  0  0  0  0  0  0  0  0  0  0  0
   -7.9357    4.8119  -14.2562 C   0  0  0  0  0  0  0  0  0  0  0  0
   -8.6868    4.3401  -10.6245 C   0  0  0  0  0  0  0  0  0  0  0  0
   -8.5040    4.9467  -11.9105 C   0  0  0  0  0  0  0  0  0  0  0  0
   -9.0828    5.0950   -9.5217 C   0  0  0  0  0  0  0  0  0  0  0  0
   -8.1072    4.1919  -13.0131 C   0  0  0  0  0  0  0  0  0  0  0  0
   -8.4643    2.9763  -10.4738 C   0  0  0  0  0  0  0  0  0  0  0  0
   -8.7253    6.3108  -12.0608 C   0  0  0  0  0  0  0  0  0  0  0  0
   -9.0226    3.1013   -8.1454 C   0  0  0  0  0  0  0  0  0  0  0  0
   -8.1630    6.1865  -14.3883 C   0  0  0  0  0  0  0  0  0  0  0  0
   -8.6265    2.3421   -9.2463 C   0  0  0  0  0  0  0  0  0  0  0  0
   -8.5605    6.9454  -13.2876 C   0  0  0  0  0  0  0  0  0  0  0  0
   -9.3231    6.5518   -9.6713 C   0  0  0  0  0  0  0  0  0  0  0  0
   -7.8686    2.7348  -12.8639 C   0  0  0  0  0  0  0  0  0  0  0  0
   -9.6738    7.2499   -8.7290 O   0  0  0  0  0  0  0  0  0  0  0  0
   -7.5204    2.0362  -13.8068 O   0  0  0  0  0  0  0  0  0  0  0  0
   -9.1277    7.0861  -10.9493 O   0  0  0  0  0  0  0  0  0  0  0  0
   -8.0630    2.2008  -11.5855 O   0  0  0  0  0  0  0  0  0  0  0  0
   -9.1928    2.5135   -6.9272 O   0  0  0  0  0  0  0  0  0  0  0  0
   -7.9910    6.7754  -15.6056 O   0  0  0  0  0  0  0  0  0  0  0  0
   -8.4042    1.0059   -9.1203 O   0  0  0  0  0  0  0  0  0  0  0  0
   -8.7818    8.2817  -13.4134 O   0  0  0  0  0  0  0  0  0  0  0  0
   -9.5608    5.0490   -7.4075 H   0  0  0  0  0  0  0  0  0  0  0  0
   -7.6264    4.2385  -15.1266 H   0  0  0  0  0  0  0  0  0  0  0  0
   -9.0003    1.5648   -6.9841 H   0  0  0  0  0  0  0  0  0  0  0  0
   -8.1824    7.7243  -15.5480 H   0  0  0  0  0  0  0  0  0  0  0  0
   -8.1374    0.6267   -9.9731 H   0  0  0  0  0  0  0  0  0  0  0  0
   -9.0500    8.6606  -12.5608 H   0  0  0  0  0  0  0  0  0  0  0  0
  1  5  1  0  0  0  0
  1  9  2  0  0  0  0
  2  6  1  0  0  0  0
  2 10  2  0  0  0  0
  3  4  1  0  0  0  0
  3  5  2  0  0  0  0
  3  7  1  0  0  0  0
  4  6  2  0  0  0  0
  4  8  1  0  0  0  0
  5 13  1  0  0  0  0
  6 14  1  0  0  0  0
  7 11  2  0  0  0  0
  7 18  1  0  0  0  0
  8 12  2  0  0  0  0
  8 17  1  0  0  0  0
  9 11  1  0  0  0  0
  9 19  1  0  0  0  0
 10 12  1  0  0  0  0
 10 20  1  0  0  0  0
 11 21  1  0  0  0  0
 12 22  1  0  0  0  0
 13 15  2  0  0  0  0
 13 17  1  0  0  0  0
 14 16  2  0  0  0  0
 14 18  1  0  0  0  0
  1 23  1  0  0  0  0
  2 24  1  0  0  0  0
 19 25  1  0  0  0  0
 20 26  1  0  0  0  0
 21 27  1  0  0  0  0
 22 28  1  0  0  0  0
M  END
> <id>
EN300-6472707

> <smiles>
OC1=CC=2C(=O)OC=3C(O)=C(O)C=C4C(=O)OC(=C1O)C2C43

> <MDLNUMBER>
MFCD00006914

> <IUPAC Name>
6,7,13,14-tetrahydroxy-2,9-dioxatetracyclo[6.6.2.0^{4,16}.0^{11,15}]hexadeca-1(15),4(16),5,7,11,13-hexaene-3,10-dione

> <CAS>
476-66-4

> <URL>
https://www.enaminestore.com/catalog/EN300-6472707

> <ROCS_ShapeQuery>
_x0404_0B

> <ROCS_TanimotoCombo>
0.379 

> <ROCS_ShapeTanimoto>
0.281 

> <ROCS_ColorTanimoto>
0.098 

> <ROCS_RefTversky>
0.264 

> <ROCS_RefColorTversky>
0.110 

> <ROCS_RefTverskyCombo>
0.374 

> <ROCS_FitTversky>
1.296 

> <ROCS_FitColorTversky>
0.467 

> <ROCS_FitTverskyCombo>
1.763 

> <ROCS_ColorScore>
-7.982

> <ROCS_Overlap>
1763.014

> <ROCS_Rank>
285                 

$$$$
untitled-dbase-2654_0
  -OEChem-08212314543D

 28 31  0     0  0  0  0  0  0999 V2000
   -9.2518    4.4756   -8.2779 C   0  0  0  0  0  0  0  0  0  0  0  0
   -7.9357    4.8119  -14.2562 C   0  0  0  0  0  0  0  0  0  0  0  0
   -8.6868    4.3401  -10.6245 C   0  0  0  0  0  0  0  0  0  0  0  0
   -8.5040    4.9467  -11.9105 C   0  0  0  0  0  0  0  0  0  0  0  0
   -9.0828    5.0950   -9.5217 C   0  0  0  0  0  0  0  0  0  0  0  0
   -8.1072    4.1919  -13.0131 C   0  0  0  0  0  0  0  0  0  0  0  0
   -8.4643    2.9763  -10.4738 C   0  0  0  0  0  0  0  0  0  0  0  0
   -8.7253    6.3108  -12.0608 C   0  0  0  0  0  0  0  0  0  0  0  0
   -9.0226    3.1013   -8.1454 C   0  0  0  0  0  0  0  0  0  0  0  0
   -8.1630    6.1865  -14.3883 C   0  0  0  0  0  0  0  0  0  0  0  0
   -8.6265    2.3421   -9.2463 C   0  0  0  0  0  0  0  0  0  0  0  0
   -8.5605    6.9454  -13.2876 C   0  0  0  0  0  0  0  0  0  0  0  0
   -9.3231    6.5518   -9.6713 C   0  0  0  0  0  0  0  0  0  0  0  0
   -7.8686    2.7348  -12.8639 C   0  0  0  0  0  0  0  0  0  0  0  0
   -9.6738    7.2499   -8.7290 O   0  0  0  0  0  0  0  0  0  0  0  0
   -7.5204    2.0362  -13.8068 O   0  0  0  0  0  0  0  0  0  0  0  0
   -9.1277    7.0861  -10.9493 O   0  0  0  0  0  0  0  0  0  0  0  0
   -8.0630    2.2008  -11.5855 O   0  0  0  0  0  0  0  0  0  0  0  0
   -9.1928    2.5135   -6.9272 O   0  0  0  0  0  0  0  0  0  0  0  0
   -7.9910    6.7754  -15.6056 O   0  0  0  0  0  0  0  0  0  0  0  0
   -8.4042    1.0059   -9.1203 O   0  0  0  0  0  0  0  0  0  0  0  0
   -8.7818    8.2817  -13.4134 O   0  0  0  0  0  0  0  0  0  0  0  0
   -9.5608    5.0490   -7.4075 H   0  0  0  0  0  0  0  0  0  0  0  0
   -7.6264    4.2385  -15.1266 H   0  0  0  0  0  0  0  0  0  0  0  0
   -9.0003    1.5648   -6.9841 H   0  0  0  0  0  0  0  0  0  0  0  0
   -8.1824    7.7243  -15.5480 H   0  0  0  0  0  0  0  0  0  0  0  0
   -8.1374    0.6267   -9.9731 H   0  0  0  0  0  0  0  0  0  0  0  0
   -9.0500    8.6606  -12.5608 H   0  0  0  0  0  0  0  0  0  0  0  0
  1  5  1  0  0  0  0
  1  9  2  0  0  0  0
  2  6  1  0  0  0  0
  2 10  2  0  0  0  0
  3  4  1  0  0  0  0
  3  5  2  0  0  0  0
  3  7  1  0  0  0  0
  4  6  2  0  0  0  0
  4  8  1  0  0  0  0
  5 13  1  0  0  0  0
  6 14  1  0  0  0  0
  7 11  2  0  0  0  0
  7 18  1  0  0  0  0
  8 12  2  0  0  0  0
  8 17  1  0  0  0  0
  9 11  1  0  0  0  0
  9 19  1  0  0  0  0
 10 12  1  0  0  0  0
 10 20  1  0  0  0  0
 11 21  1  0  0  0  0
 12 22  1  0  0  0  0
 13 15  2  0  0  0  0
 13 17  1  0  0  0  0
 14 16  2  0  0  0  0
 14 18  1  0  0  0  0
  1 23  1  0  0  0  0
  2 24  1  0  0  0  0
 19 25  1  0  0  0  0
 20 26  1  0  0  0  0
 21 27  1  0  0  0  0
 22 28  1  0  0  0  0
M  END
> <id>
EN300-122628

> <smiles>
O.O.OC1=CC=2C(=O)OC=3C(O)=C(O)C=C4C(=O)OC(=C1O)C2C43

> <MDLNUMBER>
MFCD00149494

> <IUPAC Name>
6,7,13,14-tetrahydroxy-2,9-dioxatetracyclo[6.6.2.0^{4,16}.0^{11,15}]hexadeca-1(15),4(16),5,7,11,13-hexaene-3,10-dione dihydrate

> <CAS>
133039-73-3

> <Purity>
95

> <URL>
https://www.enaminestore.com/catalog/EN300-122628

> <Saltdate>
O

> <ROCS_ShapeQuery>
_x0404_0B

> <ROCS_TanimotoCombo>
0.379 

> <ROCS_ShapeTanimoto>
0.281 

> <ROCS_ColorTanimoto>
0.098 

> <ROCS_RefTversky>
0.264 

> <ROCS_RefColorTversky>
0.110 

> <ROCS_RefTverskyCombo>
0.374 

> <ROCS_FitTversky>
1.296 

> <ROCS_FitColorTversky>
0.467 

> <ROCS_FitTverskyCombo>
1.763 

> <ROCS_ColorScore>
-7.982

> <ROCS_Overlap>
1763.014

> <ROCS_Rank>
286                 

$$$$
untitled-dbase-24150_0
  -OEChem-08212314543D

 28 31  0     0  0  0  0  0  0999 V2000
   -9.2518    4.4756   -8.2779 C   0  0  0  0  0  0  0  0  0  0  0  0
   -7.9357    4.8119  -14.2562 C   0  0  0  0  0  0  0  0  0  0  0  0
   -8.6868    4.3401  -10.6245 C   0  0  0  0  0  0  0  0  0  0  0  0
   -8.5040    4.9467  -11.9105 C   0  0  0  0  0  0  0  0  0  0  0  0
   -9.0828    5.0950   -9.5217 C   0  0  0  0  0  0  0  0  0  0  0  0
   -8.1072    4.1919  -13.0131 C   0  0  0  0  0  0  0  0  0  0  0  0
   -8.4643    2.9763  -10.4738 C   0  0  0  0  0  0  0  0  0  0  0  0
   -8.7253    6.3108  -12.0608 C   0  0  0  0  0  0  0  0  0  0  0  0
   -9.0226    3.1013   -8.1454 C   0  0  0  0  0  0  0  0  0  0  0  0
   -8.1630    6.1865  -14.3883 C   0  0  0  0  0  0  0  0  0  0  0  0
   -8.6265    2.3421   -9.2463 C   0  0  0  0  0  0  0  0  0  0  0  0
   -8.5605    6.9454  -13.2876 C   0  0  0  0  0  0  0  0  0  0  0  0
   -9.3231    6.5518   -9.6713 C   0  0  0  0  0  0  0  0  0  0  0  0
   -7.8686    2.7348  -12.8639 C   0  0  0  0  0  0  0  0  0  0  0  0
   -9.6738    7.2499   -8.7290 O   0  0  0  0  0  0  0  0  0  0  0  0
   -7.5204    2.0362  -13.8068 O   0  0  0  0  0  0  0  0  0  0  0  0
   -9.1277    7.0861  -10.9493 O   0  0  0  0  0  0  0  0  0  0  0  0
   -8.0630    2.2008  -11.5855 O   0  0  0  0  0  0  0  0  0  0  0  0
   -9.1928    2.5135   -6.9272 O   0  0  0  0  0  0  0  0  0  0  0  0
   -7.9910    6.7754  -15.6056 O   0  0  0  0  0  0  0  0  0  0  0  0
   -8.4042    1.0059   -9.1203 O   0  0  0  0  0  0  0  0  0  0  0  0
   -8.7818    8.2817  -13.4134 O   0  0  0  0  0  0  0  0  0  0  0  0
   -9.5608    5.0490   -7.4075 H   0  0  0  0  0  0  0  0  0  0  0  0
   -7.6264    4.2385  -15.1266 H   0  0  0  0  0  0  0  0  0  0  0  0
   -9.0003    1.5648   -6.9841 H   0  0  0  0  0  0  0  0  0  0  0  0
   -8.1824    7.7243  -15.5480 H   0  0  0  0  0  0  0  0  0  0  0  0
   -8.1374    0.6267   -9.9731 H   0  0  0  0  0  0  0  0  0  0  0  0
   -9.0500    8.6606  -12.5608 H   0  0  0  0  0  0  0  0  0  0  0  0
  1  5  1  0  0  0  0
  1  9  2  0  0  0  0
  2  6  1  0  0  0  0
  2 10  2  0  0  0  0
  3  4  1  0  0  0  0
  3  5  2  0  0  0  0
  3  7  1  0  0  0  0
  4  6  2  0  0  0  0
  4  8  1  0  0  0  0
  5 13  1  0  0  0  0
  6 14  1  0  0  0  0
  7 11  2  0  0  0  0
  7 18  1  0  0  0  0
  8 12  2  0  0  0  0
  8 17  1  0  0  0  0
  9 11  1  0  0  0  0
  9 19  1  0  0  0  0
 10 12  1  0  0  0  0
 10 20  1  0  0  0  0
 11 21  1  0  0  0  0
 12 22  1  0  0  0  0
 13 15  2  0  0  0  0
 13 17  1  0  0  0  0
 14 16  2  0  0  0  0
 14 18  1  0  0  0  0
  1 23  1  0  0  0  0
  2 24  1  0  0  0  0
 19 25  1  0  0  0  0
 20 26  1  0  0  0  0
 21 27  1  0  0  0  0
 22 28  1  0  0  0  0
M  END
> <id>
EN300-21037316

> <smiles>
O.OC1=CC=2C(=O)OC=3C(O)=C(O)C=C4C(=O)OC(=C1O)C2C43

> <MDLNUMBER>
MFCD01457347

> <IUPAC Name>
6,7,13,14-tetrahydroxy-2,9-dioxatetracyclo[6.6.2.0^{4,16}.0^{11,15}]hexadeca-1(15),4(16),5,7,11,13-hexaene-3,10-dione hydrate

> <CAS>
314041-08-2

> <URL>
https://www.enaminestore.com/catalog/EN300-21037316

> <Saltdate>
O

> <ROCS_ShapeQuery>
_x0404_0B

> <ROCS_TanimotoCombo>
0.379 

> <ROCS_ShapeTanimoto>
0.281 

> <ROCS_ColorTanimoto>
0.098 

> <ROCS_RefTversky>
0.264 

> <ROCS_RefColorTversky>
0.110 

> <ROCS_RefTverskyCombo>
0.374 

> <ROCS_FitTversky>
1.296 

> <ROCS_FitColorTversky>
0.467 

> <ROCS_FitTverskyCombo>
1.763 

> <ROCS_ColorScore>
-7.982

> <ROCS_Overlap>
1763.014

> <ROCS_Rank>
287                 

$$$$
untitled-dbase-26039_110
  -OEChem-08212314543D

 47 49  0     1  0  0  0  0  0999 V2000
   -8.2517    6.0973  -17.8686 C   0  0  0  0  0  0  0  0  0  0  0  0
   -8.7908    4.8182  -18.0194 C   0  0  0  0  0  0  0  0  0  0  0  0
   -7.8164    6.5332  -16.6165 C   0  0  0  0  0  0  0  0  0  0  0  0
   -8.8984    3.9675  -16.9188 C   0  0  0  0  0  0  0  0  0  0  0  0
   -7.9215    5.6808  -15.5140 C   0  0  0  0  0  0  0  0  0  0  0  0
   -8.4516    4.3945  -15.6674 C   0  0  0  0  0  0  0  0  0  0  0  0
   -7.9511    3.0054  -11.9242 C   0  0  0  0  0  0  0  0  0  0  0  0
   -7.1678    2.6198  -12.9442 C   0  0  0  0  0  0  0  0  0  0  0  0
   -7.4194    6.1499  -14.2097 C   0  0  0  0  0  0  0  0  0  0  0  0
   -8.6836    5.3444   -9.6827 C   0  0  0  0  0  0  0  0  0  0  0  0
   -7.4522    3.0979  -10.5115 C   0  0  0  0  0  0  0  0  0  0  0  0
   -7.5491    2.6730  -14.3974 C   0  0  0  0  0  0  0  0  0  0  0  0
   -7.8010    7.8184  -12.3965 C   0  0  0  0  0  0  0  0  0  0  0  0
   -9.8265    2.9622   -9.3783 C   0  0  0  0  0  0  0  0  0  0  0  0
   -8.2221    3.2848   -8.0888 C   0  0  0  0  0  0  0  0  0  0  0  0
   -8.6556    7.3300  -11.2173 C   0  0  1  0  0  0  0  0  0  0  0  0
   -8.4882    3.7601   -9.5660 C   0  0  0  0  0  0  0  0  0  0  0  0
  -10.1469    7.5733  -11.4577 C   0  0  0  0  0  0  0  0  0  0  0  0
   -8.1437    7.1926  -13.6641 N   0  0  0  0  0  0  0  0  0  0  0  0
   -8.4087    5.9185  -10.9212 N   0  0  0  0  0  0  0  0  0  0  0  0
   -9.1947    2.1979   -8.2908 N   0  0  0  0  0  0  0  0  0  0  0  0
   -6.4319    5.6135  -13.7209 O   0  0  0  0  0  0  0  0  0  0  0  0
   -9.0907    6.0324   -8.7348 O   0  0  0  0  0  0  0  0  0  0  0  0
   -8.6447    3.5771  -14.5878 O   0  0  0  0  0  0  0  0  0  0  0  0
   -8.1720    6.7559  -18.7298 H   0  0  0  0  0  0  0  0  0  0  0  0
   -9.1171    4.4828  -18.9988 H   0  0  0  0  0  0  0  0  0  0  0  0
   -7.4163    7.5367  -16.5168 H   0  0  0  0  0  0  0  0  0  0  0  0
   -9.3160    2.9818  -17.0762 H   0  0  0  0  0  0  0  0  0  0  0  0
   -8.9828    3.2747  -12.1071 H   0  0  0  0  0  0  0  0  0  0  0  0
   -6.1568    2.2586  -12.7272 H   0  0  0  0  0  0  0  0  0  0  0  0
   -7.2018    2.0779  -10.1652 H   0  0  0  0  0  0  0  0  0  0  0  0
   -6.5014    3.6623  -10.4637 H   0  0  0  0  0  0  0  0  0  0  0  0
   -6.6664    3.0190  -14.9697 H   0  0  0  0  0  0  0  0  0  0  0  0
   -7.8213    1.6632  -14.7669 H   0  0  0  0  0  0  0  0  0  0  0  0
   -7.9186    8.9032  -12.5361 H   0  0  0  0  0  0  0  0  0  0  0  0
   -6.7364    7.6381  -12.1881 H   0  0  0  0  0  0  0  0  0  0  0  0
  -10.7189    3.5212   -9.0752 H   0  0  0  0  0  0  0  0  0  0  0  0
  -10.1145    2.3367  -10.2369 H   0  0  0  0  0  0  0  0  0  0  0  0
   -7.2037    2.9249   -7.8849 H   0  0  0  0  0  0  0  0  0  0  0  0
   -8.4905    3.9942   -7.2967 H   0  0  0  0  0  0  0  0  0  0  0  0
   -8.3643    7.9000  -10.3036 H   0  0  0  0  0  0  0  0  0  0  0  0
  -10.4682    7.0310  -12.3442 H   0  0  0  0  0  0  0  0  0  0  0  0
  -10.3258    8.6364  -11.6028 H   0  0  0  0  0  0  0  0  0  0  0  0
  -10.7176    7.2271  -10.5986 H   0  0  0  0  0  0  0  0  0  0  0  0
   -8.9257    7.5882  -14.1812 H   0  0  0  0  0  0  0  0  0  0  0  0
   -8.0203    5.3322  -11.6500 H   0  0  0  0  0  0  0  0  0  0  0  0
   -9.8136    2.0594   -7.4869 H   0  0  0  0  0  0  0  0  0  0  0  0
  1  2  2  0  0  0  0
  1  3  1  0  0  0  0
  2  4  1  0  0  0  0
  3  5  2  0  0  0  0
  4  6  2  0  0  0  0
  5  6  1  0  0  0  0
  5  9  1  0  0  0  0
  6 24  1  0  0  0  0
  7  8  2  0  0  0  0
  7 11  1  0  0  0  0
  8 12  1  0  0  0  0
  9 19  1  0  0  0  0
  9 22  2  0  0  0  0
 10 17  1  0  0  0  0
 10 20  1  0  0  0  0
 10 23  2  0  0  0  0
 11 17  1  0  0  0  0
 12 24  1  0  0  0  0
 13 16  1  0  0  0  0
 13 19  1  0  0  0  0
 14 17  1  0  0  0  0
 14 21  1  0  0  0  0
 15 17  1  0  0  0  0
 15 21  1  0  0  0  0
 16 18  1  6  0  0  0
 16 20  1  0  0  0  0
  1 25  1  0  0  0  0
  2 26  1  0  0  0  0
  3 27  1  0  0  0  0
  4 28  1  0  0  0  0
  7 29  1  0  0  0  0
  8 30  1  0  0  0  0
 11 31  1  0  0  0  0
 11 32  1  0  0  0  0
 12 33  1  0  0  0  0
 12 34  1  0  0  0  0
 13 35  1  0  0  0  0
 13 36  1  0  0  0  0
 14 37  1  0  0  0  0
 14 38  1  0  0  0  0
 15 39  1  0  0  0  0
 15 40  1  0  0  0  0
 16 41  1  0  0  0  0
 18 42  1  0  0  0  0
 18 43  1  0  0  0  0
 18 44  1  0  0  0  0
 19 45  1  0  0  0  0
 20 46  1  0  0  0  0
 21 47  1  0  0  0  0
M  END
> <id>
EN300-6733245

> <smiles>
C[C@@H]1CNC(=O)C=2C=CC=CC2OC/C=C/CC3(CNC3)C(=O)N1.OC(=O)C(F)(F)F

> <MDLNUMBER>
MFCD31746276

> <IUPAC Name>
(3'E,9'R)-9'-methyl-2',5',7',8',9',10',11',12'-octahydrospiro[azetidine-3,6'-[1,8,11]benzoxadiazacyclotetradecin]-3'-ene-7',12'-dione; trifluoroacetic acid

> <CAS>
2648851-77-6

> <Purity>
95

> <URL>
https://www.enaminestore.com/catalog/EN300-6733245

> <Saltdate>
OC(=O)C(F)(F)F

> <ROCS_ShapeQuery>
_x0404_0B

> <ROCS_TanimotoCombo>
0.379 

> <ROCS_ShapeTanimoto>
0.308 

> <ROCS_ColorTanimoto>
0.071 

> <ROCS_RefTversky>
0.283 

> <ROCS_RefColorTversky>
0.078 

> <ROCS_RefTverskyCombo>
0.361 

> <ROCS_FitTversky>
1.393 

> <ROCS_FitColorTversky>
0.455 

> <ROCS_FitTverskyCombo>
1.847 

> <ROCS_ColorScore>
-5.608

> <ROCS_Overlap>
1890.826

> <ROCS_Rank>
288                 

$$$$
untitled-dbase-45641_562
  -OEChem-08212314543D

 53 54  0     0  0  0  0  0  0999 V2000
  -10.0948    7.4920  -12.6455 C   0  0  0  0  0  0  0  0  0  0  0  0
  -10.4712    8.5447  -11.8085 C   0  0  0  0  0  0  0  0  0  0  0  0
   -9.1957    7.5676  -10.0246 C   0  0  0  0  0  0  0  0  0  0  0  0
   -8.8027    6.5031  -10.8588 C   0  0  0  0  0  0  0  0  0  0  0  0
   -9.2541    6.4545  -12.1953 C   0  0  0  0  0  0  0  0  0  0  0  0
  -10.0205    8.5836  -10.4973 C   0  0  0  0  0  0  0  0  0  0  0  0
   -8.6622    5.6594  -14.4664 C   0  0  0  0  0  0  0  0  0  0  0  0
   -8.7644    3.6588   -8.8019 C   0  0  0  0  0  0  0  0  0  0  0  0
   -7.8977    5.4505  -10.2776 C   0  0  0  0  0  0  0  0  0  0  0  0
   -8.6831    4.0123  -12.5979 C   0  0  0  0  0  0  0  0  0  0  0  0
   -9.2905    3.6197  -11.2527 C   0  0  0  0  0  0  0  0  0  0  0  0
   -7.1260    5.1494  -16.8333 C   0  0  0  0  0  0  0  0  0  0  0  0
   -8.8419    3.3881  -17.3459 C   0  0  0  0  0  0  0  0  0  0  0  0
   -9.5292    5.7996  -17.2025 C   0  0  0  0  0  0  0  0  0  0  0  0
   -8.7127    2.9464   -6.0307 C   0  0  0  0  0  0  0  0  0  0  0  0
   -7.9381    5.3018   -5.6291 C   0  0  0  0  0  0  0  0  0  0  0  0
  -10.1984    4.8840   -6.6414 C   0  0  0  0  0  0  0  0  0  0  0  0
   -8.5845    4.7281  -16.6601 C   0  0  0  0  0  0  0  0  0  0  0  0
   -8.7571    4.3872   -6.5374 C   0  0  0  0  0  0  0  0  0  0  0  0
   -8.9023    5.3831  -13.0956 N   0  0  0  0  0  0  0  0  0  0  0  0
   -8.6180    4.1969  -10.0880 N   0  0  0  0  0  0  0  0  0  0  0  0
   -8.2936    6.7388  -14.9259 O   0  0  0  0  0  0  0  0  0  0  0  0
   -9.3542    2.6100   -8.5488 O   0  0  0  0  0  0  0  0  0  0  0  0
   -8.8460    4.5548  -15.2623 O   0  0  0  0  0  0  0  0  0  0  0  0
   -8.1647    4.4305   -7.8406 O   0  0  0  0  0  0  0  0  0  0  0  0
  -10.5274   10.0032   -9.3601 Br  0  0  0  0  0  0  0  0  0  0  0  0
  -10.5229    7.4799  -13.6446 H   0  0  0  0  0  0  0  0  0  0  0  0
  -11.1318    9.3160  -12.1958 H   0  0  0  0  0  0  0  0  0  0  0  0
   -8.8395    7.6013   -8.9983 H   0  0  0  0  0  0  0  0  0  0  0  0
   -7.0578    5.2682  -10.9444 H   0  0  0  0  0  0  0  0  0  0  0  0
   -7.4922    5.7830   -9.3240 H   0  0  0  0  0  0  0  0  0  0  0  0
   -7.5790    3.8048  -12.5554 H   0  0  0  0  0  0  0  0  0  0  0  0
   -9.0088    3.2984  -13.4070 H   0  0  0  0  0  0  0  0  0  0  0  0
  -10.3470    3.9471  -11.2121 H   0  0  0  0  0  0  0  0  0  0  0  0
   -9.3138    2.5167  -11.1595 H   0  0  0  0  0  0  0  0  0  0  0  0
   -6.9372    6.1108  -16.3424 H   0  0  0  0  0  0  0  0  0  0  0  0
   -6.4390    4.4055  -16.4169 H   0  0  0  0  0  0  0  0  0  0  0  0
   -6.8828    5.2902  -17.8927 H   0  0  0  0  0  0  0  0  0  0  0  0
   -9.8872    3.0819  -17.2241 H   0  0  0  0  0  0  0  0  0  0  0  0
   -8.2336    2.5957  -16.8950 H   0  0  0  0  0  0  0  0  0  0  0  0
   -8.6159    3.4320  -18.4162 H   0  0  0  0  0  0  0  0  0  0  0  0
  -10.5755    5.4976  -17.0784 H   0  0  0  0  0  0  0  0  0  0  0  0
   -9.3841    6.7592  -16.6959 H   0  0  0  0  0  0  0  0  0  0  0  0
   -9.3754    5.9466  -18.2777 H   0  0  0  0  0  0  0  0  0  0  0  0
   -9.2994    2.2867   -6.6800 H   0  0  0  0  0  0  0  0  0  0  0  0
   -7.6869    2.5664   -5.9847 H   0  0  0  0  0  0  0  0  0  0  0  0
   -9.1553    2.8696   -5.0310 H   0  0  0  0  0  0  0  0  0  0  0  0
   -7.9672    6.3366   -5.9889 H   0  0  0  0  0  0  0  0  0  0  0  0
   -6.8829    5.0056   -5.6261 H   0  0  0  0  0  0  0  0  0  0  0  0
   -8.3065    5.2826   -4.5983 H   0  0  0  0  0  0  0  0  0  0  0  0
  -10.2305    5.9175   -7.0049 H   0  0  0  0  0  0  0  0  0  0  0  0
  -10.7918    4.2610   -7.3184 H   0  0  0  0  0  0  0  0  0  0  0  0
  -10.6814    4.8870   -5.6576 H   0  0  0  0  0  0  0  0  0  0  0  0
  1  2  1  0  0  0  0
  1  5  2  0  0  0  0
  2  6  2  0  0  0  0
  3  4  2  0  0  0  0
  3  6  1  0  0  0  0
  4  5  1  0  0  0  0
  4  9  1  0  0  0  0
  5 20  1  0  0  0  0
  6 26  1  0  0  0  0
  7 20  1  0  0  0  0
  7 22  2  0  0  0  0
  7 24  1  0  0  0  0
  8 21  1  0  0  0  0
  8 23  2  0  0  0  0
  8 25  1  0  0  0  0
  9 21  1  0  0  0  0
 10 11  1  0  0  0  0
 10 20  1  0  0  0  0
 11 21  1  0  0  0  0
 12 18  1  0  0  0  0
 13 18  1  0  0  0  0
 14 18  1  0  0  0  0
 15 19  1  0  0  0  0
 16 19  1  0  0  0  0
 17 19  1  0  0  0  0
 18 24  1  0  0  0  0
 19 25  1  0  0  0  0
  1 27  1  0  0  0  0
  2 28  1  0  0  0  0
  3 29  1  0  0  0  0
  9 30  1  0  0  0  0
  9 31  1  0  0  0  0
 10 32  1  0  0  0  0
 10 33  1  0  0  0  0
 11 34  1  0  0  0  0
 11 35  1  0  0  0  0
 12 36  1  0  0  0  0
 12 37  1  0  0  0  0
 12 38  1  0  0  0  0
 13 39  1  0  0  0  0
 13 40  1  0  0  0  0
 13 41  1  0  0  0  0
 14 42  1  0  0  0  0
 14 43  1  0  0  0  0
 14 44  1  0  0  0  0
 15 45  1  0  0  0  0
 15 46  1  0  0  0  0
 15 47  1  0  0  0  0
 16 48  1  0  0  0  0
 16 49  1  0  0  0  0
 16 50  1  0  0  0  0
 17 51  1  0  0  0  0
 17 52  1  0  0  0  0
 17 53  1  0  0  0  0
M  END
> <id>
EN300-28304097

> <smiles>
CC(C)(C)OC(=O)N1CCN(C(=O)OC(C)(C)C)C=2C=CC(Br)=CC2C1

> <IUPAC Name>
1,4-di-tert-butyl 7-bromo-2,3,4,5-tetrahydro-1H-1,4-benzodiazepine-1,4-dicarboxylate

> <CAS>
2680898-87-5

> <URL>
https://www.enaminestore.com/catalog/EN300-28304097

> <ROCS_ShapeQuery>
_x0404_0B

> <ROCS_TanimotoCombo>
0.379 

> <ROCS_ShapeTanimoto>
0.329 

> <ROCS_ColorTanimoto>
0.049 

> <ROCS_RefTversky>
0.301 

> <ROCS_RefColorTversky>
0.054 

> <ROCS_RefTverskyCombo>
0.355 

> <ROCS_FitTversky>
1.398 

> <ROCS_FitColorTversky>
0.371 

> <ROCS_FitTverskyCombo>
1.769 

> <ROCS_ColorScore>
-3.865

> <ROCS_Overlap>
2012.949

> <ROCS_Rank>
289                 

$$$$
untitled-dbase-10773_161
  -OEChem-08212314543D

 44 45  0     0  0  0  0  0  0999 V2000
   -7.7492    3.0064  -13.7451 C   0  0  0  0  0  0  0  0  0  0  0  0
   -8.6917    5.3474  -11.2961 C   0  0  0  0  0  0  0  0  0  0  0  0
   -7.3160    4.2332  -14.5206 C   0  0  0  0  0  0  0  0  0  0  0  0
   -8.7432    3.2039  -12.6241 C   0  0  0  0  0  0  0  0  0  0  0  0
   -8.0442    6.4779  -15.4361 C   0  0  0  0  0  0  0  0  0  0  0  0
   -9.3790    4.4200  -16.0229 C   0  0  0  0  0  0  0  0  0  0  0  0
   -7.3069    6.3857  -16.7718 C   0  0  0  0  0  0  0  0  0  0  0  0
   -8.6622    4.3304  -17.3705 C   0  0  0  0  0  0  0  0  0  0  0  0
   -9.4491    5.3383  -13.6627 C   0  0  0  0  0  0  0  0  0  0  0  0
   -8.5384    5.1044  -14.9087 C   0  0  0  0  0  0  0  0  0  0  0  0
   -8.1507    5.6863  -17.8220 C   0  0  0  0  0  0  0  0  0  0  0  0
  -10.4364    4.7031   -9.4441 C   0  0  0  0  0  0  0  0  0  0  0  0
   -8.7512    3.1122   -8.4754 C   0  0  0  0  0  0  0  0  0  0  0  0
   -8.4676    5.5863   -8.1486 C   0  0  0  0  0  0  0  0  0  0  0  0
   -8.9643    4.4925   -9.0930 C   0  0  0  0  0  0  0  0  0  0  0  0
   -8.9639    4.6388  -12.4716 N   0  0  0  0  0  0  0  0  0  0  0  0
   -7.3136    1.8879  -14.0179 O   0  0  0  0  0  0  0  0  0  0  0  0
   -8.8737    6.5556  -11.1567 O   0  0  0  0  0  0  0  0  0  0  0  0
   -8.1953    4.5485  -10.3001 O   0  0  0  0  0  0  0  0  0  0  0  0
   -9.2098    6.4771  -18.1390 F   0  0  0  0  0  0  0  0  0  0  0  0
   -7.4276    5.5406  -18.9602 F   0  0  0  0  0  0  0  0  0  0  0  0
   -6.6405    4.7923  -13.8780 H   0  0  0  0  0  0  0  0  0  0  0  0
   -6.7789    3.9141  -15.4087 H   0  0  0  0  0  0  0  0  0  0  0  0
   -9.6515    2.6953  -12.8723 H   0  0  0  0  0  0  0  0  0  0  0  0
   -8.3079    2.8429  -11.7116 H   0  0  0  0  0  0  0  0  0  0  0  0
   -7.3658    6.9254  -14.6980 H   0  0  0  0  0  0  0  0  0  0  0  0
   -8.8875    7.1712  -15.5400 H   0  0  0  0  0  0  0  0  0  0  0  0
  -10.3398    4.9334  -16.1662 H   0  0  0  0  0  0  0  0  0  0  0  0
   -9.6356    3.3983  -15.7027 H   0  0  0  0  0  0  0  0  0  0  0  0
   -7.0214    7.3814  -17.1253 H   0  0  0  0  0  0  0  0  0  0  0  0
   -6.3737    5.8306  -16.6279 H   0  0  0  0  0  0  0  0  0  0  0  0
   -7.8170    3.6370  -17.2807 H   0  0  0  0  0  0  0  0  0  0  0  0
   -9.3254    3.9069  -18.1337 H   0  0  0  0  0  0  0  0  0  0  0  0
   -9.4799    6.4080  -13.4121 H   0  0  0  0  0  0  0  0  0  0  0  0
  -10.4830    5.0451  -13.8726 H   0  0  0  0  0  0  0  0  0  0  0  0
  -10.5935    5.6928   -9.8877 H   0  0  0  0  0  0  0  0  0  0  0  0
  -10.7955    3.9455  -10.1482 H   0  0  0  0  0  0  0  0  0  0  0  0
  -11.0622    4.6644   -8.5451 H   0  0  0  0  0  0  0  0  0  0  0  0
   -7.6963    2.9568   -8.2219 H   0  0  0  0  0  0  0  0  0  0  0  0
   -9.0176    2.3214   -9.1859 H   0  0  0  0  0  0  0  0  0  0  0  0
   -9.3491    2.9789   -7.5680 H   0  0  0  0  0  0  0  0  0  0  0  0
   -7.4116    5.4355   -7.8966 H   0  0  0  0  0  0  0  0  0  0  0  0
   -8.5786    6.5818   -8.5905 H   0  0  0  0  0  0  0  0  0  0  0  0
   -9.0180    5.5625   -7.2011 H   0  0  0  0  0  0  0  0  0  0  0  0
  1  3  1  0  0  0  0
  1  4  1  0  0  0  0
  1 17  2  0  0  0  0
  2 16  1  0  0  0  0
  2 18  2  0  0  0  0
  2 19  1  0  0  0  0
  3 10  1  0  0  0  0
  4 16  1  0  0  0  0
  5  7  1  0  0  0  0
  5 10  1  0  0  0  0
  6  8  1  0  0  0  0
  6 10  1  0  0  0  0
  7 11  1  0  0  0  0
  8 11  1  0  0  0  0
  9 10  1  0  0  0  0
  9 16  1  0  0  0  0
 11 20  1  0  0  0  0
 11 21  1  0  0  0  0
 12 15  1  0  0  0  0
 13 15  1  0  0  0  0
 14 15  1  0  0  0  0
 15 19  1  0  0  0  0
  3 22  1  0  0  0  0
  3 23  1  0  0  0  0
  4 24  1  0  0  0  0
  4 25  1  0  0  0  0
  5 26  1  0  0  0  0
  5 27  1  0  0  0  0
  6 28  1  0  0  0  0
  6 29  1  0  0  0  0
  7 30  1  0  0  0  0
  7 31  1  0  0  0  0
  8 32  1  0  0  0  0
  8 33  1  0  0  0  0
  9 34  1  0  0  0  0
  9 35  1  0  0  0  0
 12 36  1  0  0  0  0
 12 37  1  0  0  0  0
 12 38  1  0  0  0  0
 13 39  1  0  0  0  0
 13 40  1  0  0  0  0
 13 41  1  0  0  0  0
 14 42  1  0  0  0  0
 14 43  1  0  0  0  0
 14 44  1  0  0  0  0
M  END
> <id>
EN300-374490

> <smiles>
CC(C)(C)OC(=O)N1CC(=O)CC2(CCC(F)(F)CC2)C1

> <MDLNUMBER>
MFCD30731665

> <IUPAC Name>
tert-butyl 9,9-difluoro-4-oxo-2-azaspiro[5.5]undecane-2-carboxylate

> <CAS>
2137741-89-8

> <URL>
https://www.enaminestore.com/catalog/EN300-374490

> <ROCS_ShapeQuery>
_x0404_0B

> <ROCS_TanimotoCombo>
0.378 

> <ROCS_ShapeTanimoto>
0.324 

> <ROCS_ColorTanimoto>
0.055 

> <ROCS_RefTversky>
0.290 

> <ROCS_RefColorTversky>
0.058 

> <ROCS_RefTverskyCombo>
0.348 

> <ROCS_FitTversky>
1.573 

> <ROCS_FitColorTversky>
0.490 

> <ROCS_FitTverskyCombo>
2.063 

> <ROCS_ColorScore>
-4.181

> <ROCS_Overlap>
1931.937

> <ROCS_Rank>
290                 

$$$$
untitled-dbase-14980_56
  -OEChem-08212314543D

 44 46  0     1  0  0  0  0  0999 V2000
   -9.3972    4.6282   -8.2617 C   0  0  0  0  0  0  0  0  0  0  0  0
   -8.3376    5.8357  -14.4064 C   0  0  0  0  0  0  0  0  0  0  0  0
   -7.2005    4.3721  -11.0781 C   0  0  0  0  0  0  0  0  0  0  0  0
   -9.1778    2.5605   -7.4816 C   0  0  0  0  0  0  0  0  0  0  0  0
   -7.0724    4.6762  -12.5730 C   0  0  0  0  0  0  0  0  0  0  0  0
   -8.7360    2.5378   -8.9501 C   0  0  0  0  0  0  0  0  0  0  0  0
   -9.1810    6.6850   -9.6132 C   0  0  0  0  0  0  0  0  0  0  0  0
   -8.6157    6.5609  -12.0508 C   0  0  0  0  0  0  0  0  0  0  0  0
   -9.2734    5.8107  -10.8750 C   0  0  1  0  0  0  0  0  0  0  0  0
   -8.6751    4.3940  -10.6703 C   0  0  2  0  0  0  0  0  0  0  0  0
   -7.4883    5.8167  -17.1386 C   0  0  0  0  0  0  0  0  0  0  0  0
   -8.1755    3.4007  -17.1433 C   0  0  0  0  0  0  0  0  0  0  0  0
   -9.8906    5.1880  -16.7281 C   0  0  0  0  0  0  0  0  0  0  0  0
   -8.4316    4.7775  -16.5342 C   0  0  0  0  0  0  0  0  0  0  0  0
   -9.6401    3.9452   -7.1681 N   0  0  0  0  0  0  0  0  0  0  0  0
   -9.6529    5.9588   -8.4556 N   0  0  0  0  0  0  0  0  0  0  0  0
   -8.8543    3.9282   -9.3070 N   0  0  0  0  0  0  0  0  0  0  0  0
   -8.0528    5.6577  -13.0488 N   0  0  0  0  0  0  0  0  0  0  0  0
   -8.6957    6.8992  -14.9088 O   0  0  0  0  0  0  0  0  0  0  0  0
   -8.1670    4.6840  -15.1298 O   0  0  0  0  0  0  0  0  0  0  0  0
   -6.7665    3.3928  -10.8793 H   0  0  0  0  0  0  0  0  0  0  0  0
   -6.6279    5.1105  -10.5163 H   0  0  0  0  0  0  0  0  0  0  0  0
  -10.0009    1.8601   -7.3082 H   0  0  0  0  0  0  0  0  0  0  0  0
   -8.3470    2.3014   -6.8177 H   0  0  0  0  0  0  0  0  0  0  0  0
   -6.0467    5.0182  -12.7934 H   0  0  0  0  0  0  0  0  0  0  0  0
   -7.2241    3.7555  -13.1640 H   0  0  0  0  0  0  0  0  0  0  0  0
   -7.7074    2.1758   -9.0478 H   0  0  0  0  0  0  0  0  0  0  0  0
   -9.3973    1.9087   -9.5552 H   0  0  0  0  0  0  0  0  0  0  0  0
   -8.1489    7.0091   -9.4290 H   0  0  0  0  0  0  0  0  0  0  0  0
   -9.7826    7.5940   -9.7416 H   0  0  0  0  0  0  0  0  0  0  0  0
   -9.3742    7.1707  -12.5662 H   0  0  0  0  0  0  0  0  0  0  0  0
   -7.8634    7.2648  -11.6685 H   0  0  0  0  0  0  0  0  0  0  0  0
  -10.3419    5.7082  -11.1230 H   0  0  0  0  0  0  0  0  0  0  0  0
   -9.2201    3.7079  -11.3599 H   0  0  0  0  0  0  0  0  0  0  0  0
   -7.6689    6.8063  -16.7040 H   0  0  0  0  0  0  0  0  0  0  0  0
   -6.4386    5.5517  -16.9757 H   0  0  0  0  0  0  0  0  0  0  0  0
   -7.6566    5.9172  -18.2169 H   0  0  0  0  0  0  0  0  0  0  0  0
   -8.8502    2.6520  -16.7125 H   0  0  0  0  0  0  0  0  0  0  0  0
   -7.1569    3.0605  -16.9246 H   0  0  0  0  0  0  0  0  0  0  0  0
   -8.3132    3.4074  -18.2293 H   0  0  0  0  0  0  0  0  0  0  0  0
  -10.5674    4.4428  -16.2947 H   0  0  0  0  0  0  0  0  0  0  0  0
  -10.1018    6.1573  -16.2651 H   0  0  0  0  0  0  0  0  0  0  0  0
  -10.1398    5.2493  -17.7937 H   0  0  0  0  0  0  0  0  0  0  0  0
  -10.1239    6.4862   -7.7342 H   0  0  0  0  0  0  0  0  0  0  0  0
  1 15  2  0  0  0  0
  1 16  1  0  0  0  0
  1 17  1  0  0  0  0
  2 18  1  0  0  0  0
  2 19  2  0  0  0  0
  2 20  1  0  0  0  0
  3  5  1  0  0  0  0
  3 10  1  0  0  0  0
  4  6  1  0  0  0  0
  4 15  1  0  0  0  0
  5 18  1  0  0  0  0
  6 17  1  0  0  0  0
  7  9  1  0  0  0  0
  7 16  1  0  0  0  0
  8  9  1  0  0  0  0
  8 18  1  0  0  0  0
  9 10  1  0  0  0  0
 10 17  1  0  0  0  0
 11 14  1  0  0  0  0
 12 14  1  0  0  0  0
 13 14  1  0  0  0  0
 14 20  1  0  0  0  0
  3 21  1  0  0  0  0
  3 22  1  0  0  0  0
  4 23  1  0  0  0  0
  4 24  1  0  0  0  0
  5 25  1  0  0  0  0
  5 26  1  0  0  0  0
  6 27  1  0  0  0  0
  6 28  1  0  0  0  0
  7 29  1  0  0  0  0
  7 30  1  0  0  0  0
  8 31  1  0  0  0  0
  8 32  1  0  0  0  0
  9 33  1  0  0  0  0
 10 34  1  0  0  0  0
 11 35  1  0  0  0  0
 11 36  1  0  0  0  0
 11 37  1  0  0  0  0
 12 38  1  0  0  0  0
 12 39  1  0  0  0  0
 12 40  1  0  0  0  0
 13 41  1  0  0  0  0
 13 42  1  0  0  0  0
 13 43  1  0  0  0  0
 16 44  1  0  0  0  0
M  END
> <id>
EN300-1118516

> <smiles>
CC(C)(C)OC(=O)N1CCC2C(CNC3=NCCN23)C1

> <MDLNUMBER>
MFCD30319980

> <IUPAC Name>
tert-butyl 2,5,7,11-tetraazatricyclo[7.4.0.0,2,6]tridec-5-ene-11-carboxylate

> <CAS>
1695380-59-6

> <URL>
https://www.enaminestore.com/catalog/EN300-1118516

> <ROCS_ShapeQuery>
_x0404_0B

> <ROCS_TanimotoCombo>
0.378 

> <ROCS_ShapeTanimoto>
0.312 

> <ROCS_ColorTanimoto>
0.066 

> <ROCS_RefTversky>
0.281 

> <ROCS_RefColorTversky>
0.071 

> <ROCS_RefTverskyCombo>
0.352 

> <ROCS_FitTversky>
1.551 

> <ROCS_FitColorTversky>
0.492 

> <ROCS_FitTverskyCombo>
2.043 

> <ROCS_ColorScore>
-5.145

> <ROCS_Overlap>
1871.880

> <ROCS_Rank>
291                 

$$$$
untitled-dbase-18417_4
  -OEChem-08212314543D

 54 55  0     0  0  0  0  0  0999 V2000
   -8.5321    5.5388  -14.2343 C   0  0  0  0  0  0  0  0  0  0  0  0
   -9.8818    5.4974  -10.6486 C   0  0  0  0  0  0  0  0  0  0  0  0
   -8.1276    3.7031  -10.9225 C   0  0  0  0  0  0  0  0  0  0  0  0
   -7.7603    3.9518   -7.9259 C   0  0  0  0  0  0  0  0  0  0  0  0
   -8.8102    2.9666   -7.4392 C   0  0  0  0  0  0  0  0  0  0  0  0
  -10.1204    3.3677   -9.3453 C   0  0  0  0  0  0  0  0  0  0  0  0
   -9.1054    4.3760   -9.9402 C   0  0  0  0  0  0  0  0  0  0  0  0
   -9.1761    6.2069  -11.8418 C   0  0  0  0  0  0  0  0  0  0  0  0
   -8.4893    3.7748  -12.4347 C   0  0  0  0  0  0  0  0  0  0  0  0
  -10.2724    7.1588  -12.4022 C   0  0  0  0  0  0  0  0  0  0  0  0
   -7.9858    7.0594  -11.3692 C   0  0  0  0  0  0  0  0  0  0  0  0
   -7.2573    3.1403  -13.1444 C   0  0  0  0  0  0  0  0  0  0  0  0
   -9.7196    2.9171  -12.7755 C   0  0  0  0  0  0  0  0  0  0  0  0
   -7.2234    5.2164  -16.7653 C   0  0  0  0  0  0  0  0  0  0  0  0
   -8.9906    3.4975  -17.2468 C   0  0  0  0  0  0  0  0  0  0  0  0
   -9.6464    5.8909  -16.8596 C   0  0  0  0  0  0  0  0  0  0  0  0
   -8.6622    4.7822  -16.4893 C   0  0  0  0  0  0  0  0  0  0  0  0
   -8.3658    4.9595   -8.7963 N   0  0  0  0  0  0  0  0  0  0  0  0
   -8.7175    5.1987  -12.8718 N   0  0  0  0  0  0  0  0  0  0  0  0
   -8.2009    6.6501  -14.6422 O   0  0  0  0  0  0  0  0  0  0  0  0
   -9.4741    2.3705   -8.5509 O   0  0  0  0  0  0  0  0  0  0  0  0
   -8.7940    4.5039  -15.0900 O   0  0  0  0  0  0  0  0  0  0  0  0
  -10.8211    5.0527  -11.0191 H   0  0  0  0  0  0  0  0  0  0  0  0
  -10.2168    6.2498   -9.9189 H   0  0  0  0  0  0  0  0  0  0  0  0
   -7.1200    4.1110  -10.7633 H   0  0  0  0  0  0  0  0  0  0  0  0
   -8.0505    2.6456  -10.6289 H   0  0  0  0  0  0  0  0  0  0  0  0
   -7.2734    4.4325   -7.0740 H   0  0  0  0  0  0  0  0  0  0  0  0
   -6.9879    3.4153   -8.4827 H   0  0  0  0  0  0  0  0  0  0  0  0
   -8.3707    2.1829   -6.8090 H   0  0  0  0  0  0  0  0  0  0  0  0
   -9.5634    3.4878   -6.8389 H   0  0  0  0  0  0  0  0  0  0  0  0
  -10.8437    3.8784   -8.6967 H   0  0  0  0  0  0  0  0  0  0  0  0
  -10.7039    2.8697  -10.1335 H   0  0  0  0  0  0  0  0  0  0  0  0
   -9.8569    7.6929  -13.2415 H   0  0  0  0  0  0  0  0  0  0  0  0
  -10.5572    7.8418  -11.6183 H   0  0  0  0  0  0  0  0  0  0  0  0
  -11.1134    6.5586  -12.7100 H   0  0  0  0  0  0  0  0  0  0  0  0
   -7.5303    7.5300  -12.2304 H   0  0  0  0  0  0  0  0  0  0  0  0
   -7.2705    6.4155  -10.8748 H   0  0  0  0  0  0  0  0  0  0  0  0
   -8.3475    7.8120  -10.6811 H   0  0  0  0  0  0  0  0  0  0  0  0
   -7.4277    3.1503  -14.2127 H   0  0  0  0  0  0  0  0  0  0  0  0
   -7.1401    2.1231  -12.7952 H   0  0  0  0  0  0  0  0  0  0  0  0
   -6.3779    3.7218  -12.9015 H   0  0  0  0  0  0  0  0  0  0  0  0
   -9.9144    3.0113  -13.8321 H   0  0  0  0  0  0  0  0  0  0  0  0
  -10.5554    3.2825  -12.2003 H   0  0  0  0  0  0  0  0  0  0  0  0
   -9.4988    1.8932  -12.5187 H   0  0  0  0  0  0  0  0  0  0  0  0
   -6.9838    6.1382  -16.2233 H   0  0  0  0  0  0  0  0  0  0  0  0
   -6.5055    4.4437  -16.4715 H   0  0  0  0  0  0  0  0  0  0  0  0
   -7.0787    5.4367  -17.8291 H   0  0  0  0  0  0  0  0  0  0  0  0
  -10.0220    3.1823  -17.0517 H   0  0  0  0  0  0  0  0  0  0  0  0
   -8.3481    2.6738  -16.9151 H   0  0  0  0  0  0  0  0  0  0  0  0
   -8.8646    3.6221  -18.3271 H   0  0  0  0  0  0  0  0  0  0  0  0
  -10.6785    5.5797  -16.6617 H   0  0  0  0  0  0  0  0  0  0  0  0
   -9.4488    6.8097  -16.2980 H   0  0  0  0  0  0  0  0  0  0  0  0
   -9.5920    6.1186  -17.9303 H   0  0  0  0  0  0  0  0  0  0  0  0
   -8.9633    5.5672   -8.2481 H   0  0  0  0  0  0  0  0  0  0  0  0
  1 19  1  0  0  0  0
  1 20  2  0  0  0  0
  1 22  1  0  0  0  0
  2  7  1  0  0  0  0
  2  8  1  0  0  0  0
  3  7  1  0  0  0  0
  3  9  1  0  0  0  0
  4  5  1  0  0  0  0
  4 18  1  0  0  0  0
  5 21  1  0  0  0  0
  6  7  1  0  0  0  0
  6 21  1  0  0  0  0
  7 18  1  0  0  0  0
  8 10  1  0  0  0  0
  8 11  1  0  0  0  0
  8 19  1  0  0  0  0
  9 12  1  0  0  0  0
  9 13  1  0  0  0  0
  9 19  1  0  0  0  0
 14 17  1  0  0  0  0
 15 17  1  0  0  0  0
 16 17  1  0  0  0  0
 17 22  1  0  0  0  0
  2 23  1  0  0  0  0
  2 24  1  0  0  0  0
  3 25  1  0  0  0  0
  3 26  1  0  0  0  0
  4 27  1  0  0  0  0
  4 28  1  0  0  0  0
  5 29  1  0  0  0  0
  5 30  1  0  0  0  0
  6 31  1  0  0  0  0
  6 32  1  0  0  0  0
 10 33  1  0  0  0  0
 10 34  1  0  0  0  0
 10 35  1  0  0  0  0
 11 36  1  0  0  0  0
 11 37  1  0  0  0  0
 11 38  1  0  0  0  0
 12 39  1  0  0  0  0
 12 40  1  0  0  0  0
 12 41  1  0  0  0  0
 13 42  1  0  0  0  0
 13 43  1  0  0  0  0
 13 44  1  0  0  0  0
 14 45  1  0  0  0  0
 14 46  1  0  0  0  0
 14 47  1  0  0  0  0
 15 48  1  0  0  0  0
 15 49  1  0  0  0  0
 15 50  1  0  0  0  0
 16 51  1  0  0  0  0
 16 52  1  0  0  0  0
 16 53  1  0  0  0  0
 18 54  1  0  0  0  0
M  END
> <id>
EN300-1645428

> <smiles>
CC(C)(C)OC(=O)N1C(C)(C)CC2(COCCN2)CC1(C)C

> <IUPAC Name>
tert-butyl 8,8,10,10-tetramethyl-4-oxa-1,9-diazaspiro[5.5]undecane-9-carboxylate

> <CAS>
2172070-83-4

> <URL>
https://www.enaminestore.com/catalog/EN300-1645428

> <ROCS_ShapeQuery>
_x0404_0B

> <ROCS_TanimotoCombo>
0.378 

> <ROCS_ShapeTanimoto>
0.316 

> <ROCS_ColorTanimoto>
0.061 

> <ROCS_RefTversky>
0.286 

> <ROCS_RefColorTversky>
0.068 

> <ROCS_RefTverskyCombo>
0.354 

> <ROCS_FitTversky>
1.514 

> <ROCS_FitColorTversky>
0.397 

> <ROCS_FitTverskyCombo>
1.911 

> <ROCS_ColorScore>
-4.901

> <ROCS_Overlap>
1906.728

> <ROCS_Rank>
292                 

$$$$
untitled-dbase-36446_257
  -OEChem-08212314543D

 42 43  0     0  0  0  0  0  0999 V2000
   -9.3006    3.2777   -8.3514 C   0  0  0  0  0  0  0  0  0  0  0  0
   -8.3946    5.7520  -14.4016 C   0  0  0  0  0  0  0  0  0  0  0  0
   -8.4889    4.2219   -7.5025 C   0  0  0  0  0  0  0  0  0  0  0  0
  -10.0137    3.8891   -9.5359 C   0  0  0  0  0  0  0  0  0  0  0  0
   -7.9258    4.5184  -10.8716 C   0  0  0  0  0  0  0  0  0  0  0  0
  -10.0961    5.8424  -11.1079 C   0  0  0  0  0  0  0  0  0  0  0  0
   -8.1446    4.2980  -12.3640 C   0  0  0  0  0  0  0  0  0  0  0  0
   -9.3027    6.5114  -12.2257 C   0  0  0  0  0  0  0  0  0  0  0  0
   -8.9433    5.6403   -7.7939 C   0  0  0  0  0  0  0  0  0  0  0  0
   -9.1882    5.0438  -10.1430 C   0  0  0  0  0  0  0  0  0  0  0  0
   -6.8438    5.4214  -16.7828 C   0  0  0  0  0  0  0  0  0  0  0  0
   -8.2022    3.3422  -17.1580 C   0  0  0  0  0  0  0  0  0  0  0  0
   -9.3347    5.5833  -17.1048 C   0  0  0  0  0  0  0  0  0  0  0  0
   -8.1905    4.7403  -16.5437 C   0  0  0  0  0  0  0  0  0  0  0  0
   -8.5945    5.5211  -13.0371 N   0  0  0  0  0  0  0  0  0  0  0  0
   -9.3857    2.0799   -8.0884 O   0  0  0  0  0  0  0  0  0  0  0  0
   -8.2517    6.8662  -14.9017 O   0  0  0  0  0  0  0  0  0  0  0  0
   -8.7179    5.9873   -9.1571 O   0  0  0  0  0  0  0  0  0  0  0  0
   -8.3824    4.5929  -15.1321 O   0  0  0  0  0  0  0  0  0  0  0  0
   -8.6197    3.9835   -6.4463 H   0  0  0  0  0  0  0  0  0  0  0  0
   -7.4402    4.0865   -7.7765 H   0  0  0  0  0  0  0  0  0  0  0  0
  -10.1426    3.0805  -10.2667 H   0  0  0  0  0  0  0  0  0  0  0  0
  -11.0092    4.2311   -9.2303 H   0  0  0  0  0  0  0  0  0  0  0  0
   -7.5959    3.5739  -10.4118 H   0  0  0  0  0  0  0  0  0  0  0  0
   -7.1014    5.2371  -10.7487 H   0  0  0  0  0  0  0  0  0  0  0  0
  -10.6670    6.6124  -10.5758 H   0  0  0  0  0  0  0  0  0  0  0  0
  -10.8402    5.1681  -11.5560 H   0  0  0  0  0  0  0  0  0  0  0  0
   -7.2100    3.9909  -12.8534 H   0  0  0  0  0  0  0  0  0  0  0  0
   -8.8599    3.4802  -12.5091 H   0  0  0  0  0  0  0  0  0  0  0  0
   -9.9761    7.1077  -12.8500 H   0  0  0  0  0  0  0  0  0  0  0  0
   -8.5499    7.1951  -11.8160 H   0  0  0  0  0  0  0  0  0  0  0  0
   -9.9960    5.7867   -7.5357 H   0  0  0  0  0  0  0  0  0  0  0  0
   -8.3680    6.3392   -7.1788 H   0  0  0  0  0  0  0  0  0  0  0  0
   -6.8314    6.4253  -16.3433 H   0  0  0  0  0  0  0  0  0  0  0  0
   -6.0180    4.8440  -16.3545 H   0  0  0  0  0  0  0  0  0  0  0  0
   -6.6560    5.5510  -17.8548 H   0  0  0  0  0  0  0  0  0  0  0  0
   -9.1666    2.8497  -16.9889 H   0  0  0  0  0  0  0  0  0  0  0  0
   -7.4436    2.7041  -16.6905 H   0  0  0  0  0  0  0  0  0  0  0  0
   -8.0130    3.3729  -18.2359 H   0  0  0  0  0  0  0  0  0  0  0  0
  -10.3008    5.0949  -16.9334 H   0  0  0  0  0  0  0  0  0  0  0  0
   -9.3645    6.5779  -16.6481 H   0  0  0  0  0  0  0  0  0  0  0  0
   -9.2361    5.7012  -18.1900 H   0  0  0  0  0  0  0  0  0  0  0  0
  1  3  1  0  0  0  0
  1  4  1  0  0  0  0
  1 16  2  0  0  0  0
  2 15  1  0  0  0  0
  2 17  2  0  0  0  0
  2 19  1  0  0  0  0
  3  9  1  0  0  0  0
  4 10  1  0  0  0  0
  5  7  1  0  0  0  0
  5 10  1  0  0  0  0
  6  8  1  0  0  0  0
  6 10  1  0  0  0  0
  7 15  1  0  0  0  0
  8 15  1  0  0  0  0
  9 18  1  0  0  0  0
 10 18  1  0  0  0  0
 11 14  1  0  0  0  0
 12 14  1  0  0  0  0
 13 14  1  0  0  0  0
 14 19  1  0  0  0  0
  3 20  1  0  0  0  0
  3 21  1  0  0  0  0
  4 22  1  0  0  0  0
  4 23  1  0  0  0  0
  5 24  1  0  0  0  0
  5 25  1  0  0  0  0
  6 26  1  0  0  0  0
  6 27  1  0  0  0  0
  7 28  1  0  0  0  0
  7 29  1  0  0  0  0
  8 30  1  0  0  0  0
  8 31  1  0  0  0  0
  9 32  1  0  0  0  0
  9 33  1  0  0  0  0
 11 34  1  0  0  0  0
 11 35  1  0  0  0  0
 11 36  1  0  0  0  0
 12 37  1  0  0  0  0
 12 38  1  0  0  0  0
 12 39  1  0  0  0  0
 13 40  1  0  0  0  0
 13 41  1  0  0  0  0
 13 42  1  0  0  0  0
M  END
> <id>
EN300-152389

> <smiles>
CC(C)(C)OC(=O)N1CCC2(CC1)CC(=O)CCO2

> <MDLNUMBER>
MFCD22396636

> <IUPAC Name>
tert-butyl 4-oxo-1-oxa-9-azaspiro[5.5]undecane-9-carboxylate

> <CAS>
1346229-51-3

> <Purity>
95

> <URL>
https://www.enaminestore.com/catalog/EN300-152389

> <MP>
61-64

> <ROCS_ShapeQuery>
_x0404_0B

> <ROCS_TanimotoCombo>
0.378 

> <ROCS_ShapeTanimoto>
0.307 

> <ROCS_ColorTanimoto>
0.071 

> <ROCS_RefTversky>
0.275 

> <ROCS_RefColorTversky>
0.075 

> <ROCS_RefTverskyCombo>
0.350 

> <ROCS_FitTversky>
1.609 

> <ROCS_FitColorTversky>
0.568 

> <ROCS_FitTverskyCombo>
2.176 

> <ROCS_ColorScore>
-5.381

> <ROCS_Overlap>
1835.364

> <ROCS_Rank>
293                 

$$$$
untitled-dbase-34275_163
  -OEChem-08212314543D

 46 47  0     1  0  0  0  0  0999 V2000
   -8.5541    5.7571  -14.4797 C   0  0  0  0  0  0  0  0  0  0  0  0
   -9.3972    4.1126  -11.2258 C   0  0  0  0  0  0  0  0  0  0  0  0
   -7.8439    6.1045  -10.8201 C   0  0  0  0  0  0  0  0  0  0  0  0
   -8.6517    4.1259  -12.5594 C   0  0  0  0  0  0  0  0  0  0  0  0
   -8.3989    6.5833  -12.1567 C   0  0  0  0  0  0  0  0  0  0  0  0
  -10.5033    4.6212   -8.4269 C   0  0  0  0  0  0  0  0  0  0  0  0
   -9.9250    5.7264   -9.3198 C   0  0  2  0  0  0  0  0  0  0  0  0
   -8.7736    5.0603  -10.1592 C   0  0  0  0  0  0  0  0  0  0  0  0
   -7.3643    5.4941  -17.0681 C   0  0  0  0  0  0  0  0  0  0  0  0
   -8.7963    3.4452  -17.3146 C   0  0  0  0  0  0  0  0  0  0  0  0
   -9.8727    5.6958  -17.0248 C   0  0  0  0  0  0  0  0  0  0  0  0
   -6.9138    3.3908   -9.5262 C   0  0  0  0  0  0  0  0  0  0  0  0
   -8.6742    4.8203  -16.6617 C   0  0  0  0  0  0  0  0  0  0  0  0
   -8.5450    5.4823  -13.1084 N   0  0  0  0  0  0  0  0  0  0  0  0
   -8.0283    4.2659   -9.1047 N   0  0  2  0  0  0  0  0  0  0  0  0
   -9.4647    6.8311   -8.4690 N   0  0  0  0  0  0  0  0  0  0  0  0
   -8.4657    6.8868  -14.9574 O   0  0  0  0  0  0  0  0  0  0  0  0
   -8.6706    4.0711   -6.5912 O   0  0  0  0  0  0  0  0  0  0  0  0
   -9.4105    2.2417   -8.1795 O   0  0  0  0  0  0  0  0  0  0  0  0
   -8.6652    4.6251  -15.2431 O   0  0  0  0  0  0  0  0  0  0  0  0
   -9.1114    3.6313   -7.8986 S   0  0  0  0  0  0  0  0  0  0  0  0
  -10.4257    4.4317  -11.4246 H   0  0  0  0  0  0  0  0  0  0  0  0
   -9.4696    3.0882  -10.8538 H   0  0  0  0  0  0  0  0  0  0  0  0
   -6.8370    5.7189  -10.9858 H   0  0  0  0  0  0  0  0  0  0  0  0
   -7.7362    6.9750  -10.1644 H   0  0  0  0  0  0  0  0  0  0  0  0
   -7.6271    3.7557  -12.4522 H   0  0  0  0  0  0  0  0  0  0  0  0
   -9.1571    3.4555  -13.2614 H   0  0  0  0  0  0  0  0  0  0  0  0
   -9.3658    7.0806  -11.9977 H   0  0  0  0  0  0  0  0  0  0  0  0
   -7.7331    7.3284  -12.6168 H   0  0  0  0  0  0  0  0  0  0  0  0
  -10.9800    5.0240   -7.5304 H   0  0  0  0  0  0  0  0  0  0  0  0
  -11.2106    3.9892   -8.9657 H   0  0  0  0  0  0  0  0  0  0  0  0
  -10.6916    6.0881   -9.9764 H   0  0  0  0  0  0  0  0  0  0  0  0
   -7.2729    6.4815  -16.6015 H   0  0  0  0  0  0  0  0  0  0  0  0
   -6.4955    4.8925  -16.7819 H   0  0  0  0  0  0  0  0  0  0  0  0
   -7.3292    5.6595  -18.1510 H   0  0  0  0  0  0  0  0  0  0  0  0
   -9.7346    2.9581  -17.0258 H   0  0  0  0  0  0  0  0  0  0  0  0
   -7.9893    2.7822  -16.9821 H   0  0  0  0  0  0  0  0  0  0  0  0
   -8.7622    3.5120  -18.4068 H   0  0  0  0  0  0  0  0  0  0  0  0
  -10.8124    5.2127  -16.7334 H   0  0  0  0  0  0  0  0  0  0  0  0
   -9.8207    6.6738  -16.5354 H   0  0  0  0  0  0  0  0  0  0  0  0
   -9.9279    5.8510  -18.1083 H   0  0  0  0  0  0  0  0  0  0  0  0
   -6.4856    2.8911   -8.6448 H   0  0  0  0  0  0  0  0  0  0  0  0
   -7.2885    2.6336  -10.2307 H   0  0  0  0  0  0  0  0  0  0  0  0
   -6.1378    3.9964  -10.0173 H   0  0  0  0  0  0  0  0  0  0  0  0
   -9.1063    7.5485   -9.0548 H   0  0  0  0  0  0  0  0  0  0  0  0
  -10.2390    7.1636   -7.9434 H   0  0  0  0  0  0  0  0  0  0  0  0
  1 14  1  0  0  0  0
  1 17  2  0  0  0  0
  1 20  1  0  0  0  0
  2  4  1  0  0  0  0
  2  8  1  0  0  0  0
  3  5  1  0  0  0  0
  3  8  1  0  0  0  0
  4 14  1  0  0  0  0
  5 14  1  0  0  0  0
  6  7  1  0  0  0  0
  6 21  1  0  0  0  0
  7  8  1  0  0  0  0
  7 16  1  0  0  0  0
  8 15  1  0  0  0  0
  9 13  1  0  0  0  0
 10 13  1  0  0  0  0
 11 13  1  0  0  0  0
 12 15  1  0  0  0  0
 13 20  1  0  0  0  0
 15 21  1  0  0  0  0
 18 21  2  0  0  0  0
 19 21  2  0  0  0  0
  2 22  1  0  0  0  0
  2 23  1  0  0  0  0
  3 24  1  0  0  0  0
  3 25  1  0  0  0  0
  4 26  1  0  0  0  0
  4 27  1  0  0  0  0
  5 28  1  0  0  0  0
  5 29  1  0  0  0  0
  6 30  1  0  0  0  0
  6 31  1  0  0  0  0
  7 32  1  0  0  0  0
  9 33  1  0  0  0  0
  9 34  1  0  0  0  0
  9 35  1  0  0  0  0
 10 36  1  0  0  0  0
 10 37  1  0  0  0  0
 10 38  1  0  0  0  0
 11 39  1  0  0  0  0
 11 40  1  0  0  0  0
 11 41  1  0  0  0  0
 12 42  1  0  0  0  0
 12 43  1  0  0  0  0
 12 44  1  0  0  0  0
 16 45  1  0  0  0  0
 16 46  1  0  0  0  0
M  END
> <id>
EN300-1122910

> <smiles>
CN1C2(CCN(CC2)C(=O)OC(C)(C)C)C(N)CS1(=O)=O

> <MDLNUMBER>
MFCD32197553

> <IUPAC Name>
tert-butyl 4-amino-1-methyl-2,2-dioxo-2lambda6-thia-1,8-diazaspiro[4.5]decane-8-carboxylate

> <CAS>
2137485-17-5

> <Purity>
95

> <URL>
https://www.enaminestore.com/catalog/EN300-1122910

> <ROCS_ShapeQuery>
_x0404_0B

> <ROCS_TanimotoCombo>
0.378 

> <ROCS_ShapeTanimoto>
0.317 

> <ROCS_ColorTanimoto>
0.061 

> <ROCS_RefTversky>
0.284 

> <ROCS_RefColorTversky>
0.067 

> <ROCS_RefTverskyCombo>
0.350 

> <ROCS_FitTversky>
1.578 

> <ROCS_FitColorTversky>
0.423 

> <ROCS_FitTverskyCombo>
2.001 

> <ROCS_ColorScore>
-4.819

> <ROCS_Overlap>
1892.661

> <ROCS_Rank>
294                 

$$$$
untitled-dbase-47548_47
  -OEChem-08212314543D

 42 44  0     1  0  0  0  0  0999 V2000
   -8.6651    4.0494   -7.2148 C   0  0  0  0  0  0  0  0  0  0  0  0
   -8.8428    2.6652   -7.1445 C   0  0  0  0  0  0  0  0  0  0  0  0
   -9.4502    2.5811   -9.4957 C   0  0  0  0  0  0  0  0  0  0  0  0
   -9.2696    3.9537   -9.5512 C   0  0  0  0  0  0  0  0  0  0  0  0
   -8.8992    4.6864   -8.4215 C   0  0  0  0  0  0  0  0  0  0  0  0
   -9.2353    1.9361   -8.2770 C   0  0  0  0  0  0  0  0  0  0  0  0
   -8.3295    5.4484  -14.2333 C   0  0  0  0  0  0  0  0  0  0  0  0
   -8.0950    7.0743  -10.8279 C   0  0  0  0  0  0  0  0  0  0  0  0
   -8.3471    7.0077  -12.3293 C   0  0  0  0  0  0  0  0  0  0  0  0
   -8.4726    4.5434  -11.8731 C   0  0  0  0  0  0  0  0  0  0  0  0
   -9.4251    4.8776  -10.7250 C   0  0  2  0  0  0  0  0  0  0  0  0
   -9.1514    6.2688  -10.0772 C   0  0  1  0  0  0  0  0  0  0  0  0
   -6.2943    4.1968  -15.7860 C   0  0  0  0  0  0  0  0  0  0  0  0
   -7.9769    2.3778  -16.1977 C   0  0  0  0  0  0  0  0  0  0  0  0
   -8.4424    4.7150  -16.9909 C   0  0  0  0  0  0  0  0  0  0  0  0
   -7.7807    3.8643  -15.9077 C   0  0  0  0  0  0  0  0  0  0  0  0
   -8.7284    6.0348   -8.7007 N   0  0  0  0  0  0  0  0  0  0  0  0
   -8.3765    5.6383  -12.8455 N   0  0  0  0  0  0  0  0  0  0  0  0
   -8.2647    6.3621  -15.0544 O   0  0  0  0  0  0  0  0  0  0  0  0
   -8.4162    4.1475  -14.6525 O   0  0  0  0  0  0  0  0  0  0  0  0
   -9.4129    0.6115   -8.1844 F   0  0  0  0  0  0  0  0  0  0  0  0
   -8.3490    4.6055   -6.3382 H   0  0  0  0  0  0  0  0  0  0  0  0
   -8.6809    2.1478   -6.2027 H   0  0  0  0  0  0  0  0  0  0  0  0
   -9.7547    2.0171  -10.3704 H   0  0  0  0  0  0  0  0  0  0  0  0
   -7.0900    6.6890  -10.6129 H   0  0  0  0  0  0  0  0  0  0  0  0
   -8.1106    8.1197  -10.4990 H   0  0  0  0  0  0  0  0  0  0  0  0
   -9.3110    7.4705  -12.5694 H   0  0  0  0  0  0  0  0  0  0  0  0
   -7.5738    7.5629  -12.8706 H   0  0  0  0  0  0  0  0  0  0  0  0
   -7.4504    4.3563  -11.5095 H   0  0  0  0  0  0  0  0  0  0  0  0
   -8.7902    3.6162  -12.3703 H   0  0  0  0  0  0  0  0  0  0  0  0
  -10.4664    4.8382  -11.0668 H   0  0  0  0  0  0  0  0  0  0  0  0
  -10.0912    6.8447  -10.0616 H   0  0  0  0  0  0  0  0  0  0  0  0
   -6.1492    5.2629  -15.5779 H   0  0  0  0  0  0  0  0  0  0  0  0
   -5.8155    3.6186  -14.9890 H   0  0  0  0  0  0  0  0  0  0  0  0
   -5.7694    3.9911  -16.7259 H   0  0  0  0  0  0  0  0  0  0  0  0
   -9.0419    2.1348  -16.2858 H   0  0  0  0  0  0  0  0  0  0  0  0
   -7.5874    1.7653  -15.3765 H   0  0  0  0  0  0  0  0  0  0  0  0
   -7.4749    2.0770  -17.1229 H   0  0  0  0  0  0  0  0  0  0  0  0
   -9.5086    4.4767  -17.0784 H   0  0  0  0  0  0  0  0  0  0  0  0
   -8.3436    5.7847  -16.7801 H   0  0  0  0  0  0  0  0  0  0  0  0
   -7.9984    4.5109  -17.9720 H   0  0  0  0  0  0  0  0  0  0  0  0
   -8.1870    6.6734   -8.1435 H   0  0  0  0  0  0  0  0  0  0  0  0
  1  2  1  0  0  0  0
  1  5  2  0  0  0  0
  2  6  2  0  0  0  0
  3  4  2  0  0  0  0
  3  6  1  0  0  0  0
  4  5  1  0  0  0  0
  4 11  1  0  0  0  0
  5 17  1  0  0  0  0
  6 21  1  0  0  0  0
  7 18  1  0  0  0  0
  7 19  2  0  0  0  0
  7 20  1  0  0  0  0
  8  9  1  0  0  0  0
  8 12  1  0  0  0  0
  9 18  1  0  0  0  0
 10 11  1  0  0  0  0
 10 18  1  0  0  0  0
 11 12  1  0  0  0  0
 12 17  1  0  0  0  0
 13 16  1  0  0  0  0
 14 16  1  0  0  0  0
 15 16  1  0  0  0  0
 16 20  1  0  0  0  0
  1 22  1  0  0  0  0
  2 23  1  0  0  0  0
  3 24  1  0  0  0  0
  8 25  1  0  0  0  0
  8 26  1  0  0  0  0
  9 27  1  0  0  0  0
  9 28  1  0  0  0  0
 10 29  1  0  0  0  0
 10 30  1  0  0  0  0
 11 31  1  0  0  0  0
 12 32  1  0  0  0  0
 13 33  1  0  0  0  0
 13 34  1  0  0  0  0
 13 35  1  0  0  0  0
 14 36  1  0  0  0  0
 14 37  1  0  0  0  0
 14 38  1  0  0  0  0
 15 39  1  0  0  0  0
 15 40  1  0  0  0  0
 15 41  1  0  0  0  0
 17 42  1  0  0  0  0
M  END
> <id>
EN300-202542

> <smiles>
CC(C)(C)OC(=O)N1CCC2NC=3C=CC(F)=CC3C2C1

> <MDLNUMBER>
MFCD24531939

> <IUPAC Name>
tert-butyl 8-fluoro-1H,2H,3H,4H,4aH,5H,9bH-pyrido[4,3-b]indole-2-carboxylate

> <CAS>
1824506-47-9

> <URL>
https://www.enaminestore.com/catalog/EN300-202542

> <ROCS_ShapeQuery>
_x0404_0B

> <ROCS_TanimotoCombo>
0.378 

> <ROCS_ShapeTanimoto>
0.299 

> <ROCS_ColorTanimoto>
0.078 

> <ROCS_RefTversky>
0.274 

> <ROCS_RefColorTversky>
0.082 

> <ROCS_RefTverskyCombo>
0.356 

> <ROCS_FitTversky>
1.456 

> <ROCS_FitColorTversky>
0.623 

> <ROCS_FitTverskyCombo>
2.078 

> <ROCS_ColorScore>
-5.926

> <ROCS_Overlap>
1826.992

> <ROCS_Rank>
295                 

$$$$
untitled-dbase-24861_45
  -OEChem-08212314543D

 42 44  0     1  0  0  0  0  0999 V2000
   -8.6601    4.0486   -7.2158 C   0  0  0  0  0  0  0  0  0  0  0  0
   -8.8402    2.6646   -7.1455 C   0  0  0  0  0  0  0  0  0  0  0  0
   -9.4549    2.5825   -9.4949 C   0  0  0  0  0  0  0  0  0  0  0  0
   -9.2716    3.9548   -9.5504 C   0  0  0  0  0  0  0  0  0  0  0  0
   -8.8968    4.6865   -8.4215 C   0  0  0  0  0  0  0  0  0  0  0  0
   -9.2377    1.9367   -8.2771 C   0  0  0  0  0  0  0  0  0  0  0  0
   -8.3290    5.4474  -14.2333 C   0  0  0  0  0  0  0  0  0  0  0  0
   -8.0957    7.0750  -10.8291 C   0  0  0  0  0  0  0  0  0  0  0  0
   -8.3511    7.0076  -12.3301 C   0  0  0  0  0  0  0  0  0  0  0  0
   -8.4765    4.5436  -11.8729 C   0  0  0  0  0  0  0  0  0  0  0  0
   -9.4274    4.8792  -10.7238 C   0  0  2  0  0  0  0  0  0  0  0  0
   -9.1506    6.2698  -10.0759 C   0  0  1  0  0  0  0  0  0  0  0  0
   -6.2904    4.1955  -15.7836 C   0  0  0  0  0  0  0  0  0  0  0  0
   -7.9720    2.3759  -16.1967 C   0  0  0  0  0  0  0  0  0  0  0  0
   -8.4367    4.7125  -16.9920 C   0  0  0  0  0  0  0  0  0  0  0  0
   -7.7765    3.8626  -15.9073 C   0  0  0  0  0  0  0  0  0  0  0  0
   -8.7238    6.0346   -8.7009 N   0  0  0  0  0  0  0  0  0  0  0  0
   -8.3786    5.6380  -12.8457 N   0  0  0  0  0  0  0  0  0  0  0  0
   -8.2634    6.3613  -15.0544 O   0  0  0  0  0  0  0  0  0  0  0  0
   -8.4141    4.1465  -14.6532 O   0  0  0  0  0  0  0  0  0  0  0  0
   -9.4161    0.6122   -8.1849 F   0  0  0  0  0  0  0  0  0  0  0  0
   -8.3402    4.6036   -6.3397 H   0  0  0  0  0  0  0  0  0  0  0  0
   -8.6755    2.1465   -6.2046 H   0  0  0  0  0  0  0  0  0  0  0  0
   -9.7624    2.0197  -10.3691 H   0  0  0  0  0  0  0  0  0  0  0  0
   -7.0903    6.6902  -10.6161 H   0  0  0  0  0  0  0  0  0  0  0  0
   -8.1108    8.1204  -10.5006 H   0  0  0  0  0  0  0  0  0  0  0  0
   -9.3165    7.4680  -12.5683 H   0  0  0  0  0  0  0  0  0  0  0  0
   -7.5804    7.5646  -12.8730 H   0  0  0  0  0  0  0  0  0  0  0  0
   -7.4543    4.3544  -11.5100 H   0  0  0  0  0  0  0  0  0  0  0  0
   -8.7959    3.6168  -12.3700 H   0  0  0  0  0  0  0  0  0  0  0  0
  -10.4689    4.8418  -11.0645 H   0  0  0  0  0  0  0  0  0  0  0  0
  -10.0898    6.8463  -10.0572 H   0  0  0  0  0  0  0  0  0  0  0  0
   -6.1458    5.2618  -15.5759 H   0  0  0  0  0  0  0  0  0  0  0  0
   -5.8127    3.6179  -14.9854 H   0  0  0  0  0  0  0  0  0  0  0  0
   -5.7640    3.9894  -16.7225 H   0  0  0  0  0  0  0  0  0  0  0  0
   -9.0369    2.1326  -16.2862 H   0  0  0  0  0  0  0  0  0  0  0  0
   -7.5836    1.7640  -15.3745 H   0  0  0  0  0  0  0  0  0  0  0  0
   -7.4686    2.0746  -17.1210 H   0  0  0  0  0  0  0  0  0  0  0  0
   -9.5028    4.4739  -17.0810 H   0  0  0  0  0  0  0  0  0  0  0  0
   -8.3384    5.7824  -16.7817 H   0  0  0  0  0  0  0  0  0  0  0  0
   -7.9913    4.5079  -17.9723 H   0  0  0  0  0  0  0  0  0  0  0  0
   -8.1861    6.6739   -8.1421 H   0  0  0  0  0  0  0  0  0  0  0  0
  1  2  1  0  0  0  0
  1  5  2  0  0  0  0
  2  6  2  0  0  0  0
  3  4  2  0  0  0  0
  3  6  1  0  0  0  0
  4  5  1  0  0  0  0
  4 11  1  0  0  0  0
  5 17  1  0  0  0  0
  6 21  1  0  0  0  0
  7 18  1  0  0  0  0
  7 19  2  0  0  0  0
  7 20  1  0  0  0  0
  8  9  1  0  0  0  0
  8 12  1  6  0  0  0
  9 18  1  0  0  0  0
 10 11  1  6  0  0  0
 10 18  1  0  0  0  0
 11 12  1  0  0  0  0
 12 17  1  0  0  0  0
 13 16  1  0  0  0  0
 14 16  1  0  0  0  0
 15 16  1  0  0  0  0
 16 20  1  0  0  0  0
  1 22  1  0  0  0  0
  2 23  1  0  0  0  0
  3 24  1  0  0  0  0
  8 25  1  0  0  0  0
  8 26  1  0  0  0  0
  9 27  1  0  0  0  0
  9 28  1  0  0  0  0
 10 29  1  0  0  0  0
 10 30  1  0  0  0  0
 11 31  1  0  0  0  0
 12 32  1  0  0  0  0
 13 33  1  0  0  0  0
 13 34  1  0  0  0  0
 13 35  1  0  0  0  0
 14 36  1  0  0  0  0
 14 37  1  0  0  0  0
 14 38  1  0  0  0  0
 15 39  1  0  0  0  0
 15 40  1  0  0  0  0
 15 41  1  0  0  0  0
 17 42  1  0  0  0  0
M  END
> <id>
EN300-6486438

> <smiles>
CC(C)(C)OC(=O)N1CC[C@@H]2NC=3C=CC(F)=CC3[C@@H]2C1 |&1:10,19,r|

> <MDLNUMBER>
MFCD12198734

> <IUPAC Name>
rac-tert-butyl (4aR,9bS)-8-fluoro-1H,2H,3H,4H,4aH,5H,9bH-pyrido[4,3-b]indole-2-carboxylate

> <CAS>
1251015-03-8

> <Purity>
95

> <URL>
https://www.enaminestore.com/catalog/EN300-6486438

> <ROCS_ShapeQuery>
_x0404_0B

> <ROCS_TanimotoCombo>
0.378 

> <ROCS_ShapeTanimoto>
0.299 

> <ROCS_ColorTanimoto>
0.078 

> <ROCS_RefTversky>
0.274 

> <ROCS_RefColorTversky>
0.082 

> <ROCS_RefTverskyCombo>
0.356 

> <ROCS_FitTversky>
1.455 

> <ROCS_FitColorTversky>
0.623 

> <ROCS_FitTverskyCombo>
2.078 

> <ROCS_ColorScore>
-5.927

> <ROCS_Overlap>
1826.515

> <ROCS_Rank>
296                 

$$$$
untitled-dbase-4907_45
  -OEChem-08212314543D

 42 44  0     1  0  0  0  0  0999 V2000
   -8.6601    4.0486   -7.2158 C   0  0  0  0  0  0  0  0  0  0  0  0
   -8.8402    2.6646   -7.1455 C   0  0  0  0  0  0  0  0  0  0  0  0
   -9.4549    2.5825   -9.4949 C   0  0  0  0  0  0  0  0  0  0  0  0
   -9.2716    3.9548   -9.5504 C   0  0  0  0  0  0  0  0  0  0  0  0
   -8.8968    4.6865   -8.4215 C   0  0  0  0  0  0  0  0  0  0  0  0
   -9.2377    1.9367   -8.2771 C   0  0  0  0  0  0  0  0  0  0  0  0
   -8.3290    5.4474  -14.2333 C   0  0  0  0  0  0  0  0  0  0  0  0
   -8.0957    7.0750  -10.8291 C   0  0  0  0  0  0  0  0  0  0  0  0
   -8.3511    7.0076  -12.3301 C   0  0  0  0  0  0  0  0  0  0  0  0
   -8.4765    4.5436  -11.8729 C   0  0  0  0  0  0  0  0  0  0  0  0
   -9.4274    4.8792  -10.7238 C   0  0  2  0  0  0  0  0  0  0  0  0
   -9.1506    6.2698  -10.0759 C   0  0  1  0  0  0  0  0  0  0  0  0
   -6.2904    4.1955  -15.7836 C   0  0  0  0  0  0  0  0  0  0  0  0
   -7.9720    2.3759  -16.1967 C   0  0  0  0  0  0  0  0  0  0  0  0
   -8.4367    4.7125  -16.9920 C   0  0  0  0  0  0  0  0  0  0  0  0
   -7.7765    3.8626  -15.9073 C   0  0  0  0  0  0  0  0  0  0  0  0
   -8.7238    6.0346   -8.7009 N   0  0  0  0  0  0  0  0  0  0  0  0
   -8.3786    5.6380  -12.8457 N   0  0  0  0  0  0  0  0  0  0  0  0
   -8.2634    6.3613  -15.0544 O   0  0  0  0  0  0  0  0  0  0  0  0
   -8.4141    4.1465  -14.6532 O   0  0  0  0  0  0  0  0  0  0  0  0
   -9.4161    0.6122   -8.1849 F   0  0  0  0  0  0  0  0  0  0  0  0
   -8.3402    4.6036   -6.3397 H   0  0  0  0  0  0  0  0  0  0  0  0
   -8.6755    2.1465   -6.2046 H   0  0  0  0  0  0  0  0  0  0  0  0
   -9.7624    2.0197  -10.3691 H   0  0  0  0  0  0  0  0  0  0  0  0
   -7.0903    6.6902  -10.6161 H   0  0  0  0  0  0  0  0  0  0  0  0
   -8.1108    8.1204  -10.5006 H   0  0  0  0  0  0  0  0  0  0  0  0
   -9.3165    7.4680  -12.5683 H   0  0  0  0  0  0  0  0  0  0  0  0
   -7.5804    7.5646  -12.8730 H   0  0  0  0  0  0  0  0  0  0  0  0
   -7.4543    4.3544  -11.5100 H   0  0  0  0  0  0  0  0  0  0  0  0
   -8.7959    3.6168  -12.3700 H   0  0  0  0  0  0  0  0  0  0  0  0
  -10.4689    4.8418  -11.0645 H   0  0  0  0  0  0  0  0  0  0  0  0
  -10.0898    6.8463  -10.0572 H   0  0  0  0  0  0  0  0  0  0  0  0
   -6.1458    5.2618  -15.5759 H   0  0  0  0  0  0  0  0  0  0  0  0
   -5.8127    3.6179  -14.9854 H   0  0  0  0  0  0  0  0  0  0  0  0
   -5.7640    3.9894  -16.7225 H   0  0  0  0  0  0  0  0  0  0  0  0
   -9.0369    2.1326  -16.2862 H   0  0  0  0  0  0  0  0  0  0  0  0
   -7.5836    1.7640  -15.3745 H   0  0  0  0  0  0  0  0  0  0  0  0
   -7.4686    2.0746  -17.1210 H   0  0  0  0  0  0  0  0  0  0  0  0
   -9.5028    4.4739  -17.0810 H   0  0  0  0  0  0  0  0  0  0  0  0
   -8.3384    5.7824  -16.7817 H   0  0  0  0  0  0  0  0  0  0  0  0
   -7.9913    4.5079  -17.9723 H   0  0  0  0  0  0  0  0  0  0  0  0
   -8.1861    6.6739   -8.1421 H   0  0  0  0  0  0  0  0  0  0  0  0
  1  2  1  0  0  0  0
  1  5  2  0  0  0  0
  2  6  2  0  0  0  0
  3  4  2  0  0  0  0
  3  6  1  0  0  0  0
  4  5  1  0  0  0  0
  4 11  1  0  0  0  0
  5 17  1  0  0  0  0
  6 21  1  0  0  0  0
  7 18  1  0  0  0  0
  7 19  2  0  0  0  0
  7 20  1  0  0  0  0
  8  9  1  0  0  0  0
  8 12  1  6  0  0  0
  9 18  1  0  0  0  0
 10 11  1  6  0  0  0
 10 18  1  0  0  0  0
 11 12  1  0  0  0  0
 12 17  1  0  0  0  0
 13 16  1  0  0  0  0
 14 16  1  0  0  0  0
 15 16  1  0  0  0  0
 16 20  1  0  0  0  0
  1 22  1  0  0  0  0
  2 23  1  0  0  0  0
  3 24  1  0  0  0  0
  8 25  1  0  0  0  0
  8 26  1  0  0  0  0
  9 27  1  0  0  0  0
  9 28  1  0  0  0  0
 10 29  1  0  0  0  0
 10 30  1  0  0  0  0
 11 31  1  0  0  0  0
 12 32  1  0  0  0  0
 13 33  1  0  0  0  0
 13 34  1  0  0  0  0
 13 35  1  0  0  0  0
 14 36  1  0  0  0  0
 14 37  1  0  0  0  0
 14 38  1  0  0  0  0
 15 39  1  0  0  0  0
 15 40  1  0  0  0  0
 15 41  1  0  0  0  0
 17 42  1  0  0  0  0
M  END
> <id>
EN300-202730

> <smiles>
CC(C)(C)OC(=O)N1CC[C@@H]2NC=3C=CC(F)=CC3[C@@H]2C1

> <MDLNUMBER>
MFCD26131600

> <IUPAC Name>
tert-butyl (4aS,9bR)-8-fluoro-1H,2H,3H,4H,4aH,5H,9bH-pyrido[4,3-b]indole-2-carboxylate

> <CAS>
1820583-31-0

> <URL>
https://www.enaminestore.com/catalog/EN300-202730

> <ROCS_ShapeQuery>
_x0404_0B

> <ROCS_TanimotoCombo>
0.378 

> <ROCS_ShapeTanimoto>
0.299 

> <ROCS_ColorTanimoto>
0.078 

> <ROCS_RefTversky>
0.274 

> <ROCS_RefColorTversky>
0.082 

> <ROCS_RefTverskyCombo>
0.356 

> <ROCS_FitTversky>
1.455 

> <ROCS_FitColorTversky>
0.623 

> <ROCS_FitTverskyCombo>
2.078 

> <ROCS_ColorScore>
-5.927

> <ROCS_Overlap>
1826.515

> <ROCS_Rank>
297                 

$$$$
untitled-dbase-49872_73
  -OEChem-08212314543D

 47 49  0     1  0  0  0  0  0999 V2000
   -8.8329    4.1690  -18.0984 C   0  0  0  0  0  0  0  0  0  0  0  0
   -9.3827    5.3657  -17.6349 C   0  0  0  0  0  0  0  0  0  0  0  0
   -7.9640    3.4389  -17.2895 C   0  0  0  0  0  0  0  0  0  0  0  0
   -9.0650    5.8429  -16.3607 C   0  0  0  0  0  0  0  0  0  0  0  0
   -7.6570    3.9148  -16.0135 C   0  0  0  0  0  0  0  0  0  0  0  0
   -8.2021    5.1139  -15.5406 C   0  0  0  0  0  0  0  0  0  0  0  0
   -8.9298    5.2643  -11.1493 C   0  0  0  0  0  0  0  0  0  0  0  0
   -8.3174    5.9960  -12.0911 C   0  0  0  0  0  0  0  0  0  0  0  0
   -6.7650    3.1077  -15.1622 C   0  0  0  0  0  0  0  0  0  0  0  0
   -7.6802    2.4818  -10.3420 C   0  0  0  0  0  0  0  0  0  0  0  0
   -8.3270    5.0388   -9.7934 C   0  0  0  0  0  0  0  0  0  0  0  0
   -8.8045    6.1344  -13.4969 C   0  0  0  0  0  0  0  0  0  0  0  0
   -5.9948    2.1365  -12.1577 C   0  0  0  0  0  0  0  0  0  0  0  0
   -8.0635    3.3703   -7.8795 C   0  0  0  0  0  0  0  0  0  0  0  0
   -9.8474    3.1380   -8.9343 C   0  0  0  0  0  0  0  0  0  0  0  0
   -6.8201    1.4492  -13.2557 C   0  0  2  0  0  0  0  0  0  0  0  0
   -8.4075    3.5502   -9.3965 C   0  0  0  0  0  0  0  0  0  0  0  0
   -5.9910    0.3875  -13.9808 C   0  0  0  0  0  0  0  0  0  0  0  0
   -7.4377    2.3951  -14.1847 N   0  0  0  0  0  0  0  0  0  0  0  0
   -6.7834    2.9908  -11.2795 N   0  0  0  0  0  0  0  0  0  0  0  0
   -9.2516    2.5101   -7.7421 N   0  0  0  0  0  0  0  0  0  0  0  0
   -5.5626    3.1142  -15.3927 O   0  0  0  0  0  0  0  0  0  0  0  0
   -7.8797    1.2626  -10.2364 O   0  0  0  0  0  0  0  0  0  0  0  0
   -7.7905    5.5434  -14.3116 O   0  0  0  0  0  0  0  0  0  0  0  0
   -9.0801    3.8100  -19.0934 H   0  0  0  0  0  0  0  0  0  0  0  0
  -10.0533    5.9345  -18.2735 H   0  0  0  0  0  0  0  0  0  0  0  0
   -7.5506    2.5099  -17.6615 H   0  0  0  0  0  0  0  0  0  0  0  0
   -9.4870    6.7899  -16.0449 H   0  0  0  0  0  0  0  0  0  0  0  0
   -9.8934    4.8353  -11.3455 H   0  0  0  0  0  0  0  0  0  0  0  0
   -7.3974    6.5303  -11.8337 H   0  0  0  0  0  0  0  0  0  0  0  0
   -7.2811    5.3729   -9.7650 H   0  0  0  0  0  0  0  0  0  0  0  0
   -8.8723    5.6678   -9.0771 H   0  0  0  0  0  0  0  0  0  0  0  0
   -9.7633    5.6304  -13.6247 H   0  0  0  0  0  0  0  0  0  0  0  0
   -8.8975    7.1916  -13.7430 H   0  0  0  0  0  0  0  0  0  0  0  0
   -5.5316    1.3804  -11.5182 H   0  0  0  0  0  0  0  0  0  0  0  0
   -5.1935    2.7306  -12.6044 H   0  0  0  0  0  0  0  0  0  0  0  0
   -7.1211    2.8428   -7.6829 H   0  0  0  0  0  0  0  0  0  0  0  0
   -8.0839    4.2747   -7.2631 H   0  0  0  0  0  0  0  0  0  0  0  0
  -10.5471    3.9476   -8.7127 H   0  0  0  0  0  0  0  0  0  0  0  0
  -10.3506    2.4205   -9.5941 H   0  0  0  0  0  0  0  0  0  0  0  0
   -7.6436    0.9079  -12.7398 H   0  0  0  0  0  0  0  0  0  0  0  0
   -5.1646    0.8615  -14.5074 H   0  0  0  0  0  0  0  0  0  0  0  0
   -6.6158   -0.1409  -14.6988 H   0  0  0  0  0  0  0  0  0  0  0  0
   -5.5937   -0.3253  -13.2603 H   0  0  0  0  0  0  0  0  0  0  0  0
   -8.4553    2.5417  -14.1040 H   0  0  0  0  0  0  0  0  0  0  0  0
   -6.7002    3.9891  -11.3943 H   0  0  0  0  0  0  0  0  0  0  0  0
   -9.0716    1.5099   -7.8265 H   0  0  0  0  0  0  0  0  0  0  0  0
  1  2  2  0  0  0  0
  1  3  1  0  0  0  0
  2  4  1  0  0  0  0
  3  5  2  0  0  0  0
  4  6  2  0  0  0  0
  5  6  1  0  0  0  0
  5  9  1  0  0  0  0
  6 24  1  0  0  0  0
  7  8  2  0  0  0  0
  7 11  1  0  0  0  0
  8 12  1  0  0  0  0
  9 19  1  0  0  0  0
  9 22  2  0  0  0  0
 10 17  1  0  0  0  0
 10 20  1  0  0  0  0
 10 23  2  0  0  0  0
 11 17  1  0  0  0  0
 12 24  1  0  0  0  0
 13 16  1  0  0  0  0
 13 20  1  0  0  0  0
 14 17  1  0  0  0  0
 14 21  1  0  0  0  0
 15 17  1  0  0  0  0
 15 21  1  0  0  0  0
 16 18  1  1  0  0  0
 16 19  1  0  0  0  0
  1 25  1  0  0  0  0
  2 26  1  0  0  0  0
  3 27  1  0  0  0  0
  4 28  1  0  0  0  0
  7 29  1  0  0  0  0
  8 30  1  0  0  0  0
 11 31  1  0  0  0  0
 11 32  1  0  0  0  0
 12 33  1  0  0  0  0
 12 34  1  0  0  0  0
 13 35  1  0  0  0  0
 13 36  1  0  0  0  0
 14 37  1  0  0  0  0
 14 38  1  0  0  0  0
 15 39  1  0  0  0  0
 15 40  1  0  0  0  0
 16 41  1  0  0  0  0
 18 42  1  0  0  0  0
 18 43  1  0  0  0  0
 18 44  1  0  0  0  0
 19 45  1  0  0  0  0
 20 46  1  0  0  0  0
 21 47  1  0  0  0  0
M  END
> <id>
EN300-6486338

> <smiles>
C[C@H]1CNC(=O)C2(CNC2)C/C=C/COC=3C=CC=CC3C(=O)N1.OC(=O)C(F)(F)F

> <MDLNUMBER>
MFCD31737450

> <IUPAC Name>
(3'E,10'S)-10'-methyl-2',5',7',8',9',10',11',12'-octahydrospiro[azetidine-3,6'-[1,8,11]benzoxadiazacyclotetradecin]-3'-ene-7',12'-dione; trifluoroacetic acid

> <CAS>
2648869-85-4

> <URL>
https://www.enaminestore.com/catalog/EN300-6486338

> <Saltdate>
OC(=O)C(F)(F)F

> <ROCS_ShapeQuery>
_x0404_0B

> <ROCS_TanimotoCombo>
0.378 

> <ROCS_ShapeTanimoto>
0.287 

> <ROCS_ColorTanimoto>
0.091 

> <ROCS_RefTversky>
0.268 

> <ROCS_RefColorTversky>
0.097 

> <ROCS_RefTverskyCombo>
0.366 

> <ROCS_FitTversky>
1.320 

> <ROCS_FitColorTversky>
0.571 

> <ROCS_FitTverskyCombo>
1.891 

> <ROCS_ColorScore>
-7.042

> <ROCS_Overlap>
1791.052

> <ROCS_Rank>
298                 

$$$$
untitled-dbase-30604_18
  -OEChem-08212314543D

 44 45  0     1  0  0  0  0  0999 V2000
   -8.1127    2.5010   -8.5444 C   0  0  0  0  0  0  0  0  0  0  0  0
   -8.4956    5.6338  -14.3808 C   0  0  0  0  0  0  0  0  0  0  0  0
   -7.5745    3.6111   -9.4278 C   0  0  0  0  0  0  0  0  0  0  0  0
   -7.9243    5.7327  -10.7182 C   0  0  0  0  0  0  0  0  0  0  0  0
   -9.3238    3.6699  -11.2745 C   0  0  0  0  0  0  0  0  0  0  0  0
   -8.5958    6.2514  -11.9845 C   0  0  0  0  0  0  0  0  0  0  0  0
   -8.6372    3.8360  -12.6270 C   0  0  0  0  0  0  0  0  0  0  0  0
  -10.3378    3.6779   -8.4198 C   0  0  0  0  0  0  0  0  0  0  0  0
   -9.6999    4.8934   -9.0789 C   0  0  2  0  0  0  0  0  0  0  0  0
   -8.6390    4.4796  -10.1326 C   0  0  0  0  0  0  0  0  0  0  0  0
   -7.0903    5.6428  -16.8729 C   0  0  0  0  0  0  0  0  0  0  0  0
   -8.3922    3.5612  -17.4034 C   0  0  0  0  0  0  0  0  0  0  0  0
   -9.6011    5.7299  -17.0246 C   0  0  0  0  0  0  0  0  0  0  0  0
   -8.3927    4.8802  -16.6338 C   0  0  0  0  0  0  0  0  0  0  0  0
   -9.3750    2.6654   -8.0253 N   0  0  0  0  0  0  0  0  0  0  0  0
   -8.5827    5.2411  -13.0417 N   0  0  0  0  0  0  0  0  0  0  0  0
   -7.4034    1.5353   -8.2547 O   0  0  0  0  0  0  0  0  0  0  0  0
   -8.4266    6.8026  -14.7565 O   0  0  0  0  0  0  0  0  0  0  0  0
   -9.1370    5.7194   -8.0575 O   0  0  0  0  0  0  0  0  0  0  0  0
   -8.4876    4.5664  -15.2397 O   0  0  0  0  0  0  0  0  0  0  0  0
   -6.9457    4.2369   -8.7774 H   0  0  0  0  0  0  0  0  0  0  0  0
   -6.8971    3.1475  -10.1559 H   0  0  0  0  0  0  0  0  0  0  0  0
   -6.8793    5.5103  -10.9469 H   0  0  0  0  0  0  0  0  0  0  0  0
   -7.9249    6.5321   -9.9709 H   0  0  0  0  0  0  0  0  0  0  0  0
  -10.3628    4.0030  -11.3729 H   0  0  0  0  0  0  0  0  0  0  0  0
   -9.3577    2.6049  -11.0327 H   0  0  0  0  0  0  0  0  0  0  0  0
   -9.6230    6.5545  -11.7575 H   0  0  0  0  0  0  0  0  0  0  0  0
   -8.0795    7.1365  -12.3720 H   0  0  0  0  0  0  0  0  0  0  0  0
   -7.6035    3.4703  -12.5922 H   0  0  0  0  0  0  0  0  0  0  0  0
   -9.1582    3.2247  -13.3720 H   0  0  0  0  0  0  0  0  0  0  0  0
  -10.8870    3.9594   -7.5165 H   0  0  0  0  0  0  0  0  0  0  0  0
  -11.0377    3.1883   -9.1028 H   0  0  0  0  0  0  0  0  0  0  0  0
  -10.4988    5.4856   -9.5600 H   0  0  0  0  0  0  0  0  0  0  0  0
   -7.0868    6.5902  -16.3222 H   0  0  0  0  0  0  0  0  0  0  0  0
   -6.2178    5.0578  -16.5641 H   0  0  0  0  0  0  0  0  0  0  0  0
   -6.9769    5.9005  -17.9321 H   0  0  0  0  0  0  0  0  0  0  0  0
   -9.3248    3.0107  -17.2348 H   0  0  0  0  0  0  0  0  0  0  0  0
   -7.5819    2.9085  -17.0588 H   0  0  0  0  0  0  0  0  0  0  0  0
   -8.2741    3.7216  -18.4799 H   0  0  0  0  0  0  0  0  0  0  0  0
  -10.5354    5.1831  -16.8532 H   0  0  0  0  0  0  0  0  0  0  0  0
   -9.6381    6.6643  -16.4554 H   0  0  0  0  0  0  0  0  0  0  0  0
   -9.5770    5.9736  -18.0929 H   0  0  0  0  0  0  0  0  0  0  0  0
   -9.6608    2.0178   -7.2975 H   0  0  0  0  0  0  0  0  0  0  0  0
   -9.8705    5.9741   -7.4784 H   0  0  0  0  0  0  0  0  0  0  0  0
  1  3  1  0  0  0  0
  1 15  1  0  0  0  0
  1 17  2  0  0  0  0
  2 16  1  0  0  0  0
  2 18  2  0  0  0  0
  2 20  1  0  0  0  0
  3 10  1  0  0  0  0
  4  6  1  0  0  0  0
  4 10  1  0  0  0  0
  5  7  1  0  0  0  0
  5 10  1  0  0  0  0
  6 16  1  0  0  0  0
  7 16  1  0  0  0  0
  8  9  1  0  0  0  0
  8 15  1  0  0  0  0
  9 10  1  0  0  0  0
  9 19  1  0  0  0  0
 11 14  1  0  0  0  0
 12 14  1  0  0  0  0
 13 14  1  0  0  0  0
 14 20  1  0  0  0  0
  3 21  1  0  0  0  0
  3 22  1  0  0  0  0
  4 23  1  0  0  0  0
  4 24  1  0  0  0  0
  5 25  1  0  0  0  0
  5 26  1  0  0  0  0
  6 27  1  0  0  0  0
  6 28  1  0  0  0  0
  7 29  1  0  0  0  0
  7 30  1  0  0  0  0
  8 31  1  0  0  0  0
  8 32  1  0  0  0  0
  9 33  1  0  0  0  0
 11 34  1  0  0  0  0
 11 35  1  0  0  0  0
 11 36  1  0  0  0  0
 12 37  1  0  0  0  0
 12 38  1  0  0  0  0
 12 39  1  0  0  0  0
 13 40  1  0  0  0  0
 13 41  1  0  0  0  0
 13 42  1  0  0  0  0
 15 43  1  0  0  0  0
 19 44  1  0  0  0  0
M  END
> <id>
EN300-26666146

> <smiles>
CC(C)(C)OC(=O)N1CCC2(CC1)CC(=O)NCC2O

> <IUPAC Name>
tert-butyl 7-hydroxy-10-oxo-3,9-diazaspiro[5.5]undecane-3-carboxylate

> <CAS>
2413904-23-9

> <URL>
https://www.enaminestore.com/catalog/EN300-26666146

> <ROCS_ShapeQuery>
_x0404_0B

> <ROCS_TanimotoCombo>
0.378 

> <ROCS_ShapeTanimoto>
0.302 

> <ROCS_ColorTanimoto>
0.076 

> <ROCS_RefTversky>
0.273 

> <ROCS_RefColorTversky>
0.081 

> <ROCS_RefTverskyCombo>
0.354 

> <ROCS_FitTversky>
1.541 

> <ROCS_FitColorTversky>
0.517 

> <ROCS_FitTverskyCombo>
2.057 

> <ROCS_ColorScore>
-5.879

> <ROCS_Overlap>
1820.566

> <ROCS_Rank>
299                 

$$$$
untitled-dbase-41847_86
  -OEChem-08212314543D

 45 47  0     0  0  0  0  0  0999 V2000
   -8.0576    5.1274  -17.4448 C   0  0  0  0  0  0  0  0  0  0  0  0
   -8.7126    5.1823   -9.0025 C   0  0  0  0  0  0  0  0  0  0  0  0
   -9.1398    6.0238  -16.7930 C   0  0  0  0  0  0  0  0  0  0  0  0
   -7.5887    4.5884  -16.0704 C   0  0  0  0  0  0  0  0  0  0  0  0
   -7.7870    4.7192  -12.6252 C   0  0  0  0  0  0  0  0  0  0  0  0
   -9.7294    6.3798  -12.3503 C   0  0  0  0  0  0  0  0  0  0  0  0
   -9.6183    4.9279  -14.4807 C   0  0  0  0  0  0  0  0  0  0  0  0
   -8.1590    6.5278  -14.4368 C   0  0  0  0  0  0  0  0  0  0  0  0
   -8.3251    4.2124  -11.2928 C   0  0  0  0  0  0  0  0  0  0  0  0
   -9.0333    6.5969  -11.0136 C   0  0  0  0  0  0  0  0  0  0  0  0
   -8.6275    5.5164  -15.4589 C   0  0  0  0  0  0  0  0  0  0  0  0
   -8.8139    5.6271  -13.3282 C   0  0  0  0  0  0  0  0  0  0  0  0
  -10.7686    3.7040   -8.3192 C   0  0  0  0  0  0  0  0  0  0  0  0
   -9.2300    1.7265   -8.1408 C   0  0  0  0  0  0  0  0  0  0  0  0
   -9.1948    3.5027   -6.3654 C   0  0  0  0  0  0  0  0  0  0  0  0
   -9.3975    3.2169   -7.8527 C   0  0  0  0  0  0  0  0  0  0  0  0
   -8.6786    5.3181  -10.3935 N   0  0  0  0  0  0  0  0  0  0  0  0
   -7.7104    4.9266  -18.5891 O   0  0  0  0  0  0  0  0  0  0  0  0
   -9.0044    6.0888   -8.2248 O   0  0  0  0  0  0  0  0  0  0  0  0
   -8.3897    3.9153   -8.5928 O   0  0  0  0  0  0  0  0  0  0  0  0
   -8.9950    7.0894  -16.9966 H   0  0  0  0  0  0  0  0  0  0  0  0
  -10.1593    5.7337  -17.0652 H   0  0  0  0  0  0  0  0  0  0  0  0
   -7.7673    3.5190  -15.9423 H   0  0  0  0  0  0  0  0  0  0  0  0
   -6.5462    4.8234  -15.8474 H   0  0  0  0  0  0  0  0  0  0  0  0
   -6.8527    5.2769  -12.4578 H   0  0  0  0  0  0  0  0  0  0  0  0
   -7.5255    3.8628  -13.2642 H   0  0  0  0  0  0  0  0  0  0  0  0
  -10.6681    5.8333  -12.1861 H   0  0  0  0  0  0  0  0  0  0  0  0
  -10.0078    7.3538  -12.7790 H   0  0  0  0  0  0  0  0  0  0  0  0
  -10.6602    5.2419  -14.5985 H   0  0  0  0  0  0  0  0  0  0  0  0
   -9.6012    3.8318  -14.4343 H   0  0  0  0  0  0  0  0  0  0  0  0
   -7.0690    6.6080  -14.3567 H   0  0  0  0  0  0  0  0  0  0  0  0
   -8.5663    7.5384  -14.5279 H   0  0  0  0  0  0  0  0  0  0  0  0
   -9.2388    3.6201  -11.4417 H   0  0  0  0  0  0  0  0  0  0  0  0
   -7.5873    3.5529  -10.8189 H   0  0  0  0  0  0  0  0  0  0  0  0
   -8.1534    7.2303  -11.1577 H   0  0  0  0  0  0  0  0  0  0  0  0
   -9.6954    7.1165  -10.3107 H   0  0  0  0  0  0  0  0  0  0  0  0
  -10.8927    4.7733   -8.1142 H   0  0  0  0  0  0  0  0  0  0  0  0
  -10.9128    3.5365   -9.3915 H   0  0  0  0  0  0  0  0  0  0  0  0
  -11.5711    3.1902   -7.7777 H   0  0  0  0  0  0  0  0  0  0  0  0
   -8.2476    1.3727   -7.8077 H   0  0  0  0  0  0  0  0  0  0  0  0
   -9.2803    1.5291   -9.2177 H   0  0  0  0  0  0  0  0  0  0  0  0
  -10.0007    1.1296   -7.6425 H   0  0  0  0  0  0  0  0  0  0  0  0
   -8.2114    3.1534   -6.0306 H   0  0  0  0  0  0  0  0  0  0  0  0
   -9.2748    4.5723   -6.1457 H   0  0  0  0  0  0  0  0  0  0  0  0
   -9.9355    2.9667   -5.7611 H   0  0  0  0  0  0  0  0  0  0  0  0
  1  3  1  0  0  0  0
  1  4  1  0  0  0  0
  1 18  2  0  0  0  0
  2 17  1  0  0  0  0
  2 19  2  0  0  0  0
  2 20  1  0  0  0  0
  3 11  1  0  0  0  0
  4 11  1  0  0  0  0
  5  9  1  0  0  0  0
  5 12  1  0  0  0  0
  6 10  1  0  0  0  0
  6 12  1  0  0  0  0
  7 11  1  0  0  0  0
  7 12  1  0  0  0  0
  8 11  1  0  0  0  0
  8 12  1  0  0  0  0
  9 17  1  0  0  0  0
 10 17  1  0  0  0  0
 13 16  1  0  0  0  0
 14 16  1  0  0  0  0
 15 16  1  0  0  0  0
 16 20  1  0  0  0  0
  3 21  1  0  0  0  0
  3 22  1  0  0  0  0
  4 23  1  0  0  0  0
  4 24  1  0  0  0  0
  5 25  1  0  0  0  0
  5 26  1  0  0  0  0
  6 27  1  0  0  0  0
  6 28  1  0  0  0  0
  7 29  1  0  0  0  0
  7 30  1  0  0  0  0
  8 31  1  0  0  0  0
  8 32  1  0  0  0  0
  9 33  1  0  0  0  0
  9 34  1  0  0  0  0
 10 35  1  0  0  0  0
 10 36  1  0  0  0  0
 13 37  1  0  0  0  0
 13 38  1  0  0  0  0
 13 39  1  0  0  0  0
 14 40  1  0  0  0  0
 14 41  1  0  0  0  0
 14 42  1  0  0  0  0
 15 43  1  0  0  0  0
 15 44  1  0  0  0  0
 15 45  1  0  0  0  0
M  END
> <id>
EN300-37464894

> <smiles>
CC(C)(C)OC(=O)N1CCC2(CC3(CC(=O)C3)C2)CC1

> <IUPAC Name>
tert-butyl 2-oxo-9-azadispiro[3.1.5^{6}.1^{4}]dodecane-9-carboxylate

> <CAS>
2640660-85-9

> <Purity>
95

> <URL>
https://www.enaminestore.com/catalog/EN300-37464894

> <ROCS_ShapeQuery>
_x0404_0B

> <ROCS_TanimotoCombo>
0.377 

> <ROCS_ShapeTanimoto>
0.332 

> <ROCS_ColorTanimoto>
0.045 

> <ROCS_RefTversky>
0.294 

> <ROCS_RefColorTversky>
0.049 

> <ROCS_RefTverskyCombo>
0.343 

> <ROCS_FitTversky>
1.648 

> <ROCS_FitColorTversky>
0.372 

> <ROCS_FitTverskyCombo>
2.020 

> <ROCS_ColorScore>
-3.538

> <ROCS_Overlap>
1958.968

> <ROCS_Rank>
300                 

$$$$
untitled-dbase-17697_94
  -OEChem-08212314543D

 37 38  0     0  0  0  0  0  0999 V2000
   -9.3917    2.9071   -8.6487 C   0  0  0  0  0  0  0  0  0  0  0  0
   -9.2025    5.2464   -7.9994 C   0  0  0  0  0  0  0  0  0  0  0  0
   -8.8988    6.9409   -9.5243 C   0  0  0  0  0  0  0  0  0  0  0  0
   -9.2122    4.2822   -8.9917 C   0  0  0  0  0  0  0  0  0  0  0  0
   -8.8768    6.0633  -10.6051 C   0  0  0  0  0  0  0  0  0  0  0  0
   -9.0327    4.7067  -10.3047 C   0  0  0  0  0  0  0  0  0  0  0  0
   -8.2898    5.8199  -14.3578 C   0  0  0  0  0  0  0  0  0  0  0  0
   -8.7620    6.5958  -12.0092 C   0  0  0  0  0  0  0  0  0  0  0  0
   -7.1160    4.7524  -12.4596 C   0  0  0  0  0  0  0  0  0  0  0  0
   -7.8161    3.5151  -11.8981 C   0  0  0  0  0  0  0  0  0  0  0  0
   -7.3337    5.5856  -17.0443 C   0  0  0  0  0  0  0  0  0  0  0  0
   -8.1257    3.2050  -16.9227 C   0  0  0  0  0  0  0  0  0  0  0  0
   -9.7758    5.0850  -16.6974 C   0  0  0  0  0  0  0  0  0  0  0  0
   -8.3451    4.6285  -16.4152 C   0  0  0  0  0  0  0  0  0  0  0  0
   -9.5376    1.7900   -8.3702 N   0  0  0  0  0  0  0  0  0  0  0  0
   -9.0478    6.5680   -8.2314 N   0  0  0  0  0  0  0  0  0  0  0  0
   -8.0795    5.7208  -12.9772 N   0  0  0  0  0  0  0  0  0  0  0  0
   -8.5805    6.8621  -14.9420 O   0  0  0  0  0  0  0  0  0  0  0  0
   -9.0929    3.7647  -11.2950 O   0  0  0  0  0  0  0  0  0  0  0  0
   -8.1413    4.6173  -14.9976 O   0  0  0  0  0  0  0  0  0  0  0  0
   -9.3240    4.9863   -6.9518 H   0  0  0  0  0  0  0  0  0  0  0  0
   -8.8008    8.0132   -9.6713 H   0  0  0  0  0  0  0  0  0  0  0  0
   -9.7797    6.8188  -12.4035 H   0  0  0  0  0  0  0  0  0  0  0  0
   -8.2567    7.5875  -11.9980 H   0  0  0  0  0  0  0  0  0  0  0  0
   -6.5148    5.2153  -11.6682 H   0  0  0  0  0  0  0  0  0  0  0  0
   -6.4398    4.4800  -13.2801 H   0  0  0  0  0  0  0  0  0  0  0  0
   -8.0093    2.8168  -12.7370 H   0  0  0  0  0  0  0  0  0  0  0  0
   -7.1503    2.9454  -11.2099 H   0  0  0  0  0  0  0  0  0  0  0  0
   -7.4879    6.6085  -16.6825 H   0  0  0  0  0  0  0  0  0  0  0  0
   -6.3039    5.2889  -16.8199 H   0  0  0  0  0  0  0  0  0  0  0  0
   -7.4541    5.6214  -18.1331 H   0  0  0  0  0  0  0  0  0  0  0  0
   -8.8492    2.5148  -16.4739 H   0  0  0  0  0  0  0  0  0  0  0  0
   -7.1325    2.8383  -16.6392 H   0  0  0  0  0  0  0  0  0  0  0  0
   -8.2193    3.1455  -18.0119 H   0  0  0  0  0  0  0  0  0  0  0  0
  -10.5014    4.3986  -16.2462 H   0  0  0  0  0  0  0  0  0  0  0  0
   -9.9625    6.0908  -16.3072 H   0  0  0  0  0  0  0  0  0  0  0  0
   -9.9792    5.0859  -17.7743 H   0  0  0  0  0  0  0  0  0  0  0  0
  1  4  1  0  0  0  0
  1 15  3  0  0  0  0
  2  4  1  0  0  0  0
  2 16  2  0  0  0  0
  3  5  2  0  0  0  0
  3 16  1  0  0  0  0
  4  6  2  0  0  0  0
  5  6  1  0  0  0  0
  5  8  1  0  0  0  0
  6 19  1  0  0  0  0
  7 17  1  0  0  0  0
  7 18  2  0  0  0  0
  7 20  1  0  0  0  0
  8 17  1  0  0  0  0
  9 10  1  0  0  0  0
  9 17  1  0  0  0  0
 10 19  1  0  0  0  0
 11 14  1  0  0  0  0
 12 14  1  0  0  0  0
 13 14  1  0  0  0  0
 14 20  1  0  0  0  0
  2 21  1  0  0  0  0
  3 22  1  0  0  0  0
  8 23  1  0  0  0  0
  8 24  1  0  0  0  0
  9 25  1  0  0  0  0
  9 26  1  0  0  0  0
 10 27  1  0  0  0  0
 10 28  1  0  0  0  0
 11 29  1  0  0  0  0
 11 30  1  0  0  0  0
 11 31  1  0  0  0  0
 12 32  1  0  0  0  0
 12 33  1  0  0  0  0
 12 34  1  0  0  0  0
 13 35  1  0  0  0  0
 13 36  1  0  0  0  0
 13 37  1  0  0  0  0
M  END
> <id>
EN300-33312727

> <smiles>
CC(C)(C)OC(=O)N1CCOC=2C(C#N)=CN=CC2C1

> <MDLNUMBER>
MFCD34562097

> <IUPAC Name>
tert-butyl 9-cyano-2H,3H,4H,5H-pyrido[3,4-f][1,4]oxazepine-4-carboxylate

> <CAS>
2252274-85-2

> <Purity>
95

> <URL>
https://www.enaminestore.com/catalog/EN300-33312727

> <ROCS_ShapeQuery>
_x0404_0B

> <ROCS_TanimotoCombo>
0.377 

> <ROCS_ShapeTanimoto>
0.307 

> <ROCS_ColorTanimoto>
0.070 

> <ROCS_RefTversky>
0.277 

> <ROCS_RefColorTversky>
0.075 

> <ROCS_RefTverskyCombo>
0.353 

> <ROCS_FitTversky>
1.536 

> <ROCS_FitColorTversky>
0.521 

> <ROCS_FitTverskyCombo>
2.057 

> <ROCS_ColorScore>
-5.434

> <ROCS_Overlap>
1849.461

> <ROCS_Rank>
301                 

$$$$
untitled-dbase-49332_7
  -OEChem-08212314543D

 41 44  0     1  0  0  0  0  0999 V2000
   -8.8349    4.5801  -13.8062 C   0  0  0  0  0  0  0  0  0  0  0  0
   -7.9252    6.9225  -13.4479 C   0  0  0  0  0  0  0  0  0  0  0  0
   -8.5043    2.9562  -10.3287 C   0  0  0  0  0  0  0  0  0  0  0  0
   -9.6995    4.5935   -8.8013 C   0  0  0  0  0  0  0  0  0  0  0  0
   -7.9049    4.6936  -15.0091 C   0  0  0  0  0  0  0  0  0  0  0  0
   -8.4235    7.0444  -14.8811 C   0  0  0  0  0  0  0  0  0  0  0  0
   -9.3730    1.9917   -9.5288 C   0  0  0  0  0  0  0  0  0  0  0  0
   -9.1402    3.6237   -7.7698 C   0  0  0  0  0  0  0  0  0  0  0  0
   -8.5014    5.6614  -12.7681 C   0  0  0  0  0  0  0  0  0  0  0  0
   -9.0185    4.3946  -10.1728 C   0  0  0  0  0  0  0  0  0  0  0  0
   -9.6259    5.9331  -11.7518 C   0  0  1  0  0  0  0  0  0  0  0  0
   -7.9913    5.4793  -10.5465 C   0  0  1  0  0  0  0  0  0  0  0  0
  -10.8247    6.7311  -12.2063 C   0  0  0  0  0  0  0  0  0  0  0  0
   -6.8706    5.7690   -9.5767 C   0  0  0  0  0  0  0  0  0  0  0  0
   -8.0349    5.9384  -15.6955 O   0  0  0  0  0  0  0  0  0  0  0  0
   -9.3510    2.2579   -8.1265 O   0  0  0  0  0  0  0  0  0  0  0  0
   -7.4676    5.1689  -11.8614 O   0  0  0  0  0  0  0  0  0  0  0  0
  -10.0364    4.6642  -11.1852 O   0  0  0  0  0  0  0  0  0  0  0  0
   -8.8727    6.5995  -10.7259 O   0  0  0  0  0  0  0  0  0  0  0  0
   -9.8663    4.7169  -14.1420 H   0  0  0  0  0  0  0  0  0  0  0  0
   -8.7399    3.5771  -13.3890 H   0  0  0  0  0  0  0  0  0  0  0  0
   -6.8302    6.9042  -13.4563 H   0  0  0  0  0  0  0  0  0  0  0  0
   -8.2490    7.8093  -12.8915 H   0  0  0  0  0  0  0  0  0  0  0  0
   -7.4788    2.9035   -9.9533 H   0  0  0  0  0  0  0  0  0  0  0  0
   -8.5047    2.6381  -11.3717 H   0  0  0  0  0  0  0  0  0  0  0  0
  -10.7827    4.4478   -8.8706 H   0  0  0  0  0  0  0  0  0  0  0  0
   -9.5126    5.6157   -8.4532 H   0  0  0  0  0  0  0  0  0  0  0  0
   -6.8492    4.5499  -14.7157 H   0  0  0  0  0  0  0  0  0  0  0  0
   -8.1354    3.8932  -15.7319 H   0  0  0  0  0  0  0  0  0  0  0  0
   -9.5259    7.0873  -14.8888 H   0  0  0  0  0  0  0  0  0  0  0  0
   -8.0756    7.9818  -15.3528 H   0  0  0  0  0  0  0  0  0  0  0  0
  -10.4195    2.0045   -9.8838 H   0  0  0  0  0  0  0  0  0  0  0  0
   -9.0111    0.9601   -9.6740 H   0  0  0  0  0  0  0  0  0  0  0  0
   -8.0518    3.7736   -7.6707 H   0  0  0  0  0  0  0  0  0  0  0  0
   -9.5688    3.8068   -6.7673 H   0  0  0  0  0  0  0  0  0  0  0  0
  -11.5434    6.8492  -11.3887 H   0  0  0  0  0  0  0  0  0  0  0  0
  -11.3310    6.2293  -13.0373 H   0  0  0  0  0  0  0  0  0  0  0  0
  -10.5211    7.7281  -12.5420 H   0  0  0  0  0  0  0  0  0  0  0  0
   -6.2169    6.5569   -9.9650 H   0  0  0  0  0  0  0  0  0  0  0  0
   -6.2640    4.8733   -9.4078 H   0  0  0  0  0  0  0  0  0  0  0  0
   -7.2695    6.0995   -8.6120 H   0  0  0  0  0  0  0  0  0  0  0  0
  1  5  1  0  0  0  0
  1  9  1  0  0  0  0
  2  6  1  0  0  0  0
  2  9  1  0  0  0  0
  3  7  1  0  0  0  0
  3 10  1  0  0  0  0
  4  8  1  0  0  0  0
  4 10  1  0  0  0  0
  5 15  1  0  0  0  0
  6 15  1  0  0  0  0
  7 16  1  0  0  0  0
  8 16  1  0  0  0  0
  9 11  1  0  0  0  0
  9 17  1  0  0  0  0
 10 12  1  0  0  0  0
 10 18  1  0  0  0  0
 11 13  1  0  0  0  0
 11 18  1  0  0  0  0
 11 19  1  0  0  0  0
 12 14  1  0  0  0  0
 12 17  1  0  0  0  0
 12 19  1  0  0  0  0
  1 20  1  0  0  0  0
  1 21  1  0  0  0  0
  2 22  1  0  0  0  0
  2 23  1  0  0  0  0
  3 24  1  0  0  0  0
  3 25  1  0  0  0  0
  4 26  1  0  0  0  0
  4 27  1  0  0  0  0
  5 28  1  0  0  0  0
  5 29  1  0  0  0  0
  6 30  1  0  0  0  0
  6 31  1  0  0  0  0
  7 32  1  0  0  0  0
  7 33  1  0  0  0  0
  8 34  1  0  0  0  0
  8 35  1  0  0  0  0
 13 36  1  0  0  0  0
 13 37  1  0  0  0  0
 13 38  1  0  0  0  0
 14 39  1  0  0  0  0
 14 40  1  0  0  0  0
 14 41  1  0  0  0  0
M  END
> <id>
EN300-39855654

> <smiles>
CC1(OC2(C)OC31CCOCC3)OC42CCOCC4

> <IUPAC Name>
1',4'-dimethyldispiro[oxane-4,2'-[3,6,7]trioxabicyclo[2.2.1]heptane-5',4''-oxane]

> <Purity>
95

> <URL>
https://www.enaminestore.com/catalog/EN300-39855654

> <ROCS_ShapeQuery>
_x0404_0B

> <ROCS_TanimotoCombo>
0.377 

> <ROCS_ShapeTanimoto>
0.268 

> <ROCS_ColorTanimoto>
0.110 

> <ROCS_RefTversky>
0.249 

> <ROCS_RefColorTversky>
0.121 

> <ROCS_RefTverskyCombo>
0.370 

> <ROCS_FitTversky>
1.391 

> <ROCS_FitColorTversky>
0.530 

> <ROCS_FitTverskyCombo>
1.922 

> <ROCS_ColorScore>
-8.797

> <ROCS_Overlap>
1659.801

> <ROCS_Rank>
302                 

$$$$
untitled-dbase-52271_14
  -OEChem-08212314543D

 45 47  0     0  0  0  0  0  0999 V2000
   -8.9540    7.5744  -11.8901 C   0  0  0  0  0  0  0  0  0  0  0  0
   -9.0850    8.2607  -10.6824 C   0  0  0  0  0  0  0  0  0  0  0  0
   -8.9893    6.1725   -9.4509 C   0  0  0  0  0  0  0  0  0  0  0  0
   -8.8562    5.4820  -10.6503 C   0  0  0  0  0  0  0  0  0  0  0  0
   -8.8378    6.1899  -11.8596 C   0  0  0  0  0  0  0  0  0  0  0  0
   -9.1013    7.5646   -9.4704 C   0  0  0  0  0  0  0  0  0  0  0  0
   -8.6501    5.6401  -14.2888 C   0  0  0  0  0  0  0  0  0  0  0  0
   -7.5831    3.3064  -10.1390 C   0  0  0  0  0  0  0  0  0  0  0  0
  -10.0849    3.2577  -10.5606 C   0  0  0  0  0  0  0  0  0  0  0  0
   -7.8837    2.9414   -8.6838 C   0  0  0  0  0  0  0  0  0  0  0  0
  -10.2617    2.9277   -9.0776 C   0  0  0  0  0  0  0  0  0  0  0  0
   -8.4952    3.9473  -12.4138 C   0  0  0  0  0  0  0  0  0  0  0  0
   -8.7574    3.9825  -10.8782 C   0  0  0  0  0  0  0  0  0  0  0  0
   -7.6712    5.1516  -16.9354 C   0  0  0  0  0  0  0  0  0  0  0  0
   -9.5975    3.5547  -17.1554 C   0  0  0  0  0  0  0  0  0  0  0  0
  -10.0360    5.9985  -16.7763 C   0  0  0  0  0  0  0  0  0  0  0  0
   -9.0951    4.8307  -16.4834 C   0  0  0  0  0  0  0  0  0  0  0  0
   -9.1229    2.1772   -8.5499 N   0  0  0  0  0  0  0  0  0  0  0  0
   -8.6816    5.3069  -12.9408 N   0  0  0  0  0  0  0  0  0  0  0  0
   -8.2901    6.7162  -14.7573 O   0  0  0  0  0  0  0  0  0  0  0  0
   -9.0831    4.5981  -15.0701 O   0  0  0  0  0  0  0  0  0  0  0  0
   -9.2252    8.2376   -8.3173 F   0  0  0  0  0  0  0  0  0  0  0  0
   -8.9469    8.1400  -12.8143 H   0  0  0  0  0  0  0  0  0  0  0  0
   -9.1752    9.3427  -10.6833 H   0  0  0  0  0  0  0  0  0  0  0  0
   -9.0070    5.6436   -8.5000 H   0  0  0  0  0  0  0  0  0  0  0  0
   -6.6991    3.9745  -10.1521 H   0  0  0  0  0  0  0  0  0  0  0  0
   -7.2564    2.3985  -10.6827 H   0  0  0  0  0  0  0  0  0  0  0  0
  -10.1693    2.3306  -11.1546 H   0  0  0  0  0  0  0  0  0  0  0  0
  -10.9375    3.8833  -10.8808 H   0  0  0  0  0  0  0  0  0  0  0  0
   -7.0461    2.3821   -8.2419 H   0  0  0  0  0  0  0  0  0  0  0  0
   -7.9777    3.8668   -8.0984 H   0  0  0  0  0  0  0  0  0  0  0  0
  -10.3557    3.8643   -8.5143 H   0  0  0  0  0  0  0  0  0  0  0  0
  -11.1918    2.3688   -8.9110 H   0  0  0  0  0  0  0  0  0  0  0  0
   -7.4757    3.6265  -12.6638 H   0  0  0  0  0  0  0  0  0  0  0  0
   -9.1864    3.2824  -12.9478 H   0  0  0  0  0  0  0  0  0  0  0  0
   -7.3069    6.0669  -16.4553 H   0  0  0  0  0  0  0  0  0  0  0  0
   -6.9796    4.3363  -16.6995 H   0  0  0  0  0  0  0  0  0  0  0  0
   -7.6356    5.3340  -18.0156 H   0  0  0  0  0  0  0  0  0  0  0  0
  -10.6188    3.3206  -16.8339 H   0  0  0  0  0  0  0  0  0  0  0  0
   -8.9799    2.6949  -16.8715 H   0  0  0  0  0  0  0  0  0  0  0  0
   -9.5891    3.6425  -18.2466 H   0  0  0  0  0  0  0  0  0  0  0  0
  -11.0574    5.7685  -16.4521 H   0  0  0  0  0  0  0  0  0  0  0  0
   -9.7113    6.9143  -16.2718 H   0  0  0  0  0  0  0  0  0  0  0  0
  -10.0902    6.1945  -17.8532 H   0  0  0  0  0  0  0  0  0  0  0  0
   -9.0339    1.2999   -9.0575 H   0  0  0  0  0  0  0  0  0  0  0  0
  1  2  1  0  0  0  0
  1  5  2  0  0  0  0
  2  6  2  0  0  0  0
  3  4  2  0  0  0  0
  3  6  1  0  0  0  0
  4  5  1  0  0  0  0
  4 13  1  0  0  0  0
  5 19  1  0  0  0  0
  6 22  1  0  0  0  0
  7 19  1  0  0  0  0
  7 20  2  0  0  0  0
  7 21  1  0  0  0  0
  8 10  1  0  0  0  0
  8 13  1  0  0  0  0
  9 11  1  0  0  0  0
  9 13  1  0  0  0  0
 10 18  1  0  0  0  0
 11 18  1  0  0  0  0
 12 13  1  0  0  0  0
 12 19  1  0  0  0  0
 14 17  1  0  0  0  0
 15 17  1  0  0  0  0
 16 17  1  0  0  0  0
 17 21  1  0  0  0  0
  1 23  1  0  0  0  0
  2 24  1  0  0  0  0
  3 25  1  0  0  0  0
  8 26  1  0  0  0  0
  8 27  1  0  0  0  0
  9 28  1  0  0  0  0
  9 29  1  0  0  0  0
 10 30  1  0  0  0  0
 10 31  1  0  0  0  0
 11 32  1  0  0  0  0
 11 33  1  0  0  0  0
 12 34  1  0  0  0  0
 12 35  1  0  0  0  0
 14 36  1  0  0  0  0
 14 37  1  0  0  0  0
 14 38  1  0  0  0  0
 15 39  1  0  0  0  0
 15 40  1  0  0  0  0
 15 41  1  0  0  0  0
 16 42  1  0  0  0  0
 16 43  1  0  0  0  0
 16 44  1  0  0  0  0
 18 45  1  0  0  0  0
M  END
> <id>
EN300-18800220

> <smiles>
Cl.CC(C)(C)OC(=O)N1CC2(CCNCC2)C=3C=C(F)C=CC13

> <MDLNUMBER>
MFCD15071698

> <IUPAC Name>
tert-butyl 5-fluoro-1,2-dihydrospiro[indole-3,4'-piperidine]-1-carboxylate hydrochloride

> <CAS>
858351-44-7

> <Purity>
95

> <URL>
https://www.enaminestore.com/catalog/EN300-18800220

> <Saltdate>
Cl

> <ROCS_ShapeQuery>
_x0404_0B

> <ROCS_TanimotoCombo>
0.377 

> <ROCS_ShapeTanimoto>
0.298 

> <ROCS_ColorTanimoto>
0.079 

> <ROCS_RefTversky>
0.274 

> <ROCS_RefColorTversky>
0.084 

> <ROCS_RefTverskyCombo>
0.358 

> <ROCS_FitTversky>
1.415 

> <ROCS_FitColorTversky>
0.577 

> <ROCS_FitTverskyCombo>
1.992 

> <ROCS_ColorScore>
-6.030

> <ROCS_Overlap>
1831.525

> <ROCS_Rank>
303                 

$$$$
untitled-dbase-51975_14
  -OEChem-08212314543D

 45 47  0     0  0  0  0  0  0999 V2000
   -8.9540    7.5744  -11.8901 C   0  0  0  0  0  0  0  0  0  0  0  0
   -9.0850    8.2607  -10.6824 C   0  0  0  0  0  0  0  0  0  0  0  0
   -8.9893    6.1725   -9.4509 C   0  0  0  0  0  0  0  0  0  0  0  0
   -8.8562    5.4820  -10.6503 C   0  0  0  0  0  0  0  0  0  0  0  0
   -8.8378    6.1899  -11.8596 C   0  0  0  0  0  0  0  0  0  0  0  0
   -9.1013    7.5646   -9.4704 C   0  0  0  0  0  0  0  0  0  0  0  0
   -8.6501    5.6401  -14.2888 C   0  0  0  0  0  0  0  0  0  0  0  0
   -7.5831    3.3064  -10.1390 C   0  0  0  0  0  0  0  0  0  0  0  0
  -10.0849    3.2577  -10.5606 C   0  0  0  0  0  0  0  0  0  0  0  0
   -7.8837    2.9414   -8.6838 C   0  0  0  0  0  0  0  0  0  0  0  0
  -10.2617    2.9277   -9.0776 C   0  0  0  0  0  0  0  0  0  0  0  0
   -8.4952    3.9473  -12.4138 C   0  0  0  0  0  0  0  0  0  0  0  0
   -8.7574    3.9825  -10.8782 C   0  0  0  0  0  0  0  0  0  0  0  0
   -7.6712    5.1516  -16.9354 C   0  0  0  0  0  0  0  0  0  0  0  0
   -9.5975    3.5547  -17.1554 C   0  0  0  0  0  0  0  0  0  0  0  0
  -10.0360    5.9985  -16.7763 C   0  0  0  0  0  0  0  0  0  0  0  0
   -9.0951    4.8307  -16.4834 C   0  0  0  0  0  0  0  0  0  0  0  0
   -9.1229    2.1772   -8.5499 N   0  0  0  0  0  0  0  0  0  0  0  0
   -8.6816    5.3069  -12.9408 N   0  0  0  0  0  0  0  0  0  0  0  0
   -8.2901    6.7162  -14.7573 O   0  0  0  0  0  0  0  0  0  0  0  0
   -9.0831    4.5981  -15.0701 O   0  0  0  0  0  0  0  0  0  0  0  0
   -9.2252    8.2376   -8.3173 F   0  0  0  0  0  0  0  0  0  0  0  0
   -8.9469    8.1400  -12.8143 H   0  0  0  0  0  0  0  0  0  0  0  0
   -9.1752    9.3427  -10.6833 H   0  0  0  0  0  0  0  0  0  0  0  0
   -9.0070    5.6436   -8.5000 H   0  0  0  0  0  0  0  0  0  0  0  0
   -6.6991    3.9745  -10.1521 H   0  0  0  0  0  0  0  0  0  0  0  0
   -7.2564    2.3985  -10.6827 H   0  0  0  0  0  0  0  0  0  0  0  0
  -10.1693    2.3306  -11.1546 H   0  0  0  0  0  0  0  0  0  0  0  0
  -10.9375    3.8833  -10.8808 H   0  0  0  0  0  0  0  0  0  0  0  0
   -7.0461    2.3821   -8.2419 H   0  0  0  0  0  0  0  0  0  0  0  0
   -7.9777    3.8668   -8.0984 H   0  0  0  0  0  0  0  0  0  0  0  0
  -10.3557    3.8643   -8.5143 H   0  0  0  0  0  0  0  0  0  0  0  0
  -11.1918    2.3688   -8.9110 H   0  0  0  0  0  0  0  0  0  0  0  0
   -7.4757    3.6265  -12.6638 H   0  0  0  0  0  0  0  0  0  0  0  0
   -9.1864    3.2824  -12.9478 H   0  0  0  0  0  0  0  0  0  0  0  0
   -7.3069    6.0669  -16.4553 H   0  0  0  0  0  0  0  0  0  0  0  0
   -6.9796    4.3363  -16.6995 H   0  0  0  0  0  0  0  0  0  0  0  0
   -7.6356    5.3340  -18.0156 H   0  0  0  0  0  0  0  0  0  0  0  0
  -10.6188    3.3206  -16.8339 H   0  0  0  0  0  0  0  0  0  0  0  0
   -8.9799    2.6949  -16.8715 H   0  0  0  0  0  0  0  0  0  0  0  0
   -9.5891    3.6425  -18.2466 H   0  0  0  0  0  0  0  0  0  0  0  0
  -11.0574    5.7685  -16.4521 H   0  0  0  0  0  0  0  0  0  0  0  0
   -9.7113    6.9143  -16.2718 H   0  0  0  0  0  0  0  0  0  0  0  0
  -10.0902    6.1945  -17.8532 H   0  0  0  0  0  0  0  0  0  0  0  0
   -9.0339    1.2999   -9.0575 H   0  0  0  0  0  0  0  0  0  0  0  0
  1  2  1  0  0  0  0
  1  5  2  0  0  0  0
  2  6  2  0  0  0  0
  3  4  2  0  0  0  0
  3  6  1  0  0  0  0
  4  5  1  0  0  0  0
  4 13  1  0  0  0  0
  5 19  1  0  0  0  0
  6 22  1  0  0  0  0
  7 19  1  0  0  0  0
  7 20  2  0  0  0  0
  7 21  1  0  0  0  0
  8 10  1  0  0  0  0
  8 13  1  0  0  0  0
  9 11  1  0  0  0  0
  9 13  1  0  0  0  0
 10 18  1  0  0  0  0
 11 18  1  0  0  0  0
 12 13  1  0  0  0  0
 12 19  1  0  0  0  0
 14 17  1  0  0  0  0
 15 17  1  0  0  0  0
 16 17  1  0  0  0  0
 17 21  1  0  0  0  0
  1 23  1  0  0  0  0
  2 24  1  0  0  0  0
  3 25  1  0  0  0  0
  8 26  1  0  0  0  0
  8 27  1  0  0  0  0
  9 28  1  0  0  0  0
  9 29  1  0  0  0  0
 10 30  1  0  0  0  0
 10 31  1  0  0  0  0
 11 32  1  0  0  0  0
 11 33  1  0  0  0  0
 12 34  1  0  0  0  0
 12 35  1  0  0  0  0
 14 36  1  0  0  0  0
 14 37  1  0  0  0  0
 14 38  1  0  0  0  0
 15 39  1  0  0  0  0
 15 40  1  0  0  0  0
 15 41  1  0  0  0  0
 16 42  1  0  0  0  0
 16 43  1  0  0  0  0
 16 44  1  0  0  0  0
 18 45  1  0  0  0  0
M  END
> <id>
EN300-268948

> <smiles>
CC(C)(C)OC(=O)N1CC2(CCNCC2)C=3C=C(F)C=CC13

> <MDLNUMBER>
MFCD12198575

> <IUPAC Name>
tert-butyl 5-fluoro-1,2-dihydrospiro[indole-3,4'-piperidine]-1-carboxylate

> <URL>
https://www.enaminestore.com/catalog/EN300-268948

> <ROCS_ShapeQuery>
_x0404_0B

> <ROCS_TanimotoCombo>
0.377 

> <ROCS_ShapeTanimoto>
0.298 

> <ROCS_ColorTanimoto>
0.079 

> <ROCS_RefTversky>
0.274 

> <ROCS_RefColorTversky>
0.084 

> <ROCS_RefTverskyCombo>
0.358 

> <ROCS_FitTversky>
1.415 

> <ROCS_FitColorTversky>
0.577 

> <ROCS_FitTverskyCombo>
1.992 

> <ROCS_ColorScore>
-6.030

> <ROCS_Overlap>
1831.525

> <ROCS_Rank>
304                 

$$$$
untitled-dbase-14872_3
  -OEChem-08212314543D

 36 37  0     0  0  0  0  0  0999 V2000
   -9.3235    3.1806   -8.7655 C   0  0  0  0  0  0  0  0  0  0  0  0
   -9.0595    4.4214   -9.4045 C   0  0  0  0  0  0  0  0  0  0  0  0
   -9.1179    5.6940   -8.8851 C   0  0  0  0  0  0  0  0  0  0  0  0
   -8.5149    5.9463  -10.9214 C   0  0  0  0  0  0  0  0  0  0  0  0
   -8.3430    5.6989  -14.6207 C   0  0  0  0  0  0  0  0  0  0  0  0
   -8.0774    6.4852  -12.2382 C   0  0  0  0  0  0  0  0  0  0  0  0
   -8.4808    3.5824  -11.7051 C   0  0  0  0  0  0  0  0  0  0  0  0
   -7.6301    4.1025  -12.8579 C   0  0  0  0  0  0  0  0  0  0  0  0
   -7.5259    5.7201  -17.3633 C   0  0  0  0  0  0  0  0  0  0  0  0
   -8.4389    3.3822  -17.4613 C   0  0  0  0  0  0  0  0  0  0  0  0
   -9.9729    5.3033  -16.9472 C   0  0  0  0  0  0  0  0  0  0  0  0
   -8.5575    4.7491  -16.7908 C   0  0  0  0  0  0  0  0  0  0  0  0
   -9.5391    2.1668   -8.2435 N   0  0  0  0  0  0  0  0  0  0  0  0
   -8.7792    6.6342   -9.8283 N   0  0  0  0  0  0  0  0  0  0  0  0
   -8.6746    4.6022  -10.6970 N   0  0  0  0  0  0  0  0  0  0  0  0
   -8.0751    5.4377  -13.2722 N   0  0  0  0  0  0  0  0  0  0  0  0
   -9.4560    6.0298   -7.6199 N   0  0  0  0  0  0  0  0  0  0  0  0
   -8.6038    6.8118  -15.0737 O   0  0  0  0  0  0  0  0  0  0  0  0
   -8.2895    4.5700  -15.3954 O   0  0  0  0  0  0  0  0  0  0  0  0
   -8.7711    7.2650  -12.5708 H   0  0  0  0  0  0  0  0  0  0  0  0
   -7.0840    6.9324  -12.1418 H   0  0  0  0  0  0  0  0  0  0  0  0
   -9.4614    3.2650  -12.0738 H   0  0  0  0  0  0  0  0  0  0  0  0
   -7.9920    2.7355  -11.2106 H   0  0  0  0  0  0  0  0  0  0  0  0
   -6.5734    4.1076  -12.5733 H   0  0  0  0  0  0  0  0  0  0  0  0
   -7.7310    3.4501  -13.7341 H   0  0  0  0  0  0  0  0  0  0  0  0
   -7.6078    6.7026  -16.8847 H   0  0  0  0  0  0  0  0  0  0  0  0
   -6.5045    5.3506  -17.2262 H   0  0  0  0  0  0  0  0  0  0  0  0
   -7.6942    5.8830  -18.4340 H   0  0  0  0  0  0  0  0  0  0  0  0
   -9.1772    2.6823  -17.0536 H   0  0  0  0  0  0  0  0  0  0  0  0
   -7.4549    2.9383  -17.2712 H   0  0  0  0  0  0  0  0  0  0  0  0
   -8.5857    3.4491  -18.5441 H   0  0  0  0  0  0  0  0  0  0  0  0
  -10.7130    4.6069  -16.5366 H   0  0  0  0  0  0  0  0  0  0  0  0
  -10.0869    6.2671  -16.4406 H   0  0  0  0  0  0  0  0  0  0  0  0
  -10.2254    5.4342  -18.0057 H   0  0  0  0  0  0  0  0  0  0  0  0
   -9.7531    5.3266   -6.9288 H   0  0  0  0  0  0  0  0  0  0  0  0
   -9.5235    7.0110   -7.3147 H   0  0  0  0  0  0  0  0  0  0  0  0
  1  2  1  0  0  0  0
  1 13  3  0  0  0  0
  2  3  2  0  0  0  0
  2 15  1  0  0  0  0
  3 14  1  0  0  0  0
  3 17  1  0  0  0  0
  4  6  1  0  0  0  0
  4 14  2  0  0  0  0
  4 15  1  0  0  0  0
  5 16  1  0  0  0  0
  5 18  2  0  0  0  0
  5 19  1  0  0  0  0
  6 16  1  0  0  0  0
  7  8  1  0  0  0  0
  7 15  1  0  0  0  0
  8 16  1  0  0  0  0
  9 12  1  0  0  0  0
 10 12  1  0  0  0  0
 11 12  1  0  0  0  0
 12 19  1  0  0  0  0
  6 20  1  0  0  0  0
  6 21  1  0  0  0  0
  7 22  1  0  0  0  0
  7 23  1  0  0  0  0
  8 24  1  0  0  0  0
  8 25  1  0  0  0  0
  9 26  1  0  0  0  0
  9 27  1  0  0  0  0
  9 28  1  0  0  0  0
 10 29  1  0  0  0  0
 10 30  1  0  0  0  0
 10 31  1  0  0  0  0
 11 32  1  0  0  0  0
 11 33  1  0  0  0  0
 11 34  1  0  0  0  0
 17 35  1  0  0  0  0
 17 36  1  0  0  0  0
M  END
> <id>
EN300-1129417

> <smiles>
CC(C)(C)OC(=O)N1CCN2C(C#N)=C(N)N=C2C1

> <IUPAC Name>
tert-butyl 2-amino-3-cyano-5H,6H,7H,8H-imidazo[1,2-a]pyrazine-7-carboxylate

> <CAS>
2138354-65-9

> <URL>
https://www.enaminestore.com/catalog/EN300-1129417

> <ROCS_ShapeQuery>
_x0404_0B

> <ROCS_TanimotoCombo>
0.377 

> <ROCS_ShapeTanimoto>
0.312 

> <ROCS_ColorTanimoto>
0.065 

> <ROCS_RefTversky>
0.280 

> <ROCS_RefColorTversky>
0.071 

> <ROCS_RefTverskyCombo>
0.351 

> <ROCS_FitTversky>
1.597 

> <ROCS_FitColorTversky>
0.417 

> <ROCS_FitTverskyCombo>
2.014 

> <ROCS_ColorScore>
-5.157

> <ROCS_Overlap>
1864.284

> <ROCS_Rank>
305                 

$$$$
untitled-dbase-39468_0
  -OEChem-08212314543D

 33 37  0     1  0  0  0  0  0999 V2000
   -7.5463    5.2027  -17.0281 C   0  0  0  0  0  0  0  0  0  0  0  0
   -8.1580    6.4032  -16.6229 C   0  0  0  0  0  0  0  0  0  0  0  0
   -8.9823    6.6980   -8.4703 C   0  0  0  0  0  0  0  0  0  0  0  0
   -8.5317    1.9844   -9.5675 C   0  0  0  0  0  0  0  0  0  0  0  0
   -8.9438    5.3640   -8.0659 C   0  0  0  0  0  0  0  0  0  0  0  0
   -8.7139    2.9905   -8.6181 C   0  0  0  0  0  0  0  0  0  0  0  0
   -7.4491    4.1200  -16.1530 C   0  0  0  0  0  0  0  0  0  0  0  0
   -8.6843    6.5426  -15.3345 C   0  0  0  0  0  0  0  0  0  0  0  0
   -8.9024    7.0231   -9.8226 C   0  0  0  0  0  0  0  0  0  0  0  0
   -8.4630    2.2981  -10.9237 C   0  0  0  0  0  0  0  0  0  0  0  0
   -8.8173    4.3338   -9.0097 C   0  0  0  0  0  0  0  0  0  0  0  0
   -8.7651    4.6582  -10.3852 C   0  0  0  0  0  0  0  0  0  0  0  0
   -7.9763    4.2816  -14.8861 C   0  0  0  0  0  0  0  0  0  0  0  0
   -8.5785    5.4715  -14.4663 C   0  0  0  0  0  0  0  0  0  0  0  0
   -8.8133    6.0154  -10.7900 C   0  0  0  0  0  0  0  0  0  0  0  0
   -8.6009    3.6249  -11.3366 C   0  0  0  0  0  0  0  0  0  0  0  0
   -7.9752    3.3299  -13.7633 C   0  0  0  0  0  0  0  0  0  0  0  0
   -9.0969    5.3131  -13.0763 C   0  0  2  0  0  0  0  0  0  0  0  0
   -8.7064    6.3494  -12.1484 N   0  0  0  0  0  0  0  0  0  0  0  0
   -8.5508    4.0119  -12.6936 N   0  0  0  0  0  0  0  0  0  0  0  0
   -7.4802    2.2203  -13.8349 O   0  0  0  0  0  0  0  0  0  0  0  0
   -7.1450    5.1199  -18.0348 H   0  0  0  0  0  0  0  0  0  0  0  0
   -8.2263    7.2312  -17.3236 H   0  0  0  0  0  0  0  0  0  0  0  0
   -9.0642    7.4862   -7.7274 H   0  0  0  0  0  0  0  0  0  0  0  0
   -8.4426    0.9501   -9.2469 H   0  0  0  0  0  0  0  0  0  0  0  0
   -8.9919    5.1374   -7.0027 H   0  0  0  0  0  0  0  0  0  0  0  0
   -8.7550    2.7163   -7.5660 H   0  0  0  0  0  0  0  0  0  0  0  0
   -6.9728    3.1967  -16.4618 H   0  0  0  0  0  0  0  0  0  0  0  0
   -9.1677    7.4659  -15.0345 H   0  0  0  0  0  0  0  0  0  0  0  0
   -8.9210    8.0694  -10.1179 H   0  0  0  0  0  0  0  0  0  0  0  0
   -8.3363    1.4882  -11.6345 H   0  0  0  0  0  0  0  0  0  0  0  0
  -10.1910    5.2179  -13.1091 H   0  0  0  0  0  0  0  0  0  0  0  0
   -8.8250    7.3217  -12.4101 H   0  0  0  0  0  0  0  0  0  0  0  0
  1  2  2  0  0  0  0
  1  7  1  0  0  0  0
  2  8  1  0  0  0  0
  3  5  2  0  0  0  0
  3  9  1  0  0  0  0
  4  6  1  0  0  0  0
  4 10  2  0  0  0  0
  5 11  1  0  0  0  0
  6 11  2  0  0  0  0
  7 13  2  0  0  0  0
  8 14  2  0  0  0  0
  9 15  2  0  0  0  0
 10 16  1  0  0  0  0
 11 12  1  0  0  0  0
 12 15  1  0  0  0  0
 12 16  2  0  0  0  0
 13 14  1  0  0  0  0
 13 17  1  0  0  0  0
 14 18  1  0  0  0  0
 15 19  1  0  0  0  0
 16 20  1  0  0  0  0
 17 20  1  0  0  0  0
 17 21  2  0  0  0  0
 18 19  1  0  0  0  0
 18 20  1  0  0  0  0
  1 22  1  0  0  0  0
  2 23  1  0  0  0  0
  3 24  1  0  0  0  0
  4 25  1  0  0  0  0
  5 26  1  0  0  0  0
  6 27  1  0  0  0  0
  7 28  1  0  0  0  0
  8 29  1  0  0  0  0
  9 30  1  0  0  0  0
 10 31  1  0  0  0  0
 18 32  1  0  0  0  0
 19 33  1  0  0  0  0
M  END
> <id>
EN300-177780

> <smiles>
O=C1N2C(NC=3C=CC=C4C=CC=C2C34)C=5C=CC=CC15

> <MDLNUMBER>
MFCD08247257

> <IUPAC Name>
7H,7aH,12H-isoindolo[2,1-a]perimidin-12-one

> <CAS>
138937-84-5

> <Purity>
95

> <URL>
https://www.enaminestore.com/catalog/EN300-177780

> <ROCS_ShapeQuery>
_x0404_0B

> <ROCS_TanimotoCombo>
0.377 

> <ROCS_ShapeTanimoto>
0.309 

> <ROCS_ColorTanimoto>
0.068 

> <ROCS_RefTversky>
0.283 

> <ROCS_RefColorTversky>
0.073 

> <ROCS_RefTverskyCombo>
0.356 

> <ROCS_FitTversky>
1.432 

> <ROCS_FitColorTversky>
0.500 

> <ROCS_FitTverskyCombo>
1.932 

> <ROCS_ColorScore>
-5.237

> <ROCS_Overlap>
1889.284

> <ROCS_Rank>
306                 

$$$$
untitled-dbase-8791_14
  -OEChem-08212314543D

 38 40  0     0  0  0  0  0  0999 V2000
   -8.5865    5.5347   -8.7118 C   0  0  0  0  0  0  0  0  0  0  0  0
   -8.8026    4.2983   -8.1030 C   0  0  0  0  0  0  0  0  0  0  0  0
   -9.2107    3.3092  -10.2651 C   0  0  0  0  0  0  0  0  0  0  0  0
   -8.6872    5.6706  -10.1034 C   0  0  0  0  0  0  0  0  0  0  0  0
   -8.9835    4.5448  -10.8781 C   0  0  0  0  0  0  0  0  0  0  0  0
   -9.1182    3.1864   -8.8796 C   0  0  0  0  0  0  0  0  0  0  0  0
   -6.7113    5.5278  -16.8998 C   0  0  0  0  0  0  0  0  0  0  0  0
   -8.4510    7.0076  -10.7379 C   0  0  0  0  0  0  0  0  0  0  0  0
   -8.9595    7.0174  -12.1732 C   0  0  0  0  0  0  0  0  0  0  0  0
   -7.0673    5.5365  -13.1351 C   0  0  0  0  0  0  0  0  0  0  0  0
   -9.3238    5.7545  -14.3001 C   0  0  0  0  0  0  0  0  0  0  0  0
   -6.5601    6.1232  -14.4479 C   0  0  0  0  0  0  0  0  0  0  0  0
   -8.5740    4.9751  -15.3757 C   0  0  0  0  0  0  0  0  0  0  0  0
   -8.5913    5.7284  -12.9339 C   0  0  0  0  0  0  0  0  0  0  0  0
   -5.3443    6.1454  -17.0647 C   0  0  0  0  0  0  0  0  0  0  0  0
   -7.2455    5.5451  -15.6102 N   0  0  0  0  0  0  0  0  0  0  0  0
   -7.2829    5.0434  -17.8795 O   0  0  0  0  0  0  0  0  0  0  0  0
   -9.0975    4.5643  -12.2421 O   0  0  0  0  0  0  0  0  0  0  0  0
   -9.3387    1.9815   -8.2867 O   0  0  0  0  0  0  0  0  0  0  0  0
   -8.3342    6.3938   -8.0946 H   0  0  0  0  0  0  0  0  0  0  0  0
   -8.7213    4.2092   -7.0232 H   0  0  0  0  0  0  0  0  0  0  0  0
   -9.4670    2.4414  -10.8687 H   0  0  0  0  0  0  0  0  0  0  0  0
   -8.9597    7.7803  -10.1465 H   0  0  0  0  0  0  0  0  0  0  0  0
   -7.3791    7.2463  -10.7367 H   0  0  0  0  0  0  0  0  0  0  0  0
  -10.0467    7.1854  -12.1806 H   0  0  0  0  0  0  0  0  0  0  0  0
   -8.5057    7.8786  -12.6903 H   0  0  0  0  0  0  0  0  0  0  0  0
   -6.8251    4.4640  -13.1239 H   0  0  0  0  0  0  0  0  0  0  0  0
   -6.5190    5.9980  -12.3007 H   0  0  0  0  0  0  0  0  0  0  0  0
   -9.4517    6.7931  -14.6302 H   0  0  0  0  0  0  0  0  0  0  0  0
  -10.3247    5.3180  -14.2120 H   0  0  0  0  0  0  0  0  0  0  0  0
   -6.6787    7.2149  -14.4338 H   0  0  0  0  0  0  0  0  0  0  0  0
   -5.4859    5.9256  -14.5766 H   0  0  0  0  0  0  0  0  0  0  0  0
   -8.4269    3.9326  -15.0668 H   0  0  0  0  0  0  0  0  0  0  0  0
   -9.1750    4.9530  -16.2872 H   0  0  0  0  0  0  0  0  0  0  0  0
   -4.5890    5.3817  -16.9115 H   0  0  0  0  0  0  0  0  0  0  0  0
   -5.2225    6.9392  -16.3346 H   0  0  0  0  0  0  0  0  0  0  0  0
   -5.2587    6.5564  -18.0654 H   0  0  0  0  0  0  0  0  0  0  0  0
   -9.2401    2.0571   -7.3241 H   0  0  0  0  0  0  0  0  0  0  0  0
  1  2  1  0  0  0  0
  1  4  2  0  0  0  0
  2  6  2  0  0  0  0
  3  5  2  0  0  0  0
  3  6  1  0  0  0  0
  4  5  1  0  0  0  0
  4  8  1  0  0  0  0
  5 18  1  0  0  0  0
  6 19  1  0  0  0  0
  7 15  1  0  0  0  0
  7 16  1  0  0  0  0
  7 17  2  0  0  0  0
  8  9  1  0  0  0  0
  9 14  1  0  0  0  0
 10 12  1  0  0  0  0
 10 14  1  0  0  0  0
 11 13  1  0  0  0  0
 11 14  1  0  0  0  0
 12 16  1  0  0  0  0
 13 16  1  0  0  0  0
 14 18  1  0  0  0  0
  1 20  1  0  0  0  0
  2 21  1  0  0  0  0
  3 22  1  0  0  0  0
  8 23  1  0  0  0  0
  8 24  1  0  0  0  0
  9 25  1  0  0  0  0
  9 26  1  0  0  0  0
 10 27  1  0  0  0  0
 10 28  1  0  0  0  0
 11 29  1  0  0  0  0
 11 30  1  0  0  0  0
 12 31  1  0  0  0  0
 12 32  1  0  0  0  0
 13 33  1  0  0  0  0
 13 34  1  0  0  0  0
 15 35  1  0  0  0  0
 15 36  1  0  0  0  0
 15 37  1  0  0  0  0
 19 38  1  0  0  0  0
M  END
> <id>
EN300-303115

> <smiles>
CC(=O)N1CCC2(CC1)CCC=3C=CC(O)=CC3O2

> <MDLNUMBER>
MFCD08741819

> <IUPAC Name>
1-{7-hydroxy-3,4-dihydrospiro[1-benzopyran-2,4'-piperidine]-1'-yl}ethan-1-one

> <CAS>
924769-64-2

> <Purity>
95

> <URL>
https://www.enaminestore.com/catalog/EN300-303115

> <ROCS_ShapeQuery>
_x0404_0B

> <ROCS_TanimotoCombo>
0.377 

> <ROCS_ShapeTanimoto>
0.313 

> <ROCS_ColorTanimoto>
0.064 

> <ROCS_RefTversky>
0.280 

> <ROCS_RefColorTversky>
0.069 

> <ROCS_RefTverskyCombo>
0.349 

> <ROCS_FitTversky>
1.606 

> <ROCS_FitColorTversky>
0.475 

> <ROCS_FitTverskyCombo>
2.080 

> <ROCS_ColorScore>
-4.955

> <ROCS_Overlap>
1867.548

> <ROCS_Rank>
307                 

$$$$
untitled-dbase-43353_331
  -OEChem-08212314543D

 49 50  0     0  0  0  0  0  0999 V2000
   -8.3272    6.2554   -9.5111 C   0  0  0  0  0  0  0  0  0  0  0  0
   -8.7759    5.7925  -10.7644 C   0  0  0  0  0  0  0  0  0  0  0  0
   -8.9872    4.4303  -10.6470 C   0  0  0  0  0  0  0  0  0  0  0  0
   -8.2613    5.1645   -8.6737 C   0  0  0  0  0  0  0  0  0  0  0  0
   -8.6663    2.7161   -8.8646 C   0  0  0  0  0  0  0  0  0  0  0  0
   -8.7237    5.8719  -14.4339 C   0  0  0  0  0  0  0  0  0  0  0  0
   -9.0150    6.5609  -12.0163 C   0  0  0  0  0  0  0  0  0  0  0  0
   -9.4756    3.5639  -11.7612 C   0  0  0  0  0  0  0  0  0  0  0  0
  -10.0458    4.4398  -12.8885 C   0  0  0  0  0  0  0  0  0  0  0  0
   -9.1819   -0.0422   -9.2835 C   0  0  0  0  0  0  0  0  0  0  0  0
   -6.8127   -0.1675  -10.1083 C   0  0  0  0  0  0  0  0  0  0  0  0
   -7.2764    0.5081   -7.7341 C   0  0  0  0  0  0  0  0  0  0  0  0
   -7.0322    5.1561  -16.6290 C   0  0  0  0  0  0  0  0  0  0  0  0
   -8.9828    3.8036  -17.4506 C   0  0  0  0  0  0  0  0  0  0  0  0
   -9.1933    6.2967  -17.2315 C   0  0  0  0  0  0  0  0  0  0  0  0
   -7.7807    0.5574   -9.1757 C   0  0  0  0  0  0  0  0  0  0  0  0
   -8.5551    5.0342  -16.6539 C   0  0  0  0  0  0  0  0  0  0  0  0
   -8.6441    4.0253   -9.3668 N   0  0  0  0  0  0  0  0  0  0  0  0
   -9.2085    5.6250  -13.1444 N   0  0  0  0  0  0  0  0  0  0  0  0
   -9.3624    2.4114   -7.9100 O   0  0  0  0  0  0  0  0  0  0  0  0
   -8.0956    6.8781  -14.7581 O   0  0  0  0  0  0  0  0  0  0  0  0
   -7.8374    1.9250   -9.5919 O   0  0  0  0  0  0  0  0  0  0  0  0
   -9.0205    4.8617  -15.3103 O   0  0  0  0  0  0  0  0  0  0  0  0
   -7.7258    5.3793   -6.8537 Br  0  0  0  0  0  0  0  0  0  0  0  0
   -8.0818    7.2766   -9.2512 H   0  0  0  0  0  0  0  0  0  0  0  0
   -9.8824    7.2164  -11.8993 H   0  0  0  0  0  0  0  0  0  0  0  0
   -8.1430    7.1797  -12.2549 H   0  0  0  0  0  0  0  0  0  0  0  0
   -8.6660    2.9564  -12.1780 H   0  0  0  0  0  0  0  0  0  0  0  0
  -10.2575    2.8936  -11.3855 H   0  0  0  0  0  0  0  0  0  0  0  0
  -10.0789    3.8727  -13.8274 H   0  0  0  0  0  0  0  0  0  0  0  0
  -11.0743    4.7284  -12.6494 H   0  0  0  0  0  0  0  0  0  0  0  0
   -9.8797    0.4754   -8.6156 H   0  0  0  0  0  0  0  0  0  0  0  0
   -9.5692    0.0187  -10.3059 H   0  0  0  0  0  0  0  0  0  0  0  0
   -9.1819   -1.0941   -8.9756 H   0  0  0  0  0  0  0  0  0  0  0  0
   -5.8060    0.2594  -10.0342 H   0  0  0  0  0  0  0  0  0  0  0  0
   -7.1198   -0.0542  -11.1543 H   0  0  0  0  0  0  0  0  0  0  0  0
   -6.7538   -1.2362   -9.8781 H   0  0  0  0  0  0  0  0  0  0  0  0
   -6.2713    0.9381   -7.6565 H   0  0  0  0  0  0  0  0  0  0  0  0
   -7.9395    1.0549   -7.0560 H   0  0  0  0  0  0  0  0  0  0  0  0
   -7.1975   -0.5275   -7.3841 H   0  0  0  0  0  0  0  0  0  0  0  0
   -6.7211    6.0383  -16.0580 H   0  0  0  0  0  0  0  0  0  0  0  0
   -6.5639    4.2716  -16.1849 H   0  0  0  0  0  0  0  0  0  0  0  0
   -6.6337    5.2869  -17.6416 H   0  0  0  0  0  0  0  0  0  0  0  0
  -10.0748    3.7122  -17.4711 H   0  0  0  0  0  0  0  0  0  0  0  0
   -8.6050    2.8863  -16.9846 H   0  0  0  0  0  0  0  0  0  0  0  0
   -8.6188    3.8436  -18.4823 H   0  0  0  0  0  0  0  0  0  0  0  0
  -10.2857    6.2096  -17.2495 H   0  0  0  0  0  0  0  0  0  0  0  0
   -8.9270    7.1854  -16.6501 H   0  0  0  0  0  0  0  0  0  0  0  0
   -8.8784    6.4525  -18.2697 H   0  0  0  0  0  0  0  0  0  0  0  0
  1  2  1  0  0  0  0
  1  4  2  0  0  0  0
  2  3  2  0  0  0  0
  2  7  1  0  0  0  0
  3  8  1  0  0  0  0
  3 18  1  0  0  0  0
  4 18  1  0  0  0  0
  4 24  1  0  0  0  0
  5 18  1  0  0  0  0
  5 20  2  0  0  0  0
  5 22  1  0  0  0  0
  6 19  1  0  0  0  0
  6 21  2  0  0  0  0
  6 23  1  0  0  0  0
  7 19  1  0  0  0  0
  8  9  1  0  0  0  0
  9 19  1  0  0  0  0
 10 16  1  0  0  0  0
 11 16  1  0  0  0  0
 12 16  1  0  0  0  0
 13 17  1  0  0  0  0
 14 17  1  0  0  0  0
 15 17  1  0  0  0  0
 16 22  1  0  0  0  0
 17 23  1  0  0  0  0
  1 25  1  0  0  0  0
  7 26  1  0  0  0  0
  7 27  1  0  0  0  0
  8 28  1  0  0  0  0
  8 29  1  0  0  0  0
  9 30  1  0  0  0  0
  9 31  1  0  0  0  0
 10 32  1  0  0  0  0
 10 33  1  0  0  0  0
 10 34  1  0  0  0  0
 11 35  1  0  0  0  0
 11 36  1  0  0  0  0
 11 37  1  0  0  0  0
 12 38  1  0  0  0  0
 12 39  1  0  0  0  0
 12 40  1  0  0  0  0
 13 41  1  0  0  0  0
 13 42  1  0  0  0  0
 13 43  1  0  0  0  0
 14 44  1  0  0  0  0
 14 45  1  0  0  0  0
 14 46  1  0  0  0  0
 15 47  1  0  0  0  0
 15 48  1  0  0  0  0
 15 49  1  0  0  0  0
M  END
> <id>
EN300-157253

> <smiles>
CC(C)(C)OC(=O)N1CCC2=C(C1)C=C(Br)N2C(=O)OC(C)(C)C

> <MDLNUMBER>
MFCD27959380

> <IUPAC Name>
1,5-di-tert-butyl 2-bromo-1H,4H,5H,6H,7H-pyrrolo[3,2-c]pyridine-1,5-dicarboxylate

> <CAS>
1803607-10-4

> <URL>
https://www.enaminestore.com/catalog/EN300-157253

> <ROCS_ShapeQuery>
_x0404_0B

> <ROCS_TanimotoCombo>
0.377 

> <ROCS_ShapeTanimoto>
0.327 

> <ROCS_ColorTanimoto>
0.050 

> <ROCS_RefTversky>
0.297 

> <ROCS_RefColorTversky>
0.055 

> <ROCS_RefTverskyCombo>
0.351 

> <ROCS_FitTversky>
1.454 

> <ROCS_FitColorTversky>
0.377 

> <ROCS_FitTverskyCombo>
1.830 

> <ROCS_ColorScore>
-3.935

> <ROCS_Overlap>
1980.629

> <ROCS_Rank>
308                 

$$$$
untitled-dbase-43373_188
  -OEChem-08212314543D

 47 49  0     1  0  0  0  0  0999 V2000
   -8.8109    5.2852  -11.2899 C   0  0  0  0  0  0  0  0  0  0  0  0
  -10.1646    4.3066  -17.2237 C   0  0  0  0  0  0  0  0  0  0  0  0
   -9.9278    5.4459  -16.2357 C   0  0  0  0  0  0  0  0  0  0  0  0
   -8.4753    6.7610  -14.6511 C   0  0  0  0  0  0  0  0  0  0  0  0
   -8.9175    5.6537  -19.1458 C   0  0  0  0  0  0  0  0  0  0  0  0
   -9.3061    6.6120  -13.3787 C   0  0  0  0  0  0  0  0  0  0  0  0
   -9.0196    4.1434  -13.4813 C   0  0  0  0  0  0  0  0  0  0  0  0
   -7.1036    4.7768  -17.4564 C   0  0  0  0  0  0  0  0  0  0  0  0
   -9.4604    4.3807  -18.5393 C   0  0  1  0  0  0  0  0  0  0  0  0
   -7.9755    4.5861  -18.6483 C   0  0  1  0  0  0  0  0  0  0  0  0
   -8.1653    4.2867  -14.7366 C   0  0  1  0  0  0  0  0  0  0  0  0
   -8.5233    5.5242  -15.5875 C   0  0  1  0  0  0  0  0  0  0  0  0
  -10.4793    3.8368   -9.4696 C   0  0  0  0  0  0  0  0  0  0  0  0
   -8.5581    2.2302   -9.2774 C   0  0  0  0  0  0  0  0  0  0  0  0
   -8.2692    4.6176   -8.5529 C   0  0  0  0  0  0  0  0  0  0  0  0
   -8.9611    3.6795   -9.5408 C   0  0  0  0  0  0  0  0  0  0  0  0
   -8.9972    5.3644  -12.6751 N   0  0  0  0  0  0  0  0  0  0  0  0
   -8.8860    6.2447  -10.5243 O   0  0  0  0  0  0  0  0  0  0  0  0
   -7.5328    5.8150  -16.5859 O   0  0  0  0  0  0  0  0  0  0  0  0
   -8.5299    4.0133  -10.8653 O   0  0  0  0  0  0  0  0  0  0  0  0
   -6.8646    4.4086  -14.3300 F   0  0  0  0  0  0  0  0  0  0  0  0
   -9.8429    3.3480  -16.7351 H   0  0  0  0  0  0  0  0  0  0  0  0
  -11.2678    4.1413  -17.3710 H   0  0  0  0  0  0  0  0  0  0  0  0
  -10.1212    6.3931  -16.7614 H   0  0  0  0  0  0  0  0  0  0  0  0
  -10.6867    5.3732  -15.4416 H   0  0  0  0  0  0  0  0  0  0  0  0
   -8.8291    7.6519  -15.2043 H   0  0  0  0  0  0  0  0  0  0  0  0
   -7.4415    7.0041  -14.3557 H   0  0  0  0  0  0  0  0  0  0  0  0
   -9.0126    5.7771  -20.2165 H   0  0  0  0  0  0  0  0  0  0  0  0
   -9.0053    6.5718  -18.5811 H   0  0  0  0  0  0  0  0  0  0  0  0
   -9.1039    7.4330  -12.6817 H   0  0  0  0  0  0  0  0  0  0  0  0
  -10.3710    6.6543  -13.6272 H   0  0  0  0  0  0  0  0  0  0  0  0
  -10.0392    3.8682  -13.7699 H   0  0  0  0  0  0  0  0  0  0  0  0
   -8.6519    3.3239  -12.8510 H   0  0  0  0  0  0  0  0  0  0  0  0
   -7.1309    3.8397  -16.8634 H   0  0  0  0  0  0  0  0  0  0  0  0
   -6.0332    4.8882  -17.7297 H   0  0  0  0  0  0  0  0  0  0  0  0
   -9.8875    3.6443  -19.2562 H   0  0  0  0  0  0  0  0  0  0  0  0
   -7.4659    3.9758  -19.4194 H   0  0  0  0  0  0  0  0  0  0  0  0
   -8.2282    3.3722  -15.3294 H   0  0  0  0  0  0  0  0  0  0  0  0
  -10.7726    4.8758   -9.6582 H   0  0  0  0  0  0  0  0  0  0  0  0
  -10.9860    3.1949  -10.1976 H   0  0  0  0  0  0  0  0  0  0  0  0
  -10.8519    3.5871   -8.4696 H   0  0  0  0  0  0  0  0  0  0  0  0
   -7.4696    2.1127   -9.3275 H   0  0  0  0  0  0  0  0  0  0  0  0
   -8.9760    1.5640  -10.0408 H   0  0  0  0  0  0  0  0  0  0  0  0
   -8.8989    1.8883   -8.2948 H   0  0  0  0  0  0  0  0  0  0  0  0
   -7.1802    4.5049   -8.6038 H   0  0  0  0  0  0  0  0  0  0  0  0
   -8.5178    5.6655   -8.7501 H   0  0  0  0  0  0  0  0  0  0  0  0
   -8.5569    4.3794   -7.5225 H   0  0  0  0  0  0  0  0  0  0  0  0
  1 17  1  0  0  0  0
  1 18  2  0  0  0  0
  1 20  1  0  0  0  0
  2  3  1  0  0  0  0
  2  9  1  0  0  0  0
  3 12  1  0  0  0  0
  4  6  1  0  0  0  0
  4 12  1  0  0  0  0
  5  9  1  0  0  0  0
  5 10  1  0  0  0  0
  6 17  1  0  0  0  0
  7 11  1  0  0  0  0
  7 17  1  0  0  0  0
  8 10  1  0  0  0  0
  8 19  1  0  0  0  0
  9 10  1  0  0  0  0
 11 12  1  0  0  0  0
 11 21  1  0  0  0  0
 12 19  1  0  0  0  0
 13 16  1  0  0  0  0
 14 16  1  0  0  0  0
 15 16  1  0  0  0  0
 16 20  1  0  0  0  0
  2 22  1  0  0  0  0
  2 23  1  0  0  0  0
  3 24  1  0  0  0  0
  3 25  1  0  0  0  0
  4 26  1  0  0  0  0
  4 27  1  0  0  0  0
  5 28  1  0  0  0  0
  5 29  1  0  0  0  0
  6 30  1  0  0  0  0
  6 31  1  0  0  0  0
  7 32  1  0  0  0  0
  7 33  1  0  0  0  0
  8 34  1  0  0  0  0
  8 35  1  0  0  0  0
  9 36  1  0  0  0  0
 10 37  1  0  0  0  0
 11 38  1  0  0  0  0
 13 39  1  0  0  0  0
 13 40  1  0  0  0  0
 13 41  1  0  0  0  0
 14 42  1  0  0  0  0
 14 43  1  0  0  0  0
 14 44  1  0  0  0  0
 15 45  1  0  0  0  0
 15 46  1  0  0  0  0
 15 47  1  0  0  0  0
M  END
> <id>
EN300-330896

> <smiles>
CC(C)(C)OC(=O)N1CCC2(CCC3CC3CO2)C(F)C1

> <MDLNUMBER>
MFCD30488801

> <IUPAC Name>
tert-butyl 3'-fluoro-3-oxaspiro[bicyclo[5.1.0]octane-4,4'-piperidine]-1'-carboxylate

> <CAS>
2059945-16-1

> <URL>
https://www.enaminestore.com/catalog/EN300-330896

> <ROCS_ShapeQuery>
_x0404_0B

> <ROCS_TanimotoCombo>
0.377 

> <ROCS_ShapeTanimoto>
0.343 

> <ROCS_ColorTanimoto>
0.034 

> <ROCS_RefTversky>
0.303 

> <ROCS_RefColorTversky>
0.037 

> <ROCS_RefTverskyCombo>
0.339 

> <ROCS_FitTversky>
1.639 

> <ROCS_FitColorTversky>
0.309 

> <ROCS_FitTverskyCombo>
1.948 

> <ROCS_ColorScore>
-2.639

> <ROCS_Overlap>
2018.206

> <ROCS_Rank>
309                 

$$$$
untitled-dbase-45640_594
  -OEChem-08212314543D

 53 54  0     0  0  0  0  0  0999 V2000
   -9.2041    7.5656  -10.0243 C   0  0  0  0  0  0  0  0  0  0  0  0
  -10.0309    8.5797  -10.4976 C   0  0  0  0  0  0  0  0  0  0  0  0
  -10.1002    7.4885  -12.6463 C   0  0  0  0  0  0  0  0  0  0  0  0
   -8.8075    6.5024  -10.8584 C   0  0  0  0  0  0  0  0  0  0  0  0
   -9.2574    6.4530  -12.1955 C   0  0  0  0  0  0  0  0  0  0  0  0
  -10.4801    8.5401  -11.8094 C   0  0  0  0  0  0  0  0  0  0  0  0
   -8.6611    5.6600  -14.4662 C   0  0  0  0  0  0  0  0  0  0  0  0
   -8.7643    3.6575   -8.8024 C   0  0  0  0  0  0  0  0  0  0  0  0
   -7.9006    5.4518  -10.2766 C   0  0  0  0  0  0  0  0  0  0  0  0
   -8.6799    4.0123  -12.5982 C   0  0  0  0  0  0  0  0  0  0  0  0
   -9.2877    3.6178  -11.2537 C   0  0  0  0  0  0  0  0  0  0  0  0
   -7.1211    5.1546  -16.8316 C   0  0  0  0  0  0  0  0  0  0  0  0
   -8.8321    3.3892  -17.3465 C   0  0  0  0  0  0  0  0  0  0  0  0
   -9.5256    5.7989  -17.2032 C   0  0  0  0  0  0  0  0  0  0  0  0
   -8.7137    2.9444   -6.0313 C   0  0  0  0  0  0  0  0  0  0  0  0
   -7.9455    5.3016   -5.6282 C   0  0  0  0  0  0  0  0  0  0  0  0
  -10.2036    4.8785   -6.6431 C   0  0  0  0  0  0  0  0  0  0  0  0
   -8.5787    4.7296  -16.6600 C   0  0  0  0  0  0  0  0  0  0  0  0
   -8.7612    4.3853   -6.5376 C   0  0  0  0  0  0  0  0  0  0  0  0
   -8.9019    5.3827  -13.0957 N   0  0  0  0  0  0  0  0  0  0  0  0
   -8.6179    4.1964  -10.0882 N   0  0  0  0  0  0  0  0  0  0  0  0
   -8.2947    6.7405  -14.9250 O   0  0  0  0  0  0  0  0  0  0  0  0
   -9.3517    2.6072   -8.5502 O   0  0  0  0  0  0  0  0  0  0  0  0
   -8.8412    4.5552  -15.2626 O   0  0  0  0  0  0  0  0  0  0  0  0
   -8.1676    4.4304   -7.8402 O   0  0  0  0  0  0  0  0  0  0  0  0
  -11.6271    9.8965  -12.4562 Br  0  0  0  0  0  0  0  0  0  0  0  0
   -8.8579    7.6154   -8.9961 H   0  0  0  0  0  0  0  0  0  0  0  0
  -10.3146    9.3882   -9.8300 H   0  0  0  0  0  0  0  0  0  0  0  0
  -10.5200    7.4583  -13.6491 H   0  0  0  0  0  0  0  0  0  0  0  0
   -7.0595    5.2718  -10.9427 H   0  0  0  0  0  0  0  0  0  0  0  0
   -7.4969    5.7853   -9.3226 H   0  0  0  0  0  0  0  0  0  0  0  0
   -7.5752    3.8078  -12.5546 H   0  0  0  0  0  0  0  0  0  0  0  0
   -9.0028    3.2978  -13.4078 H   0  0  0  0  0  0  0  0  0  0  0  0
  -10.3452    3.9427  -11.2142 H   0  0  0  0  0  0  0  0  0  0  0  0
   -9.3084    2.5147  -11.1609 H   0  0  0  0  0  0  0  0  0  0  0  0
   -6.9352    6.1163  -16.3403 H   0  0  0  0  0  0  0  0  0  0  0  0
   -6.4327    4.4123  -16.4146 H   0  0  0  0  0  0  0  0  0  0  0  0
   -6.8772    5.2963  -17.8907 H   0  0  0  0  0  0  0  0  0  0  0  0
   -9.8767    3.0803  -17.2260 H   0  0  0  0  0  0  0  0  0  0  0  0
   -8.2223    2.5981  -16.8952 H   0  0  0  0  0  0  0  0  0  0  0  0
   -8.6051    3.4340  -18.4166 H   0  0  0  0  0  0  0  0  0  0  0  0
  -10.5712    5.4942  -17.0802 H   0  0  0  0  0  0  0  0  0  0  0  0
   -9.3833    6.7587  -16.6961 H   0  0  0  0  0  0  0  0  0  0  0  0
   -9.3709    5.9466  -18.2781 H   0  0  0  0  0  0  0  0  0  0  0  0
   -9.2981    2.2835   -6.6814 H   0  0  0  0  0  0  0  0  0  0  0  0
   -7.6871    2.5670   -5.9844 H   0  0  0  0  0  0  0  0  0  0  0  0
   -9.1573    2.8662   -5.0321 H   0  0  0  0  0  0  0  0  0  0  0  0
   -7.9767    6.3365   -5.9878 H   0  0  0  0  0  0  0  0  0  0  0  0
   -6.8895    5.0080   -5.6242 H   0  0  0  0  0  0  0  0  0  0  0  0
   -8.3149    5.2812   -4.5979 H   0  0  0  0  0  0  0  0  0  0  0  0
  -10.2379    5.9120   -7.0062 H   0  0  0  0  0  0  0  0  0  0  0  0
  -10.7948    4.2542   -7.3209 H   0  0  0  0  0  0  0  0  0  0  0  0
  -10.6877    4.8800   -5.6598 H   0  0  0  0  0  0  0  0  0  0  0  0
  1  2  1  0  0  0  0
  1  4  2  0  0  0  0
  2  6  2  0  0  0  0
  3  5  2  0  0  0  0
  3  6  1  0  0  0  0
  4  5  1  0  0  0  0
  4  9  1  0  0  0  0
  5 20  1  0  0  0  0
  6 26  1  0  0  0  0
  7 20  1  0  0  0  0
  7 22  2  0  0  0  0
  7 24  1  0  0  0  0
  8 21  1  0  0  0  0
  8 23  2  0  0  0  0
  8 25  1  0  0  0  0
  9 21  1  0  0  0  0
 10 11  1  0  0  0  0
 10 20  1  0  0  0  0
 11 21  1  0  0  0  0
 12 18  1  0  0  0  0
 13 18  1  0  0  0  0
 14 18  1  0  0  0  0
 15 19  1  0  0  0  0
 16 19  1  0  0  0  0
 17 19  1  0  0  0  0
 18 24  1  0  0  0  0
 19 25  1  0  0  0  0
  1 27  1  0  0  0  0
  2 28  1  0  0  0  0
  3 29  1  0  0  0  0
  9 30  1  0  0  0  0
  9 31  1  0  0  0  0
 10 32  1  0  0  0  0
 10 33  1  0  0  0  0
 11 34  1  0  0  0  0
 11 35  1  0  0  0  0
 12 36  1  0  0  0  0
 12 37  1  0  0  0  0
 12 38  1  0  0  0  0
 13 39  1  0  0  0  0
 13 40  1  0  0  0  0
 13 41  1  0  0  0  0
 14 42  1  0  0  0  0
 14 43  1  0  0  0  0
 14 44  1  0  0  0  0
 15 45  1  0  0  0  0
 15 46  1  0  0  0  0
 15 47  1  0  0  0  0
 16 48  1  0  0  0  0
 16 49  1  0  0  0  0
 16 50  1  0  0  0  0
 17 51  1  0  0  0  0
 17 52  1  0  0  0  0
 17 53  1  0  0  0  0
M  END
> <id>
EN300-28304094

> <smiles>
CC(C)(C)OC(=O)N1CCN(C(=O)OC(C)(C)C)C=2C=C(Br)C=CC2C1

> <IUPAC Name>
1,4-di-tert-butyl 8-bromo-2,3,4,5-tetrahydro-1H-1,4-benzodiazepine-1,4-dicarboxylate

> <CAS>
2680802-01-9

> <URL>
https://www.enaminestore.com/catalog/EN300-28304094

> <ROCS_ShapeQuery>
_x0404_0B

> <ROCS_TanimotoCombo>
0.377 

> <ROCS_ShapeTanimoto>
0.328 

> <ROCS_ColorTanimoto>
0.049 

> <ROCS_RefTversky>
0.300 

> <ROCS_RefColorTversky>
0.054 

> <ROCS_RefTverskyCombo>
0.354 

> <ROCS_FitTversky>
1.393 

> <ROCS_FitColorTversky>
0.371 

> <ROCS_FitTverskyCombo>
1.763 

> <ROCS_ColorScore>
-3.865

> <ROCS_Overlap>
2004.669

> <ROCS_Rank>
310                 

$$$$
untitled-dbase-14613_19
  -OEChem-08212314543D

 51 53  0     1  0  0  0  0  0999 V2000
   -9.2293    2.0871   -8.1620 C   0  0  0  0  0  0  0  0  0  0  0  0
   -8.7845    4.1373   -7.8809 C   0  0  0  0  0  0  0  0  0  0  0  0
   -9.0634    4.0066   -9.2222 C   0  0  0  0  0  0  0  0  0  0  0  0
   -8.9384    6.0019  -14.4960 C   0  0  0  0  0  0  0  0  0  0  0  0
   -8.4226    5.4345   -7.2722 C   0  0  0  0  0  0  0  0  0  0  0  0
   -7.8003    4.9098  -11.1794 C   0  0  0  0  0  0  0  0  0  0  0  0
  -10.2979    5.0923  -11.1185 C   0  0  0  0  0  0  0  0  0  0  0  0
   -8.0047    6.4242   -8.3819 C   0  0  0  0  0  0  0  0  0  0  0  0
   -7.7653    5.9219  -12.3202 C   0  0  0  0  0  0  0  0  0  0  0  0
  -10.2761    6.0208  -12.3496 C   0  0  1  0  0  0  0  0  0  0  0  0
   -9.0163    5.1037  -10.2478 C   0  0  1  0  0  0  0  0  0  0  0  0
  -10.6033    7.4810  -12.0284 C   0  0  0  0  0  0  0  0  0  0  0  0
   -8.5994    3.7865  -16.2766 C   0  0  0  0  0  0  0  0  0  0  0  0
  -11.0014    4.1637  -16.9070 C   0  0  0  0  0  0  0  0  0  0  0  0
   -9.2979    5.9573  -17.3416 C   0  0  0  0  0  0  0  0  0  0  0  0
   -9.7519    1.9840  -10.5894 C   0  0  0  0  0  0  0  0  0  0  0  0
   -9.7160    4.8211  -16.4094 C   0  0  0  0  0  0  0  0  0  0  0  0
   -8.8946    2.9467   -7.2212 N   0  0  0  0  0  0  0  0  0  0  0  0
   -9.3386    2.6803   -9.3943 N   0  0  0  0  0  0  0  0  0  0  0  0
   -8.9282    6.4166   -9.5372 N   0  0  0  0  0  0  0  0  0  0  0  0
   -9.0063    5.9209  -13.0966 N   0  0  0  0  0  0  0  0  0  0  0  0
   -8.0452    6.5776  -15.1150 O   0  0  0  0  0  0  0  0  0  0  0  0
   -9.9853    5.3697  -15.1142 O   0  0  0  0  0  0  0  0  0  0  0  0
   -9.4128    1.0317   -8.0120 H   0  0  0  0  0  0  0  0  0  0  0  0
   -9.2640    5.8446   -6.7045 H   0  0  0  0  0  0  0  0  0  0  0  0
   -7.5880    5.2829   -6.5777 H   0  0  0  0  0  0  0  0  0  0  0  0
   -7.7962    3.9129  -11.6325 H   0  0  0  0  0  0  0  0  0  0  0  0
   -6.8657    4.9807  -10.6063 H   0  0  0  0  0  0  0  0  0  0  0  0
  -11.1890    5.3037  -10.5130 H   0  0  0  0  0  0  0  0  0  0  0  0
  -10.4568    4.0717  -11.4961 H   0  0  0  0  0  0  0  0  0  0  0  0
   -7.9247    7.4387   -7.9739 H   0  0  0  0  0  0  0  0  0  0  0  0
   -7.0029    6.1515   -8.7328 H   0  0  0  0  0  0  0  0  0  0  0  0
   -7.6129    6.9405  -11.9467 H   0  0  0  0  0  0  0  0  0  0  0  0
   -6.9130    5.7003  -12.9716 H   0  0  0  0  0  0  0  0  0  0  0  0
  -11.0781    5.6777  -12.9823 H   0  0  0  0  0  0  0  0  0  0  0  0
   -9.8296    7.8976  -11.3870 H   0  0  0  0  0  0  0  0  0  0  0  0
  -11.5619    7.5379  -11.5172 H   0  0  0  0  0  0  0  0  0  0  0  0
  -10.6535    8.0568  -12.9502 H   0  0  0  0  0  0  0  0  0  0  0  0
   -7.6750    4.2544  -15.9197 H   0  0  0  0  0  0  0  0  0  0  0  0
   -8.8731    2.9843  -15.5835 H   0  0  0  0  0  0  0  0  0  0  0  0
   -8.3637    3.3385  -17.2487 H   0  0  0  0  0  0  0  0  0  0  0  0
  -11.8053    4.9024  -17.0037 H   0  0  0  0  0  0  0  0  0  0  0  0
  -11.3572    3.4121  -16.1929 H   0  0  0  0  0  0  0  0  0  0  0  0
  -10.8575    3.6787  -17.8779 H   0  0  0  0  0  0  0  0  0  0  0  0
  -10.0986    6.6996  -17.4371 H   0  0  0  0  0  0  0  0  0  0  0  0
   -8.3975    6.4648  -16.9804 H   0  0  0  0  0  0  0  0  0  0  0  0
   -9.1035    5.5805  -18.3523 H   0  0  0  0  0  0  0  0  0  0  0  0
  -10.8398    2.0609  -10.6655 H   0  0  0  0  0  0  0  0  0  0  0  0
   -9.2745    2.4410  -11.4607 H   0  0  0  0  0  0  0  0  0  0  0  0
   -9.4455    0.9364  -10.5215 H   0  0  0  0  0  0  0  0  0  0  0  0
   -9.8437    6.7427   -9.2485 H   0  0  0  0  0  0  0  0  0  0  0  0
  1 18  2  0  0  0  0
  1 19  1  0  0  0  0
  2  3  2  0  0  0  0
  2  5  1  0  0  0  0
  2 18  1  0  0  0  0
  3 11  1  0  0  0  0
  3 19  1  0  0  0  0
  4 21  1  0  0  0  0
  4 22  2  0  0  0  0
  4 23  1  0  0  0  0
  5  8  1  0  0  0  0
  6  9  1  0  0  0  0
  6 11  1  0  0  0  0
  7 10  1  0  0  0  0
  7 11  1  0  0  0  0
  8 20  1  0  0  0  0
  9 21  1  0  0  0  0
 10 12  1  0  0  0  0
 10 21  1  0  0  0  0
 11 20  1  0  0  0  0
 13 17  1  0  0  0  0
 14 17  1  0  0  0  0
 15 17  1  0  0  0  0
 16 19  1  0  0  0  0
 17 23  1  0  0  0  0
  1 24  1  0  0  0  0
  5 25  1  0  0  0  0
  5 26  1  0  0  0  0
  6 27  1  0  0  0  0
  6 28  1  0  0  0  0
  7 29  1  0  0  0  0
  7 30  1  0  0  0  0
  8 31  1  0  0  0  0
  8 32  1  0  0  0  0
  9 33  1  0  0  0  0
  9 34  1  0  0  0  0
 10 35  1  0  0  0  0
 12 36  1  0  0  0  0
 12 37  1  0  0  0  0
 12 38  1  0  0  0  0
 13 39  1  0  0  0  0
 13 40  1  0  0  0  0
 13 41  1  0  0  0  0
 14 42  1  0  0  0  0
 14 43  1  0  0  0  0
 14 44  1  0  0  0  0
 15 45  1  0  0  0  0
 15 46  1  0  0  0  0
 15 47  1  0  0  0  0
 16 48  1  0  0  0  0
 16 49  1  0  0  0  0
 16 50  1  0  0  0  0
 20 51  1  0  0  0  0
M  END
> <id>
EN300-1077085

> <smiles>
CC1CC2(CCN1C(=O)OC(C)(C)C)NCCC=3N=CN(C)C32

> <IUPAC Name>
tert-butyl 3,6'-dimethyl-3,5,6,7-tetrahydrospiro[imidazo[4,5-c]pyridine-4,4'-piperidine]-1'-carboxylate

> <CAS>
2137473-62-0

> <URL>
https://www.enaminestore.com/catalog/EN300-1077085

> <ROCS_ShapeQuery>
_x0404_0B

> <ROCS_TanimotoCombo>
0.377 

> <ROCS_ShapeTanimoto>
0.301 

> <ROCS_ColorTanimoto>
0.076 

> <ROCS_RefTversky>
0.278 

> <ROCS_RefColorTversky>
0.082 

> <ROCS_RefTverskyCombo>
0.360 

> <ROCS_FitTversky>
1.388 

> <ROCS_FitColorTversky>
0.482 

> <ROCS_FitTverskyCombo>
1.870 

> <ROCS_ColorScore>
-5.950

> <ROCS_Overlap>
1853.476

> <ROCS_Rank>
311                 

$$$$
untitled-dbase-25550_64
  -OEChem-08212314543D

 50 52  0     1  0  0  0  0  0999 V2000
   -9.3398    3.0662   -7.0050 C   0  0  0  0  0  0  0  0  0  0  0  0
   -9.2919    1.8752   -7.7216 C   0  0  0  0  0  0  0  0  0  0  0  0
   -9.1146    4.2843   -7.6519 C   0  0  0  0  0  0  0  0  0  0  0  0
   -9.0217    1.9013   -9.0866 C   0  0  0  0  0  0  0  0  0  0  0  0
   -8.8375    4.3322   -9.0291 C   0  0  0  0  0  0  0  0  0  0  0  0
   -8.8115    3.1225   -9.7407 C   0  0  0  0  0  0  0  0  0  0  0  0
   -8.0447    3.0209  -13.8214 C   0  0  0  0  0  0  0  0  0  0  0  0
   -9.2874    3.1619  -13.3345 C   0  0  0  0  0  0  0  0  0  0  0  0
   -8.6419    5.6894   -9.6298 C   0  0  0  0  0  0  0  0  0  0  0  0
   -7.9099    6.0212  -14.8671 C   0  0  0  0  0  0  0  0  0  0  0  0
   -7.5425    3.3690  -15.1924 C   0  0  0  0  0  0  0  0  0  0  0  0
   -9.6613    2.9377  -11.8944 C   0  0  0  0  0  0  0  0  0  0  0  0
   -7.5899    4.8821  -17.2287 C   0  0  0  0  0  0  0  0  0  0  0  0
   -9.4872    4.5494  -16.4365 C   0  0  0  0  0  0  0  0  0  0  0  0
   -7.9983    7.0132  -11.6499 C   0  0  1  0  0  0  0  0  0  0  0  0
   -6.9119    6.9765  -12.7563 C   0  0  1  0  0  0  0  0  0  0  0  0
   -8.0868    4.6978  -15.7558 C   0  0  0  0  0  0  0  0  0  0  0  0
   -9.3802    7.3835  -12.1969 C   0  0  0  0  0  0  0  0  0  0  0  0
   -5.5114    6.8527  -12.1528 C   0  0  0  0  0  0  0  0  0  0  0  0
   -8.0864    5.7577  -10.9003 N   0  0  0  0  0  0  0  0  0  0  0  0
   -7.1188    5.8992  -13.7275 N   0  0  0  0  0  0  0  0  0  0  0  0
   -8.9635    5.2311  -17.6344 N   0  0  0  0  0  0  0  0  0  0  0  0
   -8.9891    6.6795   -8.9870 O   0  0  0  0  0  0  0  0  0  0  0  0
   -8.4376    7.0992  -15.1767 O   0  0  0  0  0  0  0  0  0  0  0  0
   -8.4968    3.0802  -11.0702 O   0  0  0  0  0  0  0  0  0  0  0  0
   -9.5513    3.0525   -5.9388 H   0  0  0  0  0  0  0  0  0  0  0  0
   -9.4553    0.9307   -7.2164 H   0  0  0  0  0  0  0  0  0  0  0  0
   -9.1702    5.2051   -7.0656 H   0  0  0  0  0  0  0  0  0  0  0  0
   -8.9634    0.9548   -9.6137 H   0  0  0  0  0  0  0  0  0  0  0  0
   -7.2796    2.5934  -13.1337 H   0  0  0  0  0  0  0  0  0  0  0  0
  -10.0997    3.4290  -14.0140 H   0  0  0  0  0  0  0  0  0  0  0  0
   -6.4269    3.3926  -15.2062 H   0  0  0  0  0  0  0  0  0  0  0  0
   -7.7996    2.5166  -15.8641 H   0  0  0  0  0  0  0  0  0  0  0  0
  -10.4408    3.6566  -11.5835 H   0  0  0  0  0  0  0  0  0  0  0  0
  -10.0677    1.9167  -11.7937 H   0  0  0  0  0  0  0  0  0  0  0  0
   -6.8738    5.7045  -17.3737 H   0  0  0  0  0  0  0  0  0  0  0  0
   -7.1836    3.9913  -17.7239 H   0  0  0  0  0  0  0  0  0  0  0  0
   -9.8468    3.5308  -16.6212 H   0  0  0  0  0  0  0  0  0  0  0  0
  -10.2961    5.1054  -15.9399 H   0  0  0  0  0  0  0  0  0  0  0  0
   -7.7188    7.8114  -10.9340 H   0  0  0  0  0  0  0  0  0  0  0  0
   -6.9428    7.9182  -13.3169 H   0  0  0  0  0  0  0  0  0  0  0  0
   -9.7076    6.6295  -12.9101 H   0  0  0  0  0  0  0  0  0  0  0  0
   -9.3316    8.3499  -12.6951 H   0  0  0  0  0  0  0  0  0  0  0  0
  -10.0967    7.4380  -11.3795 H   0  0  0  0  0  0  0  0  0  0  0  0
   -5.4397    5.9276  -11.5864 H   0  0  0  0  0  0  0  0  0  0  0  0
   -5.3240    7.6954  -11.4923 H   0  0  0  0  0  0  0  0  0  0  0  0
   -4.7713    6.8466  -12.9490 H   0  0  0  0  0  0  0  0  0  0  0  0
   -7.6962    4.9304  -11.3200 H   0  0  0  0  0  0  0  0  0  0  0  0
   -6.6578    5.0095  -13.5601 H   0  0  0  0  0  0  0  0  0  0  0  0
   -9.1580    6.2302  -17.6801 H   0  0  0  0  0  0  0  0  0  0  0  0
  1  2  2  0  0  0  0
  1  3  1  0  0  0  0
  2  4  1  0  0  0  0
  3  5  2  0  0  0  0
  4  6  2  0  0  0  0
  5  6  1  0  0  0  0
  5  9  1  0  0  0  0
  6 25  1  0  0  0  0
  7  8  2  0  0  0  0
  7 11  1  0  0  0  0
  8 12  1  0  0  0  0
  9 20  1  0  0  0  0
  9 23  2  0  0  0  0
 10 17  1  0  0  0  0
 10 21  1  0  0  0  0
 10 24  2  0  0  0  0
 11 17  1  0  0  0  0
 12 25  1  0  0  0  0
 13 17  1  0  0  0  0
 13 22  1  0  0  0  0
 14 17  1  0  0  0  0
 14 22  1  0  0  0  0
 15 16  1  0  0  0  0
 15 18  1  1  0  0  0
 15 20  1  0  0  0  0
 16 19  1  6  0  0  0
 16 21  1  0  0  0  0
  1 26  1  0  0  0  0
  2 27  1  0  0  0  0
  3 28  1  0  0  0  0
  4 29  1  0  0  0  0
  7 30  1  0  0  0  0
  8 31  1  0  0  0  0
 11 32  1  0  0  0  0
 11 33  1  0  0  0  0
 12 34  1  0  0  0  0
 12 35  1  0  0  0  0
 13 36  1  0  0  0  0
 13 37  1  0  0  0  0
 14 38  1  0  0  0  0
 14 39  1  0  0  0  0
 15 40  1  0  0  0  0
 16 41  1  0  0  0  0
 18 42  1  0  0  0  0
 18 43  1  0  0  0  0
 18 44  1  0  0  0  0
 19 45  1  0  0  0  0
 19 46  1  0  0  0  0
 19 47  1  0  0  0  0
 20 48  1  0  0  0  0
 21 49  1  0  0  0  0
 22 50  1  0  0  0  0
M  END
> <id>
EN300-6486918

> <smiles>
C[C@H]1NC(=O)C=2C=CC=CC2OC/C=C/CC3(CNC3)C(=O)N[C@@H]1C.OC(=O)C(F)(F)F

> <MDLNUMBER>
MFCD31736693

> <IUPAC Name>
(3'E,9'R,10'R)-9',10'-dimethyl-2',5',7',8',9',10',11',12'-octahydrospiro[azetidine-3,6'-[1,8,11]benzoxadiazacyclotetradecin]-3'-ene-7',12'-dione; trifluoroacetic acid

> <CAS>
2648901-96-4

> <URL>
https://www.enaminestore.com/catalog/EN300-6486918

> <Saltdate>
OC(=O)C(F)(F)F

> <ROCS_ShapeQuery>
_x0404_0B

> <ROCS_TanimotoCombo>
0.376 

> <ROCS_ShapeTanimoto>
0.321 

> <ROCS_ColorTanimoto>
0.055 

> <ROCS_RefTversky>
0.294 

> <ROCS_RefColorTversky>
0.061 

> <ROCS_RefTverskyCombo>
0.355 

> <ROCS_FitTversky>
1.405 

> <ROCS_FitColorTversky>
0.360 

> <ROCS_FitTverskyCombo>
1.765 

> <ROCS_ColorScore>
-4.433

> <ROCS_Overlap>
1963.202

> <ROCS_Rank>
312                 

$$$$
untitled-dbase-36944_423
  -OEChem-08212314543D

 46 47  0     1  0  0  0  0  0999 V2000
   -9.4473    3.2629   -8.4124 C   0  0  0  0  0  0  0  0  0  0  0  0
   -8.5193    5.6620  -14.4244 C   0  0  0  0  0  0  0  0  0  0  0  0
   -9.0806    4.1332   -7.2378 C   0  0  0  0  0  0  0  0  0  0  0  0
   -9.9134    3.9829   -9.6540 C   0  0  0  0  0  0  0  0  0  0  0  0
   -9.7766    6.0944  -10.9790 C   0  0  0  0  0  0  0  0  0  0  0  0
   -7.7647    4.5193  -10.8905 C   0  0  0  0  0  0  0  0  0  0  0  0
   -9.0718    5.6052   -7.6402 C   0  0  0  0  0  0  0  0  0  0  0  0
   -9.0163    6.6195  -12.1926 C   0  0  0  0  0  0  0  0  0  0  0  0
   -8.1055    4.2917  -12.3617 C   0  0  0  0  0  0  0  0  0  0  0  0
   -8.9427    5.1328  -10.0738 C   0  0  0  0  0  0  0  0  0  0  0  0
   -7.3566    5.0718  -16.9707 C   0  0  0  0  0  0  0  0  0  0  0  0
   -8.9096    3.0981  -17.0163 C   0  0  0  0  0  0  0  0  0  0  0  0
   -9.8483    5.4268  -16.9538 C   0  0  0  0  0  0  0  0  0  0  0  0
   -7.8436    7.1405   -9.0389 C   0  0  0  0  0  0  0  0  0  0  0  0
   -8.7030    4.5214  -16.5027 C   0  0  0  0  0  0  0  0  0  0  0  0
   -8.5371    5.5217  -13.0327 N   0  0  0  0  0  0  0  0  0  0  0  0
   -8.3130    5.7691   -8.8805 N   0  0  1  0  0  0  0  0  0  0  0  0
   -9.4232    2.0359   -8.3401 O   0  0  0  0  0  0  0  0  0  0  0  0
   -8.3652    6.7309  -15.0120 O   0  0  0  0  0  0  0  0  0  0  0  0
   -8.7008    4.4676  -15.0716 O   0  0  0  0  0  0  0  0  0  0  0  0
   -9.8005    3.9434   -6.4344 H   0  0  0  0  0  0  0  0  0  0  0  0
   -8.0871    3.8448   -6.8769 H   0  0  0  0  0  0  0  0  0  0  0  0
  -10.0066    3.2514  -10.4672 H   0  0  0  0  0  0  0  0  0  0  0  0
  -10.9197    4.3721   -9.4541 H   0  0  0  0  0  0  0  0  0  0  0  0
  -10.1776    6.9387  -10.3981 H   0  0  0  0  0  0  0  0  0  0  0  0
  -10.6718    5.5593  -11.3398 H   0  0  0  0  0  0  0  0  0  0  0  0
   -7.4819    3.5490  -10.4504 H   0  0  0  0  0  0  0  0  0  0  0  0
   -6.8541    5.1299  -10.8227 H   0  0  0  0  0  0  0  0  0  0  0  0
  -10.0850    5.9534   -7.7578 H   0  0  0  0  0  0  0  0  0  0  0  0
   -8.6305    6.1929   -6.8539 H   0  0  0  0  0  0  0  0  0  0  0  0
   -9.6659    7.2915  -12.7587 H   0  0  0  0  0  0  0  0  0  0  0  0
   -8.1376    7.1986  -11.8918 H   0  0  0  0  0  0  0  0  0  0  0  0
   -7.2356    3.9098  -12.9149 H   0  0  0  0  0  0  0  0  0  0  0  0
   -8.8878    3.5248  -12.4415 H   0  0  0  0  0  0  0  0  0  0  0  0
   -7.2046    6.0933  -16.6042 H   0  0  0  0  0  0  0  0  0  0  0  0
   -6.5244    4.4505  -16.6241 H   0  0  0  0  0  0  0  0  0  0  0  0
   -7.3155    5.1266  -18.0646 H   0  0  0  0  0  0  0  0  0  0  0  0
   -9.8744    2.6992  -16.6829 H   0  0  0  0  0  0  0  0  0  0  0  0
   -8.1426    2.4242  -16.6176 H   0  0  0  0  0  0  0  0  0  0  0  0
   -8.8754    3.0541  -18.1096 H   0  0  0  0  0  0  0  0  0  0  0  0
  -10.8142    5.0322  -16.6182 H   0  0  0  0  0  0  0  0  0  0  0  0
   -9.7361    6.4437  -16.5638 H   0  0  0  0  0  0  0  0  0  0  0  0
   -9.8978    5.4769  -18.0475 H   0  0  0  0  0  0  0  0  0  0  0  0
   -7.2786    7.2290   -9.9785 H   0  0  0  0  0  0  0  0  0  0  0  0
   -8.7062    7.8225   -9.0642 H   0  0  0  0  0  0  0  0  0  0  0  0
   -7.1919    7.4048   -8.1930 H   0  0  0  0  0  0  0  0  0  0  0  0
  1  3  1  0  0  0  0
  1  4  1  0  0  0  0
  1 18  2  0  0  0  0
  2 16  1  0  0  0  0
  2 19  2  0  0  0  0
  2 20  1  0  0  0  0
  3  7  1  0  0  0  0
  4 10  1  0  0  0  0
  5  8  1  0  0  0  0
  5 10  1  0  0  0  0
  6  9  1  0  0  0  0
  6 10  1  0  0  0  0
  7 17  1  0  0  0  0
  8 16  1  0  0  0  0
  9 16  1  0  0  0  0
 10 17  1  0  0  0  0
 11 15  1  0  0  0  0
 12 15  1  0  0  0  0
 13 15  1  0  0  0  0
 14 17  1  0  0  0  0
 15 20  1  0  0  0  0
  3 21  1  0  0  0  0
  3 22  1  0  0  0  0
  4 23  1  0  0  0  0
  4 24  1  0  0  0  0
  5 25  1  0  0  0  0
  5 26  1  0  0  0  0
  6 27  1  0  0  0  0
  6 28  1  0  0  0  0
  7 29  1  0  0  0  0
  7 30  1  0  0  0  0
  8 31  1  0  0  0  0
  8 32  1  0  0  0  0
  9 33  1  0  0  0  0
  9 34  1  0  0  0  0
 11 35  1  0  0  0  0
 11 36  1  0  0  0  0
 11 37  1  0  0  0  0
 12 38  1  0  0  0  0
 12 39  1  0  0  0  0
 12 40  1  0  0  0  0
 13 41  1  0  0  0  0
 13 42  1  0  0  0  0
 13 43  1  0  0  0  0
 14 44  1  0  0  0  0
 14 45  1  0  0  0  0
 14 46  1  0  0  0  0
M  END
> <id>
EN300-341469

> <smiles>
CN1CCC(=O)CC21CCN(CC2)C(=O)OC(C)(C)C

> <MDLNUMBER>
MFCD22394497

> <IUPAC Name>
tert-butyl 1-methyl-4-oxo-1,9-diazaspiro[5.5]undecane-9-carboxylate

> <CAS>
1824297-55-3

> <URL>
https://www.enaminestore.com/catalog/EN300-341469

> <ROCS_ShapeQuery>
_x0404_0B

> <ROCS_TanimotoCombo>
0.376 

> <ROCS_ShapeTanimoto>
0.310 

> <ROCS_ColorTanimoto>
0.066 

> <ROCS_RefTversky>
0.278 

> <ROCS_RefColorTversky>
0.070 

> <ROCS_RefTverskyCombo>
0.349 

> <ROCS_FitTversky>
1.576 

> <ROCS_FitColorTversky>
0.536 

> <ROCS_FitTverskyCombo>
2.111 

> <ROCS_ColorScore>
-5.078

> <ROCS_Overlap>
1856.165

> <ROCS_Rank>
313                 

$$$$
untitled-dbase-28078_41
  -OEChem-08212314543D

 41 42  0     0  0  0  0  0  0999 V2000
   -8.6928    5.9932   -8.0333 C   0  0  0  0  0  0  0  0  0  0  0  0
   -8.9898    4.2965  -10.2413 C   0  0  0  0  0  0  0  0  0  0  0  0
   -8.7782    5.6726  -10.4395 C   0  0  0  0  0  0  0  0  0  0  0  0
   -8.8849    4.6277   -7.8398 C   0  0  0  0  0  0  0  0  0  0  0  0
   -9.0285    3.7812   -8.9385 C   0  0  0  0  0  0  0  0  0  0  0  0
   -8.6389    6.5137   -9.3260 C   0  0  0  0  0  0  0  0  0  0  0  0
   -8.2745    5.5178  -14.1873 C   0  0  0  0  0  0  0  0  0  0  0  0
   -9.1179    3.3680  -11.4202 C   0  0  0  0  0  0  0  0  0  0  0  0
   -8.7109    6.2702  -11.8235 C   0  0  0  0  0  0  0  0  0  0  0  0
   -9.6198    4.1061  -12.6551 C   0  0  0  0  0  0  0  0  0  0  0  0
   -8.9287    4.1004   -6.4421 C   0  0  0  0  0  0  0  0  0  0  0  0
   -7.0571    5.4679  -16.7765 C   0  0  0  0  0  0  0  0  0  0  0  0
   -7.4398    2.9865  -16.7055 C   0  0  0  0  0  0  0  0  0  0  0  0
   -9.3993    4.5564  -16.6438 C   0  0  0  0  0  0  0  0  0  0  0  0
   -7.9427    4.3483  -16.2316 C   0  0  0  0  0  0  0  0  0  0  0  0
   -8.8012    5.2883  -12.9116 N   0  0  0  0  0  0  0  0  0  0  0  0
   -9.2045    2.3930   -8.7189 N   0  0  0  0  0  0  0  0  0  0  0  0
   -8.1765    6.6266  -14.7094 O   0  0  0  0  0  0  0  0  0  0  0  0
   -7.8671    4.3625  -14.8015 O   0  0  0  0  0  0  0  0  0  0  0  0
   -8.4484    7.8302   -9.4953 F   0  0  0  0  0  0  0  0  0  0  0  0
   -8.5804    6.6621   -7.1840 H   0  0  0  0  0  0  0  0  0  0  0  0
   -8.1397    2.9156  -11.6238 H   0  0  0  0  0  0  0  0  0  0  0  0
   -9.8265    2.5599  -11.2059 H   0  0  0  0  0  0  0  0  0  0  0  0
   -9.5496    6.9633  -11.9591 H   0  0  0  0  0  0  0  0  0  0  0  0
   -7.7780    6.8352  -11.9243 H   0  0  0  0  0  0  0  0  0  0  0  0
   -9.6158    3.4343  -13.5195 H   0  0  0  0  0  0  0  0  0  0  0  0
  -10.6516    4.4512  -12.5123 H   0  0  0  0  0  0  0  0  0  0  0  0
   -9.9573    4.1132   -6.0645 H   0  0  0  0  0  0  0  0  0  0  0  0
   -8.5510    3.0719   -6.3955 H   0  0  0  0  0  0  0  0  0  0  0  0
   -8.3020    4.7022   -5.7728 H   0  0  0  0  0  0  0  0  0  0  0  0
   -7.4148    6.4471  -16.4386 H   0  0  0  0  0  0  0  0  0  0  0  0
   -6.0160    5.3495  -16.4589 H   0  0  0  0  0  0  0  0  0  0  0  0
   -7.0843    5.4901  -17.8719 H   0  0  0  0  0  0  0  0  0  0  0  0
   -8.0724    2.1802  -16.3169 H   0  0  0  0  0  0  0  0  0  0  0  0
   -6.4280    2.7924  -16.3317 H   0  0  0  0  0  0  0  0  0  0  0  0
   -7.4246    2.9192  -17.7981 H   0  0  0  0  0  0  0  0  0  0  0  0
  -10.0348    3.7534  -16.2531 H   0  0  0  0  0  0  0  0  0  0  0  0
   -9.7886    5.5130  -16.2804 H   0  0  0  0  0  0  0  0  0  0  0  0
   -9.5032    4.5299  -17.7345 H   0  0  0  0  0  0  0  0  0  0  0  0
   -9.1812    2.0462   -7.7844 H   0  0  0  0  0  0  0  0  0  0  0  0
   -9.2530    1.7832   -9.5063 H   0  0  0  0  0  0  0  0  0  0  0  0
  1  4  2  0  0  0  0
  1  6  1  0  0  0  0
  2  3  1  0  0  0  0
  2  5  2  0  0  0  0
  2  8  1  0  0  0  0
  3  6  2  0  0  0  0
  3  9  1  0  0  0  0
  4  5  1  0  0  0  0
  4 11  1  0  0  0  0
  5 17  1  0  0  0  0
  6 20  1  0  0  0  0
  7 16  1  0  0  0  0
  7 18  2  0  0  0  0
  7 19  1  0  0  0  0
  8 10  1  0  0  0  0
  9 16  1  0  0  0  0
 10 16  1  0  0  0  0
 12 15  1  0  0  0  0
 13 15  1  0  0  0  0
 14 15  1  0  0  0  0
 15 19  1  0  0  0  0
  1 21  1  0  0  0  0
  8 22  1  0  0  0  0
  8 23  1  0  0  0  0
  9 24  1  0  0  0  0
  9 25  1  0  0  0  0
 10 26  1  0  0  0  0
 10 27  1  0  0  0  0
 11 28  1  0  0  0  0
 11 29  1  0  0  0  0
 11 30  1  0  0  0  0
 12 31  1  0  0  0  0
 12 32  1  0  0  0  0
 12 33  1  0  0  0  0
 13 34  1  0  0  0  0
 13 35  1  0  0  0  0
 13 36  1  0  0  0  0
 14 37  1  0  0  0  0
 14 38  1  0  0  0  0
 14 39  1  0  0  0  0
 17 40  1  0  0  0  0
 17 41  1  0  0  0  0
M  END
> <id>
EN300-1609878

> <smiles>
CC=1C=C(F)C=2CN(CCC2C1N)C(=O)OC(C)(C)C

> <IUPAC Name>
tert-butyl 5-amino-8-fluoro-6-methyl-1,2,3,4-tetrahydroisoquinoline-2-carboxylate

> <CAS>
2171867-30-2

> <URL>
https://www.enaminestore.com/catalog/EN300-1609878

> <ROCS_ShapeQuery>
_x0404_0B

> <ROCS_TanimotoCombo>
0.376 

> <ROCS_ShapeTanimoto>
0.300 

> <ROCS_ColorTanimoto>
0.076 

> <ROCS_RefTversky>
0.272 

> <ROCS_RefColorTversky>
0.080 

> <ROCS_RefTverskyCombo>
0.352 

> <ROCS_FitTversky>
1.519 

> <ROCS_FitColorTversky>
0.606 

> <ROCS_FitTverskyCombo>
2.125 

> <ROCS_ColorScore>
-5.751

> <ROCS_Overlap>
1816.869

> <ROCS_Rank>
314                 

$$$$
untitled-dbase-42895_0
  -OEChem-08212314543D

 43 44  0     1  0  0  0  0  0999 V2000
   -8.6199    5.7067  -14.3889 C   0  0  0  0  0  0  0  0  0  0  0  0
   -8.0164    5.3879   -8.8476 C   0  0  0  0  0  0  0  0  0  0  0  0
   -8.6157    4.2227   -8.0646 C   0  0  0  0  0  0  0  0  0  0  0  0
   -8.1674    6.7803  -10.9603 C   0  0  0  0  0  0  0  0  0  0  0  0
   -9.4313    3.1844  -10.2222 C   0  0  0  0  0  0  0  0  0  0  0  0
   -8.9056    6.9835  -12.2814 C   0  0  0  0  0  0  0  0  0  0  0  0
   -9.5623    4.5874  -12.3250 C   0  0  0  0  0  0  0  0  0  0  0  0
   -8.7774    5.6245  -10.1576 C   0  0  1  0  0  0  0  0  0  0  0  0
   -8.8100    4.3414  -11.0118 C   0  0  1  0  0  0  0  0  0  0  0  0
   -8.6904    2.9495   -8.9048 C   0  0  2  0  0  0  0  0  0  0  0  0
   -6.9274    4.7255  -16.4783 C   0  0  0  0  0  0  0  0  0  0  0  0
   -8.6321    2.9007  -16.7492 C   0  0  0  0  0  0  0  0  0  0  0  0
   -9.2864    5.2925  -17.1480 C   0  0  0  0  0  0  0  0  0  0  0  0
   -8.4017    4.3514  -16.3317 C   0  0  0  0  0  0  0  0  0  0  0  0
   -8.9959    5.7371  -13.0420 N   0  0  0  0  0  0  0  0  0  0  0  0
   -8.2024    6.6801  -15.0139 O   0  0  0  0  0  0  0  0  0  0  0  0
   -9.3629    1.9471   -8.1502 O   0  0  0  0  0  0  0  0  0  0  0  0
   -8.7658    4.4661  -14.9512 O   0  0  0  0  0  0  0  0  0  0  0  0
   -8.0441    6.2928   -8.2292 H   0  0  0  0  0  0  0  0  0  0  0  0
   -6.9602    5.1783   -9.0590 H   0  0  0  0  0  0  0  0  0  0  0  0
   -8.0244    4.0348   -7.1602 H   0  0  0  0  0  0  0  0  0  0  0  0
   -9.6198    4.4907   -7.7102 H   0  0  0  0  0  0  0  0  0  0  0  0
   -7.1076    6.5808  -11.1635 H   0  0  0  0  0  0  0  0  0  0  0  0
   -8.2111    7.7060  -10.3744 H   0  0  0  0  0  0  0  0  0  0  0  0
  -10.4917    3.3847  -10.0181 H   0  0  0  0  0  0  0  0  0  0  0  0
   -9.4147    2.2639  -10.8190 H   0  0  0  0  0  0  0  0  0  0  0  0
   -9.9318    7.3222  -12.0952 H   0  0  0  0  0  0  0  0  0  0  0  0
   -8.4072    7.7612  -12.8687 H   0  0  0  0  0  0  0  0  0  0  0  0
   -9.5370    3.6847  -12.9421 H   0  0  0  0  0  0  0  0  0  0  0  0
  -10.6171    4.8193  -12.1328 H   0  0  0  0  0  0  0  0  0  0  0  0
   -9.8109    5.9006   -9.9022 H   0  0  0  0  0  0  0  0  0  0  0  0
   -7.7771    4.0595  -11.2638 H   0  0  0  0  0  0  0  0  0  0  0  0
   -7.6752    2.5884   -9.1087 H   0  0  0  0  0  0  0  0  0  0  0  0
   -6.7579    5.7662  -16.1795 H   0  0  0  0  0  0  0  0  0  0  0  0
   -6.2851    4.0801  -15.8703 H   0  0  0  0  0  0  0  0  0  0  0  0
   -6.6064    4.6477  -17.5234 H   0  0  0  0  0  0  0  0  0  0  0  0
   -9.6885    2.6279  -16.6456 H   0  0  0  0  0  0  0  0  0  0  0  0
   -8.0715    2.2150  -16.1036 H   0  0  0  0  0  0  0  0  0  0  0  0
   -8.3290    2.7258  -17.7866 H   0  0  0  0  0  0  0  0  0  0  0  0
  -10.3439    5.0244  -17.0429 H   0  0  0  0  0  0  0  0  0  0  0  0
   -9.1616    6.3347  -16.8367 H   0  0  0  0  0  0  0  0  0  0  0  0
   -9.0531    5.2179  -18.2163 H   0  0  0  0  0  0  0  0  0  0  0  0
   -8.8396    1.8075   -7.3452 H   0  0  0  0  0  0  0  0  0  0  0  0
  1 15  1  0  0  0  0
  1 16  2  0  0  0  0
  1 18  1  0  0  0  0
  2  3  1  0  0  0  0
  2  8  1  0  0  0  0
  3 10  1  0  0  0  0
  4  6  1  0  0  0  0
  4  8  1  0  0  0  0
  5  9  1  0  0  0  0
  5 10  1  0  0  0  0
  6 15  1  0  0  0  0
  7  9  1  0  0  0  0
  7 15  1  0  0  0  0
  8  9  1  0  0  0  0
 10 17  1  0  0  0  0
 11 14  1  0  0  0  0
 12 14  1  0  0  0  0
 13 14  1  0  0  0  0
 14 18  1  0  0  0  0
  2 19  1  0  0  0  0
  2 20  1  0  0  0  0
  3 21  1  0  0  0  0
  3 22  1  0  0  0  0
  4 23  1  0  0  0  0
  4 24  1  0  0  0  0
  5 25  1  0  0  0  0
  5 26  1  0  0  0  0
  6 27  1  0  0  0  0
  6 28  1  0  0  0  0
  7 29  1  0  0  0  0
  7 30  1  0  0  0  0
  8 31  1  0  0  0  0
  9 32  1  0  0  0  0
 10 33  1  0  0  0  0
 11 34  1  0  0  0  0
 11 35  1  0  0  0  0
 11 36  1  0  0  0  0
 12 37  1  0  0  0  0
 12 38  1  0  0  0  0
 12 39  1  0  0  0  0
 13 40  1  0  0  0  0
 13 41  1  0  0  0  0
 13 42  1  0  0  0  0
 17 43  1  0  0  0  0
M  END
> <id>
EN300-6748635

> <smiles>
CC(C)(C)OC(=O)N1CCC2CCC(O)CC2C1

> <IUPAC Name>
tert-butyl 7-hydroxy-decahydroisoquinoline-2-carboxylate

> <CAS>
1784313-72-9

> <URL>
https://www.enaminestore.com/catalog/EN300-6748635

> <ROCS_ShapeQuery>
_x0404_0B

> <ROCS_TanimotoCombo>
0.376 

> <ROCS_ShapeTanimoto>
0.292 

> <ROCS_ColorTanimoto>
0.084 

> <ROCS_RefTversky>
0.263 

> <ROCS_RefColorTversky>
0.088 

> <ROCS_RefTverskyCombo>
0.351 

> <ROCS_FitTversky>
1.612 

> <ROCS_FitColorTversky>
0.669 

> <ROCS_FitTverskyCombo>
2.282 

> <ROCS_ColorScore>
-6.348

> <ROCS_Overlap>
1750.385

> <ROCS_Rank>
315                 

$$$$
untitled-dbase-27015_203
  -OEChem-08212314543D

 42 43  0     1  0  0  0  0  0999 V2000
   -8.2716    5.8513  -14.4497 C   0  0  0  0  0  0  0  0  0  0  0  0
   -8.4010    6.0320  -10.7414 C   0  0  0  0  0  0  0  0  0  0  0  0
   -9.0204    3.6649  -11.4756 C   0  0  0  0  0  0  0  0  0  0  0  0
   -7.8699    4.0816   -9.2154 C   0  0  0  0  0  0  0  0  0  0  0  0
   -8.9462    6.3713  -12.1246 C   0  0  0  0  0  0  0  0  0  0  0  0
   -8.1839    4.0554  -12.6891 C   0  0  0  0  0  0  0  0  0  0  0  0
  -10.0031    4.3086   -8.2673 C   0  0  0  0  0  0  0  0  0  0  0  0
   -8.7726    3.4271   -8.1882 C   0  0  1  0  0  0  0  0  0  0  0  0
   -8.8316    4.6260  -10.2828 C   0  0  0  0  0  0  0  0  0  0  0  0
   -7.6429    6.2429  -17.2130 C   0  0  0  0  0  0  0  0  0  0  0  0
   -7.5739    3.7365  -17.3622 C   0  0  0  0  0  0  0  0  0  0  0  0
   -9.7132    4.8936  -16.7353 C   0  0  0  0  0  0  0  0  0  0  0  0
   -8.1885    4.9348  -16.6421 C   0  0  0  0  0  0  0  0  0  0  0  0
   -8.4664    5.4249  -13.1322 N   0  0  0  0  0  0  0  0  0  0  0  0
   -9.1063    2.0535   -8.5532 N   0  0  0  0  0  0  0  0  0  0  0  0
   -8.4781    6.9976  -14.8438 O   0  0  0  0  0  0  0  0  0  0  0  0
  -10.1184    4.7422   -9.6287 O   0  0  0  0  0  0  0  0  0  0  0  0
   -7.8135    4.8480  -15.2627 O   0  0  0  0  0  0  0  0  0  0  0  0
   -7.3060    6.0980  -10.7619 H   0  0  0  0  0  0  0  0  0  0  0  0
   -8.7618    6.7929  -10.0400 H   0  0  0  0  0  0  0  0  0  0  0  0
  -10.0771    3.6532  -11.7765 H   0  0  0  0  0  0  0  0  0  0  0  0
   -8.7597    2.6420  -11.1687 H   0  0  0  0  0  0  0  0  0  0  0  0
   -7.2175    4.8593   -8.7824 H   0  0  0  0  0  0  0  0  0  0  0  0
   -7.1967    3.3267   -9.6627 H   0  0  0  0  0  0  0  0  0  0  0  0
  -10.0422    6.3241  -12.1328 H   0  0  0  0  0  0  0  0  0  0  0  0
   -8.6654    7.3955  -12.3931 H   0  0  0  0  0  0  0  0  0  0  0  0
   -7.1193    3.9234  -12.4567 H   0  0  0  0  0  0  0  0  0  0  0  0
   -8.4031    3.3928  -13.5400 H   0  0  0  0  0  0  0  0  0  0  0  0
  -10.9231    3.7622   -8.0208 H   0  0  0  0  0  0  0  0  0  0  0  0
   -9.9392    5.1812   -7.6073 H   0  0  0  0  0  0  0  0  0  0  0  0
   -8.3396    3.4534   -7.2147 H   0  0  0  0  0  0  0  0  0  0  0  0
   -8.0817    7.1055  -16.6987 H   0  0  0  0  0  0  0  0  0  0  0  0
   -6.5535    6.3001  -17.1204 H   0  0  0  0  0  0  0  0  0  0  0  0
   -7.9063    6.3475  -18.2717 H   0  0  0  0  0  0  0  0  0  0  0  0
   -7.9626    2.7957  -16.9559 H   0  0  0  0  0  0  0  0  0  0  0  0
   -6.4878    3.7096  -17.2182 H   0  0  0  0  0  0  0  0  0  0  0  0
   -7.7806    3.7615  -18.4371 H   0  0  0  0  0  0  0  0  0  0  0  0
  -10.1048    3.9553  -16.3260 H   0  0  0  0  0  0  0  0  0  0  0  0
  -10.1730    5.7259  -16.1928 H   0  0  0  0  0  0  0  0  0  0  0  0
  -10.0409    4.9356  -17.7804 H   0  0  0  0  0  0  0  0  0  0  0  0
   -8.2729    1.5097   -8.5446 H   0  0  0  0  0  0  0  0  0  0  0  0
   -9.7572    1.6971   -7.8901 H   0  0  0  0  0  0  0  0  0  0  0  0
  1 14  1  0  0  0  0
  1 16  2  0  0  0  0
  1 18  1  0  0  0  0
  2  5  1  0  0  0  0
  2  9  1  0  0  0  0
  3  6  1  0  0  0  0
  3  9  1  0  0  0  0
  4  8  1  0  0  0  0
  4  9  1  0  0  0  0
  5 14  1  0  0  0  0
  6 14  1  0  0  0  0
  7  8  1  0  0  0  0
  7 17  1  0  0  0  0
  8 15  1  0  0  0  0
  9 17  1  0  0  0  0
 10 13  1  0  0  0  0
 11 13  1  0  0  0  0
 12 13  1  0  0  0  0
 13 18  1  0  0  0  0
  2 19  1  0  0  0  0
  2 20  1  0  0  0  0
  3 21  1  0  0  0  0
  3 22  1  0  0  0  0
  4 23  1  0  0  0  0
  4 24  1  0  0  0  0
  5 25  1  0  0  0  0
  5 26  1  0  0  0  0
  6 27  1  0  0  0  0
  6 28  1  0  0  0  0
  7 29  1  0  0  0  0
  7 30  1  0  0  0  0
  8 31  1  0  0  0  0
 10 32  1  0  0  0  0
 10 33  1  0  0  0  0
 10 34  1  0  0  0  0
 11 35  1  0  0  0  0
 11 36  1  0  0  0  0
 11 37  1  0  0  0  0
 12 38  1  0  0  0  0
 12 39  1  0  0  0  0
 12 40  1  0  0  0  0
 15 41  1  0  0  0  0
 15 42  1  0  0  0  0
M  END
> <id>
EN300-7433328

> <smiles>
Cl.CC(C)(C)OC(=O)N1CCC2(CC(N)CO2)CC1

> <MDLNUMBER>
MFCD32066715

> <IUPAC Name>
tert-butyl 3-amino-1-oxa-8-azaspiro[4.5]decane-8-carboxylate hydrochloride

> <CAS>
2361644-23-5

> <Purity>
95

> <URL>
https://www.enaminestore.com/catalog/EN300-7433328

> <Saltdate>
Cl

> <ROCS_ShapeQuery>
_x0404_0B

> <ROCS_TanimotoCombo>
0.376 

> <ROCS_ShapeTanimoto>
0.296 

> <ROCS_ColorTanimoto>
0.080 

> <ROCS_RefTversky>
0.266 

> <ROCS_RefColorTversky>
0.085 

> <ROCS_RefTverskyCombo>
0.351 

> <ROCS_FitTversky>
1.615 

> <ROCS_FitColorTversky>
0.587 

> <ROCS_FitTverskyCombo>
2.202 

> <ROCS_ColorScore>
-6.121

> <ROCS_Overlap>
1772.609

> <ROCS_Rank>
316                 

$$$$
untitled-dbase-29844_203
  -OEChem-08212314543D

 42 43  0     1  0  0  0  0  0999 V2000
   -8.2716    5.8513  -14.4497 C   0  0  0  0  0  0  0  0  0  0  0  0
   -8.4010    6.0320  -10.7414 C   0  0  0  0  0  0  0  0  0  0  0  0
   -9.0204    3.6649  -11.4756 C   0  0  0  0  0  0  0  0  0  0  0  0
   -7.8699    4.0816   -9.2154 C   0  0  0  0  0  0  0  0  0  0  0  0
   -8.9462    6.3713  -12.1246 C   0  0  0  0  0  0  0  0  0  0  0  0
   -8.1839    4.0554  -12.6891 C   0  0  0  0  0  0  0  0  0  0  0  0
  -10.0031    4.3086   -8.2673 C   0  0  0  0  0  0  0  0  0  0  0  0
   -8.7726    3.4271   -8.1882 C   0  0  1  0  0  0  0  0  0  0  0  0
   -8.8316    4.6260  -10.2828 C   0  0  0  0  0  0  0  0  0  0  0  0
   -7.6429    6.2429  -17.2130 C   0  0  0  0  0  0  0  0  0  0  0  0
   -7.5739    3.7365  -17.3622 C   0  0  0  0  0  0  0  0  0  0  0  0
   -9.7132    4.8936  -16.7353 C   0  0  0  0  0  0  0  0  0  0  0  0
   -8.1885    4.9348  -16.6421 C   0  0  0  0  0  0  0  0  0  0  0  0
   -8.4664    5.4249  -13.1322 N   0  0  0  0  0  0  0  0  0  0  0  0
   -9.1063    2.0535   -8.5532 N   0  0  0  0  0  0  0  0  0  0  0  0
   -8.4781    6.9976  -14.8438 O   0  0  0  0  0  0  0  0  0  0  0  0
  -10.1184    4.7422   -9.6287 O   0  0  0  0  0  0  0  0  0  0  0  0
   -7.8135    4.8480  -15.2627 O   0  0  0  0  0  0  0  0  0  0  0  0
   -7.3060    6.0980  -10.7619 H   0  0  0  0  0  0  0  0  0  0  0  0
   -8.7618    6.7929  -10.0400 H   0  0  0  0  0  0  0  0  0  0  0  0
  -10.0771    3.6532  -11.7765 H   0  0  0  0  0  0  0  0  0  0  0  0
   -8.7597    2.6420  -11.1687 H   0  0  0  0  0  0  0  0  0  0  0  0
   -7.2175    4.8593   -8.7824 H   0  0  0  0  0  0  0  0  0  0  0  0
   -7.1967    3.3267   -9.6627 H   0  0  0  0  0  0  0  0  0  0  0  0
  -10.0422    6.3241  -12.1328 H   0  0  0  0  0  0  0  0  0  0  0  0
   -8.6654    7.3955  -12.3931 H   0  0  0  0  0  0  0  0  0  0  0  0
   -7.1193    3.9234  -12.4567 H   0  0  0  0  0  0  0  0  0  0  0  0
   -8.4031    3.3928  -13.5400 H   0  0  0  0  0  0  0  0  0  0  0  0
  -10.9231    3.7622   -8.0208 H   0  0  0  0  0  0  0  0  0  0  0  0
   -9.9392    5.1812   -7.6073 H   0  0  0  0  0  0  0  0  0  0  0  0
   -8.3396    3.4534   -7.2147 H   0  0  0  0  0  0  0  0  0  0  0  0
   -8.0817    7.1055  -16.6987 H   0  0  0  0  0  0  0  0  0  0  0  0
   -6.5535    6.3001  -17.1204 H   0  0  0  0  0  0  0  0  0  0  0  0
   -7.9063    6.3475  -18.2717 H   0  0  0  0  0  0  0  0  0  0  0  0
   -7.9626    2.7957  -16.9559 H   0  0  0  0  0  0  0  0  0  0  0  0
   -6.4878    3.7096  -17.2182 H   0  0  0  0  0  0  0  0  0  0  0  0
   -7.7806    3.7615  -18.4371 H   0  0  0  0  0  0  0  0  0  0  0  0
  -10.1048    3.9553  -16.3260 H   0  0  0  0  0  0  0  0  0  0  0  0
  -10.1730    5.7259  -16.1928 H   0  0  0  0  0  0  0  0  0  0  0  0
  -10.0409    4.9356  -17.7804 H   0  0  0  0  0  0  0  0  0  0  0  0
   -8.2729    1.5097   -8.5446 H   0  0  0  0  0  0  0  0  0  0  0  0
   -9.7572    1.6971   -7.8901 H   0  0  0  0  0  0  0  0  0  0  0  0
  1 14  1  0  0  0  0
  1 16  2  0  0  0  0
  1 18  1  0  0  0  0
  2  5  1  0  0  0  0
  2  9  1  0  0  0  0
  3  6  1  0  0  0  0
  3  9  1  0  0  0  0
  4  8  1  0  0  0  0
  4  9  1  0  0  0  0
  5 14  1  0  0  0  0
  6 14  1  0  0  0  0
  7  8  1  0  0  0  0
  7 17  1  0  0  0  0
  8 15  1  0  0  0  0
  9 17  1  0  0  0  0
 10 13  1  0  0  0  0
 11 13  1  0  0  0  0
 12 13  1  0  0  0  0
 13 18  1  0  0  0  0
  2 19  1  0  0  0  0
  2 20  1  0  0  0  0
  3 21  1  0  0  0  0
  3 22  1  0  0  0  0
  4 23  1  0  0  0  0
  4 24  1  0  0  0  0
  5 25  1  0  0  0  0
  5 26  1  0  0  0  0
  6 27  1  0  0  0  0
  6 28  1  0  0  0  0
  7 29  1  0  0  0  0
  7 30  1  0  0  0  0
  8 31  1  0  0  0  0
 10 32  1  0  0  0  0
 10 33  1  0  0  0  0
 10 34  1  0  0  0  0
 11 35  1  0  0  0  0
 11 36  1  0  0  0  0
 11 37  1  0  0  0  0
 12 38  1  0  0  0  0
 12 39  1  0  0  0  0
 12 40  1  0  0  0  0
 15 41  1  0  0  0  0
 15 42  1  0  0  0  0
M  END
> <id>
EN300-3145078

> <smiles>
CC(C)(C)OC(=O)N1CCC2(CC(N)CO2)CC1

> <MDLNUMBER>
MFCD12198529

> <IUPAC Name>
tert-butyl 3-amino-1-oxa-8-azaspiro[4.5]decane-8-carboxylate

> <CAS>
1160246-91-2

> <URL>
https://www.enaminestore.com/catalog/EN300-3145078

> <ROCS_ShapeQuery>
_x0404_0B

> <ROCS_TanimotoCombo>
0.376 

> <ROCS_ShapeTanimoto>
0.296 

> <ROCS_ColorTanimoto>
0.080 

> <ROCS_RefTversky>
0.266 

> <ROCS_RefColorTversky>
0.085 

> <ROCS_RefTverskyCombo>
0.351 

> <ROCS_FitTversky>
1.615 

> <ROCS_FitColorTversky>
0.587 

> <ROCS_FitTverskyCombo>
2.202 

> <ROCS_ColorScore>
-6.121

> <ROCS_Overlap>
1772.609

> <ROCS_Rank>
317                 

$$$$
untitled-dbase-50523_788
  -OEChem-08212314543D

 45 46  0     1  0  0  0  0  0999 V2000
   -8.5321    5.7091  -14.4025 C   0  0  0  0  0  0  0  0  0  0  0  0
   -7.9253    7.0606  -11.0596 C   0  0  0  0  0  0  0  0  0  0  0  0
   -7.7424    5.7021  -10.3756 C   0  0  0  0  0  0  0  0  0  0  0  0
   -8.6572    3.3439  -10.0016 C   0  0  0  0  0  0  0  0  0  0  0  0
   -8.7940    7.0118  -12.3125 C   0  0  0  0  0  0  0  0  0  0  0  0
   -8.8963    4.5053  -12.2318 C   0  0  0  0  0  0  0  0  0  0  0  0
  -10.3939    5.4469   -8.9445 C   0  0  0  0  0  0  0  0  0  0  0  0
   -9.7453    3.0231   -8.9784 C   0  0  2  0  0  0  0  0  0  0  0  0
  -10.0186    4.2342   -8.0962 C   0  0  1  0  0  0  0  0  0  0  0  0
   -8.8771    4.7110  -10.6987 C   0  0  2  0  0  0  0  0  0  0  0  0
   -6.9957    5.0019  -16.7104 C   0  0  0  0  0  0  0  0  0  0  0  0
   -8.2350    2.8182  -16.6391 C   0  0  0  0  0  0  0  0  0  0  0  0
   -9.4958    4.9607  -16.9974 C   0  0  0  0  0  0  0  0  0  0  0  0
   -8.2971    4.3083  -16.3102 C   0  0  0  0  0  0  0  0  0  0  0  0
   -8.6958    5.7362  -13.0121 N   0  0  0  0  0  0  0  0  0  0  0  0
   -8.4609    6.7082  -15.1153 O   0  0  0  0  0  0  0  0  0  0  0  0
  -10.1622    5.2431  -10.3403 O   0  0  0  0  0  0  0  0  0  0  0  0
   -9.3354    1.9107   -8.1927 O   0  0  0  0  0  0  0  0  0  0  0  0
   -8.8471    4.5608   -7.3446 O   0  0  0  0  0  0  0  0  0  0  0  0
   -8.4616    4.4308  -14.8929 O   0  0  0  0  0  0  0  0  0  0  0  0
   -8.3623    7.7819  -10.3409 H   0  0  0  0  0  0  0  0  0  0  0  0
   -6.9314    7.4732  -11.3194 H   0  0  0  0  0  0  0  0  0  0  0  0
   -6.7737    5.2786  -10.6826 H   0  0  0  0  0  0  0  0  0  0  0  0
   -7.6861    5.8742   -9.2902 H   0  0  0  0  0  0  0  0  0  0  0  0
   -7.6859    3.3462   -9.4839 H   0  0  0  0  0  0  0  0  0  0  0  0
   -8.5868    2.5340  -10.7414 H   0  0  0  0  0  0  0  0  0  0  0  0
   -9.8404    7.2313  -12.0454 H   0  0  0  0  0  0  0  0  0  0  0  0
   -8.4822    7.7970  -13.0222 H   0  0  0  0  0  0  0  0  0  0  0  0
   -8.0827    3.8124  -12.5319 H   0  0  0  0  0  0  0  0  0  0  0  0
   -9.8277    4.0054  -12.5560 H   0  0  0  0  0  0  0  0  0  0  0  0
  -11.4411    5.7377   -8.7801 H   0  0  0  0  0  0  0  0  0  0  0  0
   -9.7787    6.3102   -8.6514 H   0  0  0  0  0  0  0  0  0  0  0  0
  -10.6634    2.7295   -9.5024 H   0  0  0  0  0  0  0  0  0  0  0  0
  -10.8102    4.0146   -7.3683 H   0  0  0  0  0  0  0  0  0  0  0  0
   -7.0363    6.0716  -16.4760 H   0  0  0  0  0  0  0  0  0  0  0  0
   -6.1321    4.5660  -16.1976 H   0  0  0  0  0  0  0  0  0  0  0  0
   -6.8298    4.9284  -17.7913 H   0  0  0  0  0  0  0  0  0  0  0  0
   -9.1667    2.3165  -16.3536 H   0  0  0  0  0  0  0  0  0  0  0  0
   -7.4344    2.3269  -16.0744 H   0  0  0  0  0  0  0  0  0  0  0  0
   -8.0620    2.6469  -17.7064 H   0  0  0  0  0  0  0  0  0  0  0  0
  -10.4294    4.4633  -16.7105 H   0  0  0  0  0  0  0  0  0  0  0  0
   -9.5777    6.0225  -16.7433 H   0  0  0  0  0  0  0  0  0  0  0  0
   -9.4184    4.8683  -18.0867 H   0  0  0  0  0  0  0  0  0  0  0  0
   -9.2057    1.1697   -8.8057 H   0  0  0  0  0  0  0  0  0  0  0  0
   -8.6334    3.7762   -6.8182 H   0  0  0  0  0  0  0  0  0  0  0  0
  1 15  1  0  0  0  0
  1 16  2  0  0  0  0
  1 20  1  0  0  0  0
  2  3  1  0  0  0  0
  2  5  1  0  0  0  0
  3 10  1  0  0  0  0
  4  8  1  0  0  0  0
  4 10  1  0  0  0  0
  5 15  1  0  0  0  0
  6 10  1  0  0  0  0
  6 15  1  0  0  0  0
  7  9  1  0  0  0  0
  7 17  1  0  0  0  0
  8  9  1  0  0  0  0
  8 18  1  1  0  0  0
  9 19  1  1  0  0  0
 10 17  1  0  0  0  0
 11 14  1  0  0  0  0
 12 14  1  0  0  0  0
 13 14  1  0  0  0  0
 14 20  1  0  0  0  0
  2 21  1  0  0  0  0
  2 22  1  0  0  0  0
  3 23  1  0  0  0  0
  3 24  1  0  0  0  0
  4 25  1  0  0  0  0
  4 26  1  0  0  0  0
  5 27  1  0  0  0  0
  5 28  1  0  0  0  0
  6 29  1  0  0  0  0
  6 30  1  0  0  0  0
  7 31  1  0  0  0  0
  7 32  1  0  0  0  0
  8 33  1  0  0  0  0
  9 34  1  0  0  0  0
 11 35  1  0  0  0  0
 11 36  1  0  0  0  0
 11 37  1  0  0  0  0
 12 38  1  0  0  0  0
 12 39  1  0  0  0  0
 12 40  1  0  0  0  0
 13 41  1  0  0  0  0
 13 42  1  0  0  0  0
 13 43  1  0  0  0  0
 18 44  1  0  0  0  0
 19 45  1  0  0  0  0
M  END
> <id>
EN300-37397839

> <smiles>
CC(C)(C)OC(=O)N1CCCC2(C[C@@H](O)[C@@H](O)CO2)C1 |&1:13,15,r|

> <IUPAC Name>
rac-tert-butyl (3R,4S)-3,4-dihydroxy-1-oxa-8-azaspiro[5.5]undecane-8-carboxylate

> <URL>
https://www.enaminestore.com/catalog/EN300-37397839

> <ROCS_ShapeQuery>
_x0404_0B

> <ROCS_TanimotoCombo>
0.376 

> <ROCS_ShapeTanimoto>
0.297 

> <ROCS_ColorTanimoto>
0.079 

> <ROCS_RefTversky>
0.270 

> <ROCS_RefColorTversky>
0.085 

> <ROCS_RefTverskyCombo>
0.355 

> <ROCS_FitTversky>
1.522 

> <ROCS_FitColorTversky>
0.501 

> <ROCS_FitTverskyCombo>
2.023 

> <ROCS_ColorScore>
-6.175

> <ROCS_Overlap>
1798.743

> <ROCS_Rank>
318                 

$$$$
untitled-dbase-40619_17
  -OEChem-08212314543D

 51 54  0     1  0  0  0  0  0999 V2000
   -9.2175    2.9943   -7.0837 C   0  0  0  0  0  0  0  0  0  0  0  0
   -9.1347    1.8693   -7.8948 C   0  0  0  0  0  0  0  0  0  0  0  0
   -9.1645    4.2702   -7.6496 C   0  0  0  0  0  0  0  0  0  0  0  0
   -8.9934    2.0196   -9.2717 C   0  0  0  0  0  0  0  0  0  0  0  0
   -9.0232    4.4455   -9.0386 C   0  0  0  0  0  0  0  0  0  0  0  0
   -8.9210    3.2989   -9.8441 C   0  0  0  0  0  0  0  0  0  0  0  0
   -7.5257    3.3697  -14.1967 C   0  0  0  0  0  0  0  0  0  0  0  0
   -7.2365    3.5096  -12.8965 C   0  0  0  0  0  0  0  0  0  0  0  0
   -8.9681    5.8625   -9.5319 C   0  0  0  0  0  0  0  0  0  0  0  0
   -9.2795    5.7265  -14.6188 C   0  0  0  0  0  0  0  0  0  0  0  0
   -7.0938    4.3746  -15.2205 C   0  0  0  0  0  0  0  0  0  0  0  0
   -7.8040    2.6484  -11.8184 C   0  0  0  0  0  0  0  0  0  0  0  0
   -7.6399    9.2279  -12.4184 C   0  0  0  0  0  0  0  0  0  0  0  0
   -7.5731    8.0946  -11.3892 C   0  0  0  0  0  0  0  0  0  0  0  0
   -8.9435    9.0263  -13.1963 C   0  0  0  0  0  0  0  0  0  0  0  0
   -9.0802    4.3740  -16.9080 C   0  0  0  0  0  0  0  0  0  0  0  0
   -7.9755    6.1373  -16.8917 C   0  0  0  0  0  0  0  0  0  0  0  0
   -8.9509    7.4324  -11.4489 C   0  0  1  0  0  0  0  0  0  0  0  0
   -9.3579    7.5773  -12.9209 C   0  0  2  0  0  0  0  0  0  0  0  0
   -8.3349    5.1262  -15.7536 C   0  0  0  0  0  0  0  0  0  0  0  0
   -8.9740    6.0876  -10.9056 N   0  0  0  0  0  0  0  0  0  0  0  0
   -8.6488    6.6915  -13.8426 N   0  0  0  0  0  0  0  0  0  0  0  0
   -8.2220    5.0737  -17.8799 N   0  0  0  0  0  0  0  0  0  0  0  0
   -8.9259    6.7744   -8.7053 O   0  0  0  0  0  0  0  0  0  0  0  0
  -10.4593    5.3991  -14.4571 O   0  0  0  0  0  0  0  0  0  0  0  0
   -8.8204    3.4424  -11.1977 O   0  0  0  0  0  0  0  0  0  0  0  0
   -9.3276    2.8838   -6.0081 H   0  0  0  0  0  0  0  0  0  0  0  0
   -9.1883    0.8784   -7.4576 H   0  0  0  0  0  0  0  0  0  0  0  0
   -9.2264    5.1304   -6.9815 H   0  0  0  0  0  0  0  0  0  0  0  0
   -8.9586    1.1215   -9.8792 H   0  0  0  0  0  0  0  0  0  0  0  0
   -8.0975    2.5281  -14.5372 H   0  0  0  0  0  0  0  0  0  0  0  0
   -6.5412    4.2947  -12.5859 H   0  0  0  0  0  0  0  0  0  0  0  0
   -6.3809    5.0565  -14.7507 H   0  0  0  0  0  0  0  0  0  0  0  0
   -6.5699    3.8925  -16.0502 H   0  0  0  0  0  0  0  0  0  0  0  0
   -8.2489    1.7660  -12.2704 H   0  0  0  0  0  0  0  0  0  0  0  0
   -7.0340    2.3708  -11.1021 H   0  0  0  0  0  0  0  0  0  0  0  0
   -7.6190   10.2110  -11.9385 H   0  0  0  0  0  0  0  0  0  0  0  0
   -6.7780    9.1716  -13.0921 H   0  0  0  0  0  0  0  0  0  0  0  0
   -6.7807    7.3949  -11.6726 H   0  0  0  0  0  0  0  0  0  0  0  0
   -7.3473    8.4692  -10.3884 H   0  0  0  0  0  0  0  0  0  0  0  0
   -9.7094    9.7051  -12.8005 H   0  0  0  0  0  0  0  0  0  0  0  0
   -8.8301    9.2555  -14.2607 H   0  0  0  0  0  0  0  0  0  0  0  0
   -8.9885    3.2829  -16.9194 H   0  0  0  0  0  0  0  0  0  0  0  0
  -10.1433    4.6266  -17.0118 H   0  0  0  0  0  0  0  0  0  0  0  0
   -8.6663    6.9844  -16.9963 H   0  0  0  0  0  0  0  0  0  0  0  0
   -6.9548    6.5334  -16.8977 H   0  0  0  0  0  0  0  0  0  0  0  0
   -9.6477    8.0546  -10.8473 H   0  0  0  0  0  0  0  0  0  0  0  0
  -10.4291    7.4452  -13.0651 H   0  0  0  0  0  0  0  0  0  0  0  0
   -8.9947    5.2992  -11.5335 H   0  0  0  0  0  0  0  0  0  0  0  0
   -7.6315    6.7886  -13.9195 H   0  0  0  0  0  0  0  0  0  0  0  0
   -7.3807    4.5491  -18.1245 H   0  0  0  0  0  0  0  0  0  0  0  0
  1  2  2  0  0  0  0
  1  3  1  0  0  0  0
  2  4  1  0  0  0  0
  3  5  2  0  0  0  0
  4  6  2  0  0  0  0
  5  6  1  0  0  0  0
  5  9  1  0  0  0  0
  6 26  1  0  0  0  0
  7  8  2  0  0  0  0
  7 11  1  0  0  0  0
  8 12  1  0  0  0  0
  9 21  1  0  0  0  0
  9 24  2  0  0  0  0
 10 20  1  0  0  0  0
 10 22  1  0  0  0  0
 10 25  2  0  0  0  0
 11 20  1  0  0  0  0
 12 26  1  0  0  0  0
 13 14  1  0  0  0  0
 13 15  1  0  0  0  0
 14 18  1  1  0  0  0
 15 19  1  1  0  0  0
 16 20  1  0  0  0  0
 16 23  1  0  0  0  0
 17 20  1  0  0  0  0
 17 23  1  0  0  0  0
 18 19  1  0  0  0  0
 18 21  1  0  0  0  0
 19 22  1  0  0  0  0
  1 27  1  0  0  0  0
  2 28  1  0  0  0  0
  3 29  1  0  0  0  0
  4 30  1  0  0  0  0
  7 31  1  0  0  0  0
  8 32  1  0  0  0  0
 11 33  1  0  0  0  0
 11 34  1  0  0  0  0
 12 35  1  0  0  0  0
 12 36  1  0  0  0  0
 13 37  1  0  0  0  0
 13 38  1  0  0  0  0
 14 39  1  0  0  0  0
 14 40  1  0  0  0  0
 15 41  1  0  0  0  0
 15 42  1  0  0  0  0
 16 43  1  0  0  0  0
 16 44  1  0  0  0  0
 17 45  1  0  0  0  0
 17 46  1  0  0  0  0
 18 47  1  0  0  0  0
 19 48  1  0  0  0  0
 21 49  1  0  0  0  0
 22 50  1  0  0  0  0
 23 51  1  0  0  0  0
M  END
> <id>
EN300-6486351

> <smiles>
OC(=O)C(F)(F)F.O=C1N[C@H]2CCC[C@H]2NC(=O)C3(CNC3)C/C=C/COC=4C=CC=CC14

> <MDLNUMBER>
MFCD31736688

> <IUPAC Name>
(4'S,8'R,13'E)-16'-oxa-3',9'-diazaspiro[azetidine-3,11'-tricyclo[15.4.0.0,4,8]henicosane]-1'(17'),13',18',20'-tetraene-2',10'-dione; trifluoroacetic acid

> <CAS>
2648865-87-4

> <URL>
https://www.enaminestore.com/catalog/EN300-6486351

> <Saltdate>
OC(=O)C(F)(F)F

> <ROCS_ShapeQuery>
_x0404_0B

> <ROCS_TanimotoCombo>
0.376 

> <ROCS_ShapeTanimoto>
0.335 

> <ROCS_ColorTanimoto>
0.041 

> <ROCS_RefTversky>
0.306 

> <ROCS_RefColorTversky>
0.046 

> <ROCS_RefTverskyCombo>
0.352 

> <ROCS_FitTversky>
1.402 

> <ROCS_FitColorTversky>
0.253 

> <ROCS_FitTverskyCombo>
1.655 

> <ROCS_ColorScore>
-3.360

> <ROCS_Overlap>
2042.349

> <ROCS_Rank>
319                 

$$$$
untitled-dbase-40620_44
  -OEChem-08212314543D

 47 49  0     1  0  0  0  0  0999 V2000
   -9.9634    3.0278   -7.3361 C   0  0  0  0  0  0  0  0  0  0  0  0
   -9.4327    1.8732   -7.9006 C   0  0  0  0  0  0  0  0  0  0  0  0
   -9.6691    4.2728   -7.8913 C   0  0  0  0  0  0  0  0  0  0  0  0
   -8.6065    1.9601   -9.0212 C   0  0  0  0  0  0  0  0  0  0  0  0
   -8.8461    4.3741   -9.0249 C   0  0  0  0  0  0  0  0  0  0  0  0
   -8.3144    3.2051   -9.5962 C   0  0  0  0  0  0  0  0  0  0  0  0
   -7.5799    3.0604  -14.0205 C   0  0  0  0  0  0  0  0  0  0  0  0
   -6.9068    2.8375  -12.8819 C   0  0  0  0  0  0  0  0  0  0  0  0
   -8.6055    5.7499   -9.5504 C   0  0  0  0  0  0  0  0  0  0  0  0
   -7.9865    6.1477  -14.8044 C   0  0  0  0  0  0  0  0  0  0  0  0
   -6.9471    3.6941  -15.2265 C   0  0  0  0  0  0  0  0  0  0  0  0
   -7.5252    2.2917  -11.6355 C   0  0  0  0  0  0  0  0  0  0  0  0
   -7.2821    7.2361  -12.6553 C   0  0  0  0  0  0  0  0  0  0  0  0
   -9.1109    4.3903  -16.4599 C   0  0  0  0  0  0  0  0  0  0  0  0
   -7.3614    5.2439  -17.2064 C   0  0  0  0  0  0  0  0  0  0  0  0
   -8.4015    7.1605  -11.6060 C   0  0  1  0  0  0  0  0  0  0  0  0
   -7.8007    4.8684  -15.7527 C   0  0  0  0  0  0  0  0  0  0  0  0
   -9.7836    7.4690  -12.1780 C   0  0  0  0  0  0  0  0  0  0  0  0
   -8.4392    5.8682  -10.9231 N   0  0  0  0  0  0  0  0  0  0  0  0
   -7.2643    6.1450  -13.6165 N   0  0  0  0  0  0  0  0  0  0  0  0
   -8.7775    5.2383  -17.6198 N   0  0  0  0  0  0  0  0  0  0  0  0
   -8.6139    6.6952   -8.7650 O   0  0  0  0  0  0  0  0  0  0  0  0
   -8.7168    7.0997  -15.1153 O   0  0  0  0  0  0  0  0  0  0  0  0
   -7.4593    3.3346  -10.6576 O   0  0  0  0  0  0  0  0  0  0  0  0
  -10.6101    2.9613   -6.4664 H   0  0  0  0  0  0  0  0  0  0  0  0
   -9.6701    0.9025   -7.4767 H   0  0  0  0  0  0  0  0  0  0  0  0
  -10.0820    5.1669   -7.4226 H   0  0  0  0  0  0  0  0  0  0  0  0
   -8.2143    1.0382   -9.4452 H   0  0  0  0  0  0  0  0  0  0  0  0
   -8.6222    2.8009  -14.0844 H   0  0  0  0  0  0  0  0  0  0  0  0
   -5.8365    3.0590  -12.8452 H   0  0  0  0  0  0  0  0  0  0  0  0
   -5.9427    4.0325  -14.9355 H   0  0  0  0  0  0  0  0  0  0  0  0
   -6.8005    2.9566  -16.0286 H   0  0  0  0  0  0  0  0  0  0  0  0
   -8.5719    2.0446  -11.8306 H   0  0  0  0  0  0  0  0  0  0  0  0
   -6.9914    1.3973  -11.2988 H   0  0  0  0  0  0  0  0  0  0  0  0
   -7.3426    8.1882  -13.2010 H   0  0  0  0  0  0  0  0  0  0  0  0
   -6.3057    7.2187  -12.1512 H   0  0  0  0  0  0  0  0  0  0  0  0
   -9.1851    3.3189  -16.6848 H   0  0  0  0  0  0  0  0  0  0  0  0
  -10.0443    4.6922  -15.9629 H   0  0  0  0  0  0  0  0  0  0  0  0
   -6.8916    6.2321  -17.3082 H   0  0  0  0  0  0  0  0  0  0  0  0
   -6.7342    4.5211  -17.7400 H   0  0  0  0  0  0  0  0  0  0  0  0
   -8.1913    7.9257  -10.8390 H   0  0  0  0  0  0  0  0  0  0  0  0
  -10.0376    6.7374  -12.9431 H   0  0  0  0  0  0  0  0  0  0  0  0
   -9.7857    8.4636  -12.6204 H   0  0  0  0  0  0  0  0  0  0  0  0
  -10.5281    7.4293  -11.3848 H   0  0  0  0  0  0  0  0  0  0  0  0
   -8.3398    5.0251  -11.4750 H   0  0  0  0  0  0  0  0  0  0  0  0
   -6.6895    5.3312  -13.4077 H   0  0  0  0  0  0  0  0  0  0  0  0
   -8.9320    4.7735  -18.5151 H   0  0  0  0  0  0  0  0  0  0  0  0
  1  2  2  0  0  0  0
  1  3  1  0  0  0  0
  2  4  1  0  0  0  0
  3  5  2  0  0  0  0
  4  6  2  0  0  0  0
  5  6  1  0  0  0  0
  5  9  1  0  0  0  0
  6 24  1  0  0  0  0
  7  8  2  0  0  0  0
  7 11  1  0  0  0  0
  8 12  1  0  0  0  0
  9 19  1  0  0  0  0
  9 22  2  0  0  0  0
 10 17  1  0  0  0  0
 10 20  1  0  0  0  0
 10 23  2  0  0  0  0
 11 17  1  0  0  0  0
 12 24  1  0  0  0  0
 13 16  1  0  0  0  0
 13 20  1  0  0  0  0
 14 17  1  0  0  0  0
 14 21  1  0  0  0  0
 15 17  1  0  0  0  0
 15 21  1  0  0  0  0
 16 18  1  6  0  0  0
 16 19  1  0  0  0  0
  1 25  1  0  0  0  0
  2 26  1  0  0  0  0
  3 27  1  0  0  0  0
  4 28  1  0  0  0  0
  7 29  1  0  0  0  0
  8 30  1  0  0  0  0
 11 31  1  0  0  0  0
 11 32  1  0  0  0  0
 12 33  1  0  0  0  0
 12 34  1  0  0  0  0
 13 35  1  0  0  0  0
 13 36  1  0  0  0  0
 14 37  1  0  0  0  0
 14 38  1  0  0  0  0
 15 39  1  0  0  0  0
 15 40  1  0  0  0  0
 16 41  1  0  0  0  0
 18 42  1  0  0  0  0
 18 43  1  0  0  0  0
 18 44  1  0  0  0  0
 19 45  1  0  0  0  0
 20 46  1  0  0  0  0
 21 47  1  0  0  0  0
M  END
> <id>
EN300-6486914

> <smiles>
C[C@@H]1CNC(=O)C2(CNC2)C/C=C/COC=3C=CC=CC3C(=O)N1.OC(=O)C(F)(F)F

> <MDLNUMBER>
MFCD31736691

> <IUPAC Name>
(3'E,10'R)-10'-methyl-2',5',7',8',9',10',11',12'-octahydrospiro[azetidine-3,6'-[1,8,11]benzoxadiazacyclotetradecin]-3'-ene-7',12'-dione; trifluoroacetic acid

> <CAS>
2648861-74-7

> <URL>
https://www.enaminestore.com/catalog/EN300-6486914

> <Saltdate>
OC(=O)C(F)(F)F

> <ROCS_ShapeQuery>
_x0404_0B

> <ROCS_TanimotoCombo>
0.376 

> <ROCS_ShapeTanimoto>
0.320 

> <ROCS_ColorTanimoto>
0.056 

> <ROCS_RefTversky>
0.291 

> <ROCS_RefColorTversky>
0.062 

> <ROCS_RefTverskyCombo>
0.353 

> <ROCS_FitTversky>
1.434 

> <ROCS_FitColorTversky>
0.363 

> <ROCS_FitTverskyCombo>
1.798 

> <ROCS_ColorScore>
-4.482

> <ROCS_Overlap>
1946.578

> <ROCS_Rank>
320                 

$$$$
untitled-dbase-40688_110
  -OEChem-08212314543D

 40 41  0     0  0  0  0  0  0999 V2000
   -8.8897    4.4249  -10.0960 C   0  0  0  0  0  0  0  0  0  0  0  0
   -8.9450    5.7988   -9.8774 C   0  0  0  0  0  0  0  0  0  0  0  0
   -8.8047    3.6478   -8.9426 C   0  0  0  0  0  0  0  0  0  0  0  0
   -8.8869    5.4642   -7.6005 C   0  0  0  0  0  0  0  0  0  0  0  0
   -8.4408    5.6959  -14.5018 C   0  0  0  0  0  0  0  0  0  0  0  0
   -8.8566    3.7356  -11.4305 C   0  0  0  0  0  0  0  0  0  0  0  0
   -9.0237    6.8206  -10.9802 C   0  0  0  0  0  0  0  0  0  0  0  0
   -9.5351    4.4596  -12.5913 C   0  0  0  0  0  0  0  0  0  0  0  0
   -8.1529    6.5320  -12.1990 C   0  0  0  0  0  0  0  0  0  0  0  0
   -8.9030    6.0501   -6.2304 C   0  0  0  0  0  0  0  0  0  0  0  0
   -6.7428    5.2163  -16.7562 C   0  0  0  0  0  0  0  0  0  0  0  0
   -8.0840    3.1182  -17.0855 C   0  0  0  0  0  0  0  0  0  0  0  0
   -9.2075    5.3588  -17.2457 C   0  0  0  0  0  0  0  0  0  0  0  0
   -8.1050    4.5523  -16.5609 C   0  0  0  0  0  0  0  0  0  0  0  0
   -8.9588    6.3302   -8.6265 N   0  0  0  0  0  0  0  0  0  0  0  0
   -8.8044    4.1302   -7.6842 N   0  0  0  0  0  0  0  0  0  0  0  0
   -8.7275    5.5610  -13.1332 N   0  0  0  0  0  0  0  0  0  0  0  0
   -8.2604    6.7739  -15.0666 O   0  0  0  0  0  0  0  0  0  0  0  0
   -8.3869    4.4944  -15.1578 O   0  0  0  0  0  0  0  0  0  0  0  0
   -8.6815    1.9236   -8.9402 Cl  0  0  0  0  0  0  0  0  0  0  0  0
   -7.8205    3.5254  -11.7590 H   0  0  0  0  0  0  0  0  0  0  0  0
   -9.2913    2.7195  -11.3079 H   0  0  0  0  0  0  0  0  0  0  0  0
  -10.0806    6.9593  -11.2741 H   0  0  0  0  0  0  0  0  0  0  0  0
   -8.7140    7.7993  -10.5692 H   0  0  0  0  0  0  0  0  0  0  0  0
   -9.7791    3.7718  -13.4165 H   0  0  0  0  0  0  0  0  0  0  0  0
  -10.4922    4.8722  -12.2377 H   0  0  0  0  0  0  0  0  0  0  0  0
   -7.9685    7.4836  -12.7340 H   0  0  0  0  0  0  0  0  0  0  0  0
   -7.1471    6.1689  -11.9023 H   0  0  0  0  0  0  0  0  0  0  0  0
   -9.9331    6.1346   -5.8626 H   0  0  0  0  0  0  0  0  0  0  0  0
   -8.3320    5.4317   -5.5254 H   0  0  0  0  0  0  0  0  0  0  0  0
   -8.4466    7.0488   -6.2178 H   0  0  0  0  0  0  0  0  0  0  0  0
   -6.7538    6.2459  -16.3809 H   0  0  0  0  0  0  0  0  0  0  0  0
   -5.9485    4.6667  -16.2405 H   0  0  0  0  0  0  0  0  0  0  0  0
   -6.4867    5.2778  -17.8201 H   0  0  0  0  0  0  0  0  0  0  0  0
   -9.0594    2.6379  -16.9474 H   0  0  0  0  0  0  0  0  0  0  0  0
   -7.3595    2.5105  -16.5313 H   0  0  0  0  0  0  0  0  0  0  0  0
   -7.8265    3.0807  -18.1489 H   0  0  0  0  0  0  0  0  0  0  0  0
  -10.1847    4.8827  -17.1058 H   0  0  0  0  0  0  0  0  0  0  0  0
   -9.2616    6.3803  -16.8554 H   0  0  0  0  0  0  0  0  0  0  0  0
   -9.0395    5.4079  -18.3277 H   0  0  0  0  0  0  0  0  0  0  0  0
  1  2  1  0  0  0  0
  1  3  2  0  0  0  0
  1  6  1  0  0  0  0
  2  7  1  0  0  0  0
  2 15  2  0  0  0  0
  3 16  1  0  0  0  0
  3 20  1  0  0  0  0
  4 10  1  0  0  0  0
  4 15  1  0  0  0  0
  4 16  2  0  0  0  0
  5 17  1  0  0  0  0
  5 18  2  0  0  0  0
  5 19  1  0  0  0  0
  6  8  1  0  0  0  0
  7  9  1  0  0  0  0
  8 17  1  0  0  0  0
  9 17  1  0  0  0  0
 11 14  1  0  0  0  0
 12 14  1  0  0  0  0
 13 14  1  0  0  0  0
 14 19  1  0  0  0  0
  6 21  1  0  0  0  0
  6 22  1  0  0  0  0
  7 23  1  0  0  0  0
  7 24  1  0  0  0  0
  8 25  1  0  0  0  0
  8 26  1  0  0  0  0
  9 27  1  0  0  0  0
  9 28  1  0  0  0  0
 10 29  1  0  0  0  0
 10 30  1  0  0  0  0
 10 31  1  0  0  0  0
 11 32  1  0  0  0  0
 11 33  1  0  0  0  0
 11 34  1  0  0  0  0
 12 35  1  0  0  0  0
 12 36  1  0  0  0  0
 12 37  1  0  0  0  0
 13 38  1  0  0  0  0
 13 39  1  0  0  0  0
 13 40  1  0  0  0  0
M  END
> <id>
EN300-7471910

> <smiles>
CC=1N=C(Cl)C=2CCN(CCC2N1)C(=O)OC(C)(C)C

> <MDLNUMBER>
MFCD28717406

> <IUPAC Name>
tert-butyl 4-chloro-2-methyl-5H,6H,7H,8H,9H-pyrimido[4,5-d]azepine-7-carboxylate

> <CAS>
1936592-58-3

> <Purity>
95

> <URL>
https://www.enaminestore.com/catalog/EN300-7471910

> <ROCS_ShapeQuery>
_x0404_0B

> <ROCS_TanimotoCombo>
0.376 

> <ROCS_ShapeTanimoto>
0.311 

> <ROCS_ColorTanimoto>
0.065 

> <ROCS_RefTversky>
0.279 

> <ROCS_RefColorTversky>
0.069 

> <ROCS_RefTverskyCombo>
0.348 

> <ROCS_FitTversky>
1.569 

> <ROCS_FitColorTversky>
0.523 

> <ROCS_FitTverskyCombo>
2.092 

> <ROCS_ColorScore>
-4.965

> <ROCS_Overlap>
1862.810

> <ROCS_Rank>
321                 

$$$$
untitled-dbase-26005_2
  -OEChem-08212314543D

 47 49  0     1  0  0  0  0  0999 V2000
   -7.9640    5.0210  -17.7856 C   0  0  0  0  0  0  0  0  0  0  0  0
   -7.5022    3.8069  -17.2727 C   0  0  0  0  0  0  0  0  0  0  0  0
   -8.3531    6.0461  -16.9235 C   0  0  0  0  0  0  0  0  0  0  0  0
   -7.8050    4.6504  -15.0241 C   0  0  0  0  0  0  0  0  0  0  0  0
   -7.4267    3.6165  -15.8886 C   0  0  0  0  0  0  0  0  0  0  0  0
   -8.2923    5.8515  -15.5440 C   0  0  0  0  0  0  0  0  0  0  0  0
   -9.4512    5.3731  -11.6158 C   0  0  0  0  0  0  0  0  0  0  0  0
   -9.1118    6.3893  -12.4244 C   0  0  0  0  0  0  0  0  0  0  0  0
   -6.8968    2.3313  -15.3655 C   0  0  0  0  0  0  0  0  0  0  0  0
   -7.3532    3.2037  -10.9369 C   0  0  0  0  0  0  0  0  0  0  0  0
   -8.8924    5.1930  -10.2331 C   0  0  0  0  0  0  0  0  0  0  0  0
   -9.6835    6.5759  -13.7985 C   0  0  0  0  0  0  0  0  0  0  0  0
   -6.3854    1.1534  -12.0203 C   0  0  0  0  0  0  0  0  0  0  0  0
   -9.7822    2.8193   -9.7452 C   0  0  0  0  0  0  0  0  0  0  0  0
   -8.2622    3.4453   -8.4645 C   0  0  0  0  0  0  0  0  0  0  0  0
   -6.9260    0.7676  -13.4037 C   0  0  1  0  0  0  0  0  0  0  0  0
   -8.5254    3.7128   -9.9796 C   0  0  0  0  0  0  0  0  0  0  0  0
   -8.0572   -0.2547  -13.3223 C   0  0  0  0  0  0  0  0  0  0  0  0
   -7.3808    1.9524  -14.1240 N   0  0  0  0  0  0  0  0  0  0  0  0
   -7.3694    1.8356  -11.1926 N   0  0  0  0  0  0  0  0  0  0  0  0
   -9.1414    2.2623   -8.5386 N   0  0  0  0  0  0  0  0  0  0  0  0
   -6.0924    1.6937  -16.0385 O   0  0  0  0  0  0  0  0  0  0  0  0
   -6.4839    3.9513  -11.4017 O   0  0  0  0  0  0  0  0  0  0  0  0
   -8.6486    6.9017  -14.7385 O   0  0  0  0  0  0  0  0  0  0  0  0
   -8.0095    5.1702  -18.8604 H   0  0  0  0  0  0  0  0  0  0  0  0
   -7.2002    3.0217  -17.9636 H   0  0  0  0  0  0  0  0  0  0  0  0
   -8.6987    6.9873  -17.3342 H   0  0  0  0  0  0  0  0  0  0  0  0
   -7.6770    4.5298  -13.9597 H   0  0  0  0  0  0  0  0  0  0  0  0
  -10.1863    4.6533  -11.9472 H   0  0  0  0  0  0  0  0  0  0  0  0
   -8.3983    7.1339  -12.0798 H   0  0  0  0  0  0  0  0  0  0  0  0
   -8.0159    5.8372  -10.0910 H   0  0  0  0  0  0  0  0  0  0  0  0
   -9.6410    5.5215   -9.5025 H   0  0  0  0  0  0  0  0  0  0  0  0
  -10.2949    5.7355  -14.1401 H   0  0  0  0  0  0  0  0  0  0  0  0
  -10.3472    7.4449  -13.7675 H   0  0  0  0  0  0  0  0  0  0  0  0
   -6.0567    0.2625  -11.4617 H   0  0  0  0  0  0  0  0  0  0  0  0
   -5.5070    1.8103  -12.1160 H   0  0  0  0  0  0  0  0  0  0  0  0
  -10.7184    3.3606   -9.5311 H   0  0  0  0  0  0  0  0  0  0  0  0
  -10.0035    2.0715  -10.5204 H   0  0  0  0  0  0  0  0  0  0  0  0
   -7.2370    3.2166   -8.1488 H   0  0  0  0  0  0  0  0  0  0  0  0
   -8.6420    4.2253   -7.7850 H   0  0  0  0  0  0  0  0  0  0  0  0
   -6.1030    0.3177  -13.9875 H   0  0  0  0  0  0  0  0  0  0  0  0
   -8.8902    0.1555  -12.7512 H   0  0  0  0  0  0  0  0  0  0  0  0
   -7.7051   -1.1622  -12.8318 H   0  0  0  0  0  0  0  0  0  0  0  0
   -8.4052   -0.5063  -14.3243 H   0  0  0  0  0  0  0  0  0  0  0  0
   -8.0458    2.5510  -13.6397 H   0  0  0  0  0  0  0  0  0  0  0  0
   -8.1138    1.2817  -10.7754 H   0  0  0  0  0  0  0  0  0  0  0  0
   -9.7629    2.1381   -7.7394 H   0  0  0  0  0  0  0  0  0  0  0  0
  1  2  2  0  0  0  0
  1  3  1  0  0  0  0
  2  5  1  0  0  0  0
  3  6  2  0  0  0  0
  4  5  2  0  0  0  0
  4  6  1  0  0  0  0
  5  9  1  0  0  0  0
  6 24  1  0  0  0  0
  7  8  2  0  0  0  0
  7 11  1  0  0  0  0
  8 12  1  0  0  0  0
  9 19  1  0  0  0  0
  9 22  2  0  0  0  0
 10 17  1  0  0  0  0
 10 20  1  0  0  0  0
 10 23  2  0  0  0  0
 11 17  1  0  0  0  0
 12 24  1  0  0  0  0
 13 16  1  0  0  0  0
 13 20  1  0  0  0  0
 14 17  1  0  0  0  0
 14 21  1  0  0  0  0
 15 17  1  0  0  0  0
 15 21  1  0  0  0  0
 16 18  1  6  0  0  0
 16 19  1  0  0  0  0
  1 25  1  0  0  0  0
  2 26  1  0  0  0  0
  3 27  1  0  0  0  0
  4 28  1  0  0  0  0
  7 29  1  0  0  0  0
  8 30  1  0  0  0  0
 11 31  1  0  0  0  0
 11 32  1  0  0  0  0
 12 33  1  0  0  0  0
 12 34  1  0  0  0  0
 13 35  1  0  0  0  0
 13 36  1  0  0  0  0
 14 37  1  0  0  0  0
 14 38  1  0  0  0  0
 15 39  1  0  0  0  0
 15 40  1  0  0  0  0
 16 41  1  0  0  0  0
 18 42  1  0  0  0  0
 18 43  1  0  0  0  0
 18 44  1  0  0  0  0
 19 45  1  0  0  0  0
 20 46  1  0  0  0  0
 21 47  1  0  0  0  0
M  END
> <id>
EN300-6733227

> <smiles>
C[C@@H]1CNC(=O)C2(CNC2)C/C=C/COC=3C=CC=C(C3)C(=O)N1.OC(=O)C(F)(F)F

> <MDLNUMBER>
MFCD31746223

> <IUPAC Name>
(4'E,11'R)-11'-methyl-2'-oxa-9',12'-diazaspiro[azetidine-3,7'-bicyclo[12.3.1]octadecane]-1'(18'),4',14',16'-tetraene-8',13'-dione; trifluoroacetic acid

> <Purity>
80

> <URL>
https://www.enaminestore.com/catalog/EN300-6733227

> <Saltdate>
OC(=O)C(F)(F)F

> <ROCS_ShapeQuery>
_x0404_0B

> <ROCS_TanimotoCombo>
0.375 

> <ROCS_ShapeTanimoto>
0.272 

> <ROCS_ColorTanimoto>
0.103 

> <ROCS_RefTversky>
0.257 

> <ROCS_RefColorTversky>
0.109 

> <ROCS_RefTverskyCombo>
0.367 

> <ROCS_FitTversky>
1.269 

> <ROCS_FitColorTversky>
0.641 

> <ROCS_FitTverskyCombo>
1.910 

> <ROCS_ColorScore>
-7.899

> <ROCS_Overlap>
1719.634

> <ROCS_Rank>
322                 

$$$$
untitled-dbase-14168_3
  -OEChem-08212314543D

 34 36  0     0  0  0  0  0  0999 V2000
   -8.7611    4.5834  -12.9204 C   0  0  0  0  0  0  0  0  0  0  0  0
   -8.6449    4.9364  -14.0626 C   0  0  0  0  0  0  0  0  0  0  0  0
   -9.0858    4.5074   -7.9849 C   0  0  0  0  0  0  0  0  0  0  0  0
   -8.7820    6.6819   -8.7634 C   0  0  0  0  0  0  0  0  0  0  0  0
   -9.0740    2.8485  -11.1921 C   0  0  0  0  0  0  0  0  0  0  0  0
   -8.8970    4.1628  -11.5599 C   0  0  0  0  0  0  0  0  0  0  0  0
   -8.8817    4.9464  -10.3724 C   0  0  0  0  0  0  0  0  0  0  0  0
   -9.0529    4.0673   -9.3016 C   0  0  0  0  0  0  0  0  0  0  0  0
   -8.7394    6.3147  -10.1019 C   0  0  0  0  0  0  0  0  0  0  0  0
   -8.0657    4.6761  -18.3208 C   0  0  0  0  0  0  0  0  0  0  0  0
   -6.9507    5.2936  -17.4831 C   0  0  0  0  0  0  0  0  0  0  0  0
   -9.4441    5.0857  -17.8120 C   0  0  0  0  0  0  0  0  0  0  0  0
   -7.1166    4.9705  -15.9968 C   0  0  0  0  0  0  0  0  0  0  0  0
   -9.6163    4.7583  -16.3278 C   0  0  0  0  0  0  0  0  0  0  0  0
   -8.5014    5.3694  -15.4635 C   0  0  0  0  0  0  0  0  0  0  0  0
   -8.9481    5.8287   -7.7268 N   0  0  0  0  0  0  0  0  0  0  0  0
   -9.1671    2.8014   -9.8267 N   0  0  0  0  0  0  0  0  0  0  0  0
   -8.5978    6.7947  -15.5150 O   0  0  0  0  0  0  0  0  0  0  0  0
   -8.4983    7.6368  -11.4232 Br  0  0  0  0  0  0  0  0  0  0  0  0
   -9.2170    3.8474   -7.1375 H   0  0  0  0  0  0  0  0  0  0  0  0
   -8.6791    7.7217   -8.4628 H   0  0  0  0  0  0  0  0  0  0  0  0
   -9.1428    1.9397  -11.7746 H   0  0  0  0  0  0  0  0  0  0  0  0
   -7.9544    4.9926  -19.3647 H   0  0  0  0  0  0  0  0  0  0  0  0
   -7.9766    3.5846  -18.3064 H   0  0  0  0  0  0  0  0  0  0  0  0
   -5.9794    4.9279  -17.8374 H   0  0  0  0  0  0  0  0  0  0  0  0
   -6.9468    6.3810  -17.6212 H   0  0  0  0  0  0  0  0  0  0  0  0
   -9.5881    6.1609  -17.9672 H   0  0  0  0  0  0  0  0  0  0  0  0
  -10.2181    4.5762  -18.3981 H   0  0  0  0  0  0  0  0  0  0  0  0
   -6.9319    3.9046  -15.8281 H   0  0  0  0  0  0  0  0  0  0  0  0
   -6.3418    5.5000  -15.4313 H   0  0  0  0  0  0  0  0  0  0  0  0
  -10.5871    5.1384  -15.9918 H   0  0  0  0  0  0  0  0  0  0  0  0
   -9.6572    3.6733  -16.1912 H   0  0  0  0  0  0  0  0  0  0  0  0
   -9.3004    1.9593   -9.2838 H   0  0  0  0  0  0  0  0  0  0  0  0
   -9.4715    7.0220  -15.1633 H   0  0  0  0  0  0  0  0  0  0  0  0
  1  2  3  0  0  0  0
  1  6  1  0  0  0  0
  2 15  1  0  0  0  0
  3  8  2  0  0  0  0
  3 16  1  0  0  0  0
  4  9  1  0  0  0  0
  4 16  2  0  0  0  0
  5  6  2  0  0  0  0
  5 17  1  0  0  0  0
  6  7  1  0  0  0  0
  7  8  1  0  0  0  0
  7  9  2  0  0  0  0
  8 17  1  0  0  0  0
  9 19  1  0  0  0  0
 10 11  1  0  0  0  0
 10 12  1  0  0  0  0
 11 13  1  0  0  0  0
 12 14  1  0  0  0  0
 13 15  1  0  0  0  0
 14 15  1  0  0  0  0
 15 18  1  0  0  0  0
  3 20  1  0  0  0  0
  4 21  1  0  0  0  0
  5 22  1  0  0  0  0
 10 23  1  0  0  0  0
 10 24  1  0  0  0  0
 11 25  1  0  0  0  0
 11 26  1  0  0  0  0
 12 27  1  0  0  0  0
 12 28  1  0  0  0  0
 13 29  1  0  0  0  0
 13 30  1  0  0  0  0
 14 31  1  0  0  0  0
 14 32  1  0  0  0  0
 17 33  1  0  0  0  0
 18 34  1  0  0  0  0
M  END
> <id>
EN300-1086561

> <smiles>
OC1(CCCCC1)C#CC2=CNC=3C=NC=C(Br)C23

> <MDLNUMBER>
MFCD31587005

> <IUPAC Name>
1-(2-{4-bromo-1H-pyrrolo[2,3-c]pyridin-3-yl}ethynyl)cyclohexan-1-ol

> <CAS>
2138351-47-8

> <URL>
https://www.enaminestore.com/catalog/EN300-1086561

> <ROCS_ShapeQuery>
_x0404_0B

> <ROCS_TanimotoCombo>
0.375 

> <ROCS_ShapeTanimoto>
0.318 

> <ROCS_ColorTanimoto>
0.057 

> <ROCS_RefTversky>
0.283 

> <ROCS_RefColorTversky>
0.063 

> <ROCS_RefTverskyCombo>
0.346 

> <ROCS_FitTversky>
1.639 

> <ROCS_FitColorTversky>
0.396 

> <ROCS_FitTverskyCombo>
2.035 

> <ROCS_ColorScore>
-4.516

> <ROCS_Overlap>
1887.401

> <ROCS_Rank>
323                 

$$$$
untitled-dbase-20456_77
  -OEChem-08212314543D

 39 40  0     0  0  0  0  0  0999 V2000
   -7.7697    3.7649  -15.4405 C   0  0  0  0  0  0  0  0  0  0  0  0
   -8.1223    5.0603  -15.8100 C   0  0  0  0  0  0  0  0  0  0  0  0
   -8.1116    4.3297  -13.1029 C   0  0  0  0  0  0  0  0  0  0  0  0
   -8.4495    5.6426  -13.4772 C   0  0  0  0  0  0  0  0  0  0  0  0
   -7.7648    3.4004  -14.0942 C   0  0  0  0  0  0  0  0  0  0  0  0
   -8.4651    5.9950  -14.8336 C   0  0  0  0  0  0  0  0  0  0  0  0
   -9.0853    4.6341   -9.4587 C   0  0  0  0  0  0  0  0  0  0  0  0
   -8.8484    6.6532  -12.4341 C   0  0  0  0  0  0  0  0  0  0  0  0
   -8.0992    3.8990  -11.6566 C   0  0  0  0  0  0  0  0  0  0  0  0
   -8.2452    6.3159  -11.0762 C   0  0  0  0  0  0  0  0  0  0  0  0
   -9.3166    3.0082   -7.1152 C   0  0  0  0  0  0  0  0  0  0  0  0
  -10.1007    1.1996   -8.6719 C   0  0  0  0  0  0  0  0  0  0  0  0
   -7.7834    2.1381   -8.9115 C   0  0  0  0  0  0  0  0  0  0  0  0
   -9.2313    2.4475   -8.5340 C   0  0  0  0  0  0  0  0  0  0  0  0
   -8.5442    4.9329  -10.7138 N   0  0  0  0  0  0  0  0  0  0  0  0
   -7.4022    2.0751  -13.7575 N   0  0  0  0  0  0  0  0  0  0  0  0
   -8.9871    5.3578   -8.4696 O   0  0  0  0  0  0  0  0  0  0  0  0
   -8.8087    7.2543  -15.2294 O   0  0  0  0  0  0  0  0  0  0  0  0
   -9.7397    3.4301   -9.4437 O   0  0  0  0  0  0  0  0  0  0  0  0
   -7.4968    3.0475  -16.2104 H   0  0  0  0  0  0  0  0  0  0  0  0
   -8.1251    5.3373  -16.8608 H   0  0  0  0  0  0  0  0  0  0  0  0
   -8.5166    7.6468  -12.7585 H   0  0  0  0  0  0  0  0  0  0  0  0
   -9.9387    6.6814  -12.3242 H   0  0  0  0  0  0  0  0  0  0  0  0
   -8.7787    3.0487  -11.5226 H   0  0  0  0  0  0  0  0  0  0  0  0
   -7.0874    3.5830  -11.3807 H   0  0  0  0  0  0  0  0  0  0  0  0
   -7.1646    6.4899  -11.0944 H   0  0  0  0  0  0  0  0  0  0  0  0
   -8.6671    6.9547  -10.2901 H   0  0  0  0  0  0  0  0  0  0  0  0
   -8.6939    3.9041   -7.0121 H   0  0  0  0  0  0  0  0  0  0  0  0
  -10.3456    3.2669   -6.8448 H   0  0  0  0  0  0  0  0  0  0  0  0
   -8.9387    2.2835   -6.3850 H   0  0  0  0  0  0  0  0  0  0  0  0
  -10.0426    0.7939   -9.6884 H   0  0  0  0  0  0  0  0  0  0  0  0
  -11.1558    1.4374   -8.4943 H   0  0  0  0  0  0  0  0  0  0  0  0
   -9.7985    0.4170   -7.9684 H   0  0  0  0  0  0  0  0  0  0  0  0
   -7.7220    1.7359   -9.9292 H   0  0  0  0  0  0  0  0  0  0  0  0
   -7.1520    3.0307   -8.8540 H   0  0  0  0  0  0  0  0  0  0  0  0
   -7.3637    1.3714   -8.2502 H   0  0  0  0  0  0  0  0  0  0  0  0
   -7.2065    1.4263  -14.4900 H   0  0  0  0  0  0  0  0  0  0  0  0
   -7.4411    1.7914  -12.8016 H   0  0  0  0  0  0  0  0  0  0  0  0
   -8.7626    7.3245  -16.1953 H   0  0  0  0  0  0  0  0  0  0  0  0
  1  2  2  0  0  0  0
  1  5  1  0  0  0  0
  2  6  1  0  0  0  0
  3  4  1  0  0  0  0
  3  5  2  0  0  0  0
  3  9  1  0  0  0  0
  4  6  2  0  0  0  0
  4  8  1  0  0  0  0
  5 16  1  0  0  0  0
  6 18  1  0  0  0  0
  7 15  1  0  0  0  0
  7 17  2  0  0  0  0
  7 19  1  0  0  0  0
  8 10  1  0  0  0  0
  9 15  1  0  0  0  0
 10 15  1  0  0  0  0
 11 14  1  0  0  0  0
 12 14  1  0  0  0  0
 13 14  1  0  0  0  0
 14 19  1  0  0  0  0
  1 20  1  0  0  0  0
  2 21  1  0  0  0  0
  8 22  1  0  0  0  0
  8 23  1  0  0  0  0
  9 24  1  0  0  0  0
  9 25  1  0  0  0  0
 10 26  1  0  0  0  0
 10 27  1  0  0  0  0
 11 28  1  0  0  0  0
 11 29  1  0  0  0  0
 11 30  1  0  0  0  0
 12 31  1  0  0  0  0
 12 32  1  0  0  0  0
 12 33  1  0  0  0  0
 13 34  1  0  0  0  0
 13 35  1  0  0  0  0
 13 36  1  0  0  0  0
 16 37  1  0  0  0  0
 16 38  1  0  0  0  0
 18 39  1  0  0  0  0
M  END
> <id>
EN300-1295981

> <smiles>
CC(C)(C)OC(=O)N1CCC=2C(O)=CC=C(N)C2C1

> <MDLNUMBER>
MFCD30259542

> <IUPAC Name>
tert-butyl 8-amino-5-hydroxy-1,2,3,4-tetrahydroisoquinoline-2-carboxylate

> <CAS>
1856445-93-6

> <URL>
https://www.enaminestore.com/catalog/EN300-1295981

> <ROCS_ShapeQuery>
_x0404_0B

> <ROCS_TanimotoCombo>
0.375 

> <ROCS_ShapeTanimoto>
0.271 

> <ROCS_ColorTanimoto>
0.104 

> <ROCS_RefTversky>
0.250 

> <ROCS_RefColorTversky>
0.109 

> <ROCS_RefTverskyCombo>
0.359 

> <ROCS_FitTversky>
1.444 

> <ROCS_FitColorTversky>
0.694 

> <ROCS_FitTverskyCombo>
2.138 

> <ROCS_ColorScore>
-7.900

> <ROCS_Overlap>
1667.042

> <ROCS_Rank>
324                 

$$$$
untitled-dbase-12867_5
  -OEChem-08212314543D

 43 45  0     1  0  0  0  0  0999 V2000
   -8.7328    5.1923  -11.5257 C   0  0  0  0  0  0  0  0  0  0  0  0
   -9.1471    6.1713  -15.0803 C   0  0  0  0  0  0  0  0  0  0  0  0
   -7.8570    3.9615  -14.9858 C   0  0  0  0  0  0  0  0  0  0  0  0
   -7.0522    4.5823  -18.0453 C   0  0  0  0  0  0  0  0  0  0  0  0
   -8.5134    6.3473  -13.7056 C   0  0  0  0  0  0  0  0  0  0  0  0
   -8.5700    3.8431  -13.6419 C   0  0  0  0  0  0  0  0  0  0  0  0
   -9.5955    5.0416  -17.9543 C   0  0  0  0  0  0  0  0  0  0  0  0
   -8.2122    5.5146  -18.2269 C   0  0  1  0  0  0  0  0  0  0  0  0
   -7.4852    5.5255  -16.9336 C   0  0  1  0  0  0  0  0  0  0  0  0
   -8.4861    5.0343  -15.8918 C   0  0  0  0  0  0  0  0  0  0  0  0
  -10.2407    4.6785   -9.1495 C   0  0  0  0  0  0  0  0  0  0  0  0
   -9.0261    2.4811   -9.0750 C   0  0  0  0  0  0  0  0  0  0  0  0
   -7.7370    4.6293   -8.8968 C   0  0  0  0  0  0  0  0  0  0  0  0
   -8.9532    3.9416   -9.5155 C   0  0  0  0  0  0  0  0  0  0  0  0
   -8.6014    5.1179  -12.9162 N   0  0  0  0  0  0  0  0  0  0  0  0
   -6.5588    6.6098  -16.5670 N   0  0  0  0  0  0  0  0  0  0  0  0
   -8.7820    6.2437  -10.8900 O   0  0  0  0  0  0  0  0  0  0  0  0
   -9.5547    4.4113  -16.6601 O   0  0  0  0  0  0  0  0  0  0  0  0
   -8.8093    3.9558  -10.9403 O   0  0  0  0  0  0  0  0  0  0  0  0
  -10.2200    5.9723  -14.9481 H   0  0  0  0  0  0  0  0  0  0  0  0
   -9.0678    7.1244  -15.6230 H   0  0  0  0  0  0  0  0  0  0  0  0
   -6.7970    4.1921  -14.8158 H   0  0  0  0  0  0  0  0  0  0  0  0
   -7.8938    2.9818  -15.4785 H   0  0  0  0  0  0  0  0  0  0  0  0
   -7.2505    3.5226  -17.9439 H   0  0  0  0  0  0  0  0  0  0  0  0
   -6.1419    4.8057  -18.5895 H   0  0  0  0  0  0  0  0  0  0  0  0
   -7.4679    6.6589  -13.8169 H   0  0  0  0  0  0  0  0  0  0  0  0
   -9.0236    7.1360  -13.1367 H   0  0  0  0  0  0  0  0  0  0  0  0
   -9.6160    3.5330  -13.7857 H   0  0  0  0  0  0  0  0  0  0  0  0
   -8.0912    3.0566  -13.0440 H   0  0  0  0  0  0  0  0  0  0  0  0
  -10.3019    5.8761  -17.9139 H   0  0  0  0  0  0  0  0  0  0  0  0
   -9.9399    4.3140  -18.6932 H   0  0  0  0  0  0  0  0  0  0  0  0
   -8.1346    6.3384  -18.9170 H   0  0  0  0  0  0  0  0  0  0  0  0
  -10.1923    5.7272   -9.4640 H   0  0  0  0  0  0  0  0  0  0  0  0
  -11.1167    4.2158   -9.6155 H   0  0  0  0  0  0  0  0  0  0  0  0
  -10.3906    4.6880   -8.0638 H   0  0  0  0  0  0  0  0  0  0  0  0
   -8.1044    1.9485   -9.3357 H   0  0  0  0  0  0  0  0  0  0  0  0
   -9.8406    1.9585   -9.5895 H   0  0  0  0  0  0  0  0  0  0  0  0
   -9.1845    2.3922   -7.9954 H   0  0  0  0  0  0  0  0  0  0  0  0
   -6.8134    4.1008   -9.1592 H   0  0  0  0  0  0  0  0  0  0  0  0
   -7.6477    5.6680   -9.2310 H   0  0  0  0  0  0  0  0  0  0  0  0
   -7.7986    4.6196   -7.8026 H   0  0  0  0  0  0  0  0  0  0  0  0
   -5.7124    6.1935  -16.2686 H   0  0  0  0  0  0  0  0  0  0  0  0
   -6.4190    7.1692  -17.3709 H   0  0  0  0  0  0  0  0  0  0  0  0
  1 15  1  0  0  0  0
  1 17  2  0  0  0  0
  1 19  1  0  0  0  0
  2  5  1  0  0  0  0
  2 10  1  0  0  0  0
  3  6  1  0  0  0  0
  3 10  1  0  0  0  0
  4  8  1  0  0  0  0
  4  9  1  0  0  0  0
  5 15  1  0  0  0  0
  6 15  1  0  0  0  0
  7  8  1  0  0  0  0
  7 18  1  0  0  0  0
  8  9  1  0  0  0  0
  9 10  1  0  0  0  0
  9 16  1  0  0  0  0
 10 18  1  0  0  0  0
 11 14  1  0  0  0  0
 12 14  1  0  0  0  0
 13 14  1  0  0  0  0
 14 19  1  0  0  0  0
  2 20  1  0  0  0  0
  2 21  1  0  0  0  0
  3 22  1  0  0  0  0
  3 23  1  0  0  0  0
  4 24  1  0  0  0  0
  4 25  1  0  0  0  0
  5 26  1  0  0  0  0
  5 27  1  0  0  0  0
  6 28  1  0  0  0  0
  6 29  1  0  0  0  0
  7 30  1  0  0  0  0
  7 31  1  0  0  0  0
  8 32  1  0  0  0  0
 11 33  1  0  0  0  0
 11 34  1  0  0  0  0
 11 35  1  0  0  0  0
 12 36  1  0  0  0  0
 12 37  1  0  0  0  0
 12 38  1  0  0  0  0
 13 39  1  0  0  0  0
 13 40  1  0  0  0  0
 13 41  1  0  0  0  0
 16 42  1  0  0  0  0
 16 43  1  0  0  0  0
M  END
> <id>
EN300-739782

> <smiles>
CC(C)(C)OC(=O)N1CCC2(CC1)OCC3CC32N

> <IUPAC Name>
tert-butyl 1-amino-3-oxaspiro[bicyclo[3.1.0]hexane-2,4'-piperidine]-1'-carboxylate

> <CAS>
2137473-74-4

> <URL>
https://www.enaminestore.com/catalog/EN300-739782

> <ROCS_ShapeQuery>
_x0404_0B

> <ROCS_TanimotoCombo>
0.375 

> <ROCS_ShapeTanimoto>
0.332 

> <ROCS_ColorTanimoto>
0.043 

> <ROCS_RefTversky>
0.292 

> <ROCS_RefColorTversky>
0.049 

> <ROCS_RefTverskyCombo>
0.341 

> <ROCS_FitTversky>
1.686 

> <ROCS_FitColorTversky>
0.271 

> <ROCS_FitTverskyCombo>
1.957 

> <ROCS_ColorScore>
-3.550

> <ROCS_Overlap>
1948.785

> <ROCS_Rank>
325                 

$$$$
untitled-dbase-34225_7
  -OEChem-08212314543D

 42 44  0     1  0  0  0  0  0999 V2000
   -8.5986    5.7862  -14.3354 C   0  0  0  0  0  0  0  0  0  0  0  0
   -8.0975    5.4165   -9.3728 C   0  0  0  0  0  0  0  0  0  0  0  0
   -9.9913    3.1778  -10.2804 C   0  0  0  0  0  0  0  0  0  0  0  0
   -7.9014    3.0376   -8.1638 C   0  0  0  0  0  0  0  0  0  0  0  0
   -7.9927    5.8942  -11.9128 C   0  0  0  0  0  0  0  0  0  0  0  0
   -9.6803    4.2986  -12.5928 C   0  0  0  0  0  0  0  0  0  0  0  0
   -8.6201    4.3925   -8.3653 C   0  0  2  0  0  0  0  0  0  0  0  0
   -8.2356    4.8903  -10.7942 C   0  0  2  0  0  0  0  0  0  0  0  0
   -9.6771    4.4356  -11.0767 C   0  0  2  0  0  0  0  0  0  0  0  0
   -9.8410    3.5159   -8.7892 C   0  0  2  0  0  0  0  0  0  0  0  0
   -7.2711    5.6064  -16.8598 C   0  0  0  0  0  0  0  0  0  0  0  0
   -9.0317    3.9177  -17.4577 C   0  0  0  0  0  0  0  0  0  0  0  0
   -9.6941    6.2832  -16.9345 C   0  0  0  0  0  0  0  0  0  0  0  0
   -8.7115    5.1553  -16.6224 C   0  0  0  0  0  0  0  0  0  0  0  0
   -9.2340    2.4088   -8.0082 N   0  0  0  0  0  0  0  0  0  0  0  0
   -8.7579    5.3485  -13.0321 N   0  0  0  0  0  0  0  0  0  0  0  0
   -8.2642    6.9277  -14.6441 O   0  0  0  0  0  0  0  0  0  0  0  0
   -8.8547    4.7943  -15.2439 O   0  0  0  0  0  0  0  0  0  0  0  0
   -8.6738    6.3441   -9.2670 H   0  0  0  0  0  0  0  0  0  0  0  0
   -7.0532    5.6664   -9.1554 H   0  0  0  0  0  0  0  0  0  0  0  0
  -11.0107    2.8331  -10.4881 H   0  0  0  0  0  0  0  0  0  0  0  0
   -9.3144    2.3691  -10.5852 H   0  0  0  0  0  0  0  0  0  0  0  0
   -7.3374    2.6684   -9.0274 H   0  0  0  0  0  0  0  0  0  0  0  0
   -7.2638    2.9729   -7.2776 H   0  0  0  0  0  0  0  0  0  0  0  0
   -8.3970    6.8865  -11.6850 H   0  0  0  0  0  0  0  0  0  0  0  0
   -6.9368    5.9945  -12.1813 H   0  0  0  0  0  0  0  0  0  0  0  0
   -9.2784    3.3372  -12.9311 H   0  0  0  0  0  0  0  0  0  0  0  0
  -10.6711    4.4463  -13.0327 H   0  0  0  0  0  0  0  0  0  0  0  0
   -8.7873    4.8930   -7.3983 H   0  0  0  0  0  0  0  0  0  0  0  0
   -7.5486    4.0437  -10.9362 H   0  0  0  0  0  0  0  0  0  0  0  0
  -10.3792    5.2329  -10.7916 H   0  0  0  0  0  0  0  0  0  0  0  0
  -10.7893    3.8799   -8.3751 H   0  0  0  0  0  0  0  0  0  0  0  0
   -7.0373    6.4946  -16.2619 H   0  0  0  0  0  0  0  0  0  0  0  0
   -6.5546    4.8182  -16.6063 H   0  0  0  0  0  0  0  0  0  0  0  0
   -7.1177    5.8898  -17.9073 H   0  0  0  0  0  0  0  0  0  0  0  0
  -10.0643    3.5905  -17.2905 H   0  0  0  0  0  0  0  0  0  0  0  0
   -8.3910    3.0762  -17.1702 H   0  0  0  0  0  0  0  0  0  0  0  0
   -8.8968    4.1064  -18.5276 H   0  0  0  0  0  0  0  0  0  0  0  0
  -10.7274    5.9599  -16.7642 H   0  0  0  0  0  0  0  0  0  0  0  0
   -9.5025    7.1672  -16.3176 H   0  0  0  0  0  0  0  0  0  0  0  0
   -9.6309    6.5742  -17.9892 H   0  0  0  0  0  0  0  0  0  0  0  0
   -9.3221    1.4801   -8.4166 H   0  0  0  0  0  0  0  0  0  0  0  0
  1 16  1  0  0  0  0
  1 17  2  0  0  0  0
  1 18  1  0  0  0  0
  2  7  1  0  0  0  0
  2  8  1  0  0  0  0
  3  9  1  0  0  0  0
  3 10  1  0  0  0  0
  4  7  1  0  0  0  0
  4 15  1  0  0  0  0
  5  8  1  0  0  0  0
  5 16  1  0  0  0  0
  6  9  1  0  0  0  0
  6 16  1  0  0  0  0
  7 10  1  0  0  0  0
  8  9  1  0  0  0  0
 10 15  1  0  0  0  0
 11 14  1  0  0  0  0
 12 14  1  0  0  0  0
 13 14  1  0  0  0  0
 14 18  1  0  0  0  0
  2 19  1  0  0  0  0
  2 20  1  0  0  0  0
  3 21  1  0  0  0  0
  3 22  1  0  0  0  0
  4 23  1  0  0  0  0
  4 24  1  0  0  0  0
  5 25  1  0  0  0  0
  5 26  1  0  0  0  0
  6 27  1  0  0  0  0
  6 28  1  0  0  0  0
  7 29  1  0  0  0  0
  8 30  1  0  0  0  0
  9 31  1  0  0  0  0
 10 32  1  0  0  0  0
 11 33  1  0  0  0  0
 11 34  1  0  0  0  0
 11 35  1  0  0  0  0
 12 36  1  0  0  0  0
 12 37  1  0  0  0  0
 12 38  1  0  0  0  0
 13 39  1  0  0  0  0
 13 40  1  0  0  0  0
 13 41  1  0  0  0  0
 15 42  1  0  0  0  0
M  END
> <id>
EN300-295728

> <smiles>
CC(C)(C)OC(=O)N1CC2CC3CNC3CC2C1

> <MDLNUMBER>
MFCD24531663

> <IUPAC Name>
tert-butyl decahydro-1H-azeto[2,3-f]isoindole-5-carboxylate

> <CAS>
1824427-71-5

> <URL>
https://www.enaminestore.com/catalog/EN300-295728

> <ROCS_ShapeQuery>
_x0404_0B

> <ROCS_TanimotoCombo>
0.375 

> <ROCS_ShapeTanimoto>
0.290 

> <ROCS_ColorTanimoto>
0.085 

> <ROCS_RefTversky>
0.262 

> <ROCS_RefColorTversky>
0.090 

> <ROCS_RefTverskyCombo>
0.352 

> <ROCS_FitTversky>
1.577 

> <ROCS_FitColorTversky>
0.614 

> <ROCS_FitTverskyCombo>
2.191 

> <ROCS_ColorScore>
-6.468

> <ROCS_Overlap>
1748.534

> <ROCS_Rank>
326                 

$$$$
untitled-dbase-43650_0
  -OEChem-08212314543D

 29 32  0     0  0  0  0  0  0999 V2000
   -8.9769    4.6019   -8.0756 C   0  0  0  0  0  0  0  0  0  0  0  0
   -9.2366    5.9675   -8.1310 C   0  0  0  0  0  0  0  0  0  0  0  0
   -8.2105    3.8186  -17.8826 C   0  0  0  0  0  0  0  0  0  0  0  0
   -8.4583    5.1621  -18.1323 C   0  0  0  0  0  0  0  0  0  0  0  0
   -8.6875    3.8997   -9.2457 C   0  0  0  0  0  0  0  0  0  0  0  0
   -9.2076    6.6333   -9.3564 C   0  0  0  0  0  0  0  0  0  0  0  0
   -8.0710    3.3724  -16.5692 C   0  0  0  0  0  0  0  0  0  0  0  0
   -8.5654    6.0568  -17.0676 C   0  0  0  0  0  0  0  0  0  0  0  0
   -8.3650    3.8681  -11.6769 C   0  0  0  0  0  0  0  0  0  0  0  0
   -8.8833    6.5912  -11.7877 C   0  0  0  0  0  0  0  0  0  0  0  0
   -8.6545    4.5564  -10.4876 C   0  0  0  0  0  0  0  0  0  0  0  0
   -8.9180    5.9396  -10.5437 C   0  0  0  0  0  0  0  0  0  0  0  0
   -8.1804    4.2688  -15.4916 C   0  0  0  0  0  0  0  0  0  0  0  0
   -8.3353    4.5303  -12.9175 C   0  0  0  0  0  0  0  0  0  0  0  0
   -8.4295    5.6211  -15.7385 C   0  0  0  0  0  0  0  0  0  0  0  0
   -8.5953    5.8991  -12.9771 C   0  0  0  0  0  0  0  0  0  0  0  0
   -8.0220    3.7254  -14.1223 C   0  0  0  0  0  0  0  0  0  0  0  0
   -7.6289    2.5703  -13.9827 O   0  0  0  0  0  0  0  0  0  0  0  0
   -8.5620    6.8525  -14.4713 S   0  0  0  0  0  0  0  0  0  0  0  0
   -8.9992    4.0825   -7.1221 H   0  0  0  0  0  0  0  0  0  0  0  0
   -9.4620    6.5154   -7.2206 H   0  0  0  0  0  0  0  0  0  0  0  0
   -8.1257    3.1174  -18.7074 H   0  0  0  0  0  0  0  0  0  0  0  0
   -8.5662    5.5163  -19.1532 H   0  0  0  0  0  0  0  0  0  0  0  0
   -8.4872    2.8323   -9.1799 H   0  0  0  0  0  0  0  0  0  0  0  0
   -9.4137    7.7014   -9.3774 H   0  0  0  0  0  0  0  0  0  0  0  0
   -7.8805    2.3143  -16.4061 H   0  0  0  0  0  0  0  0  0  0  0  0
   -8.7566    7.1044  -17.2940 H   0  0  0  0  0  0  0  0  0  0  0  0
   -8.1657    2.7986  -11.6240 H   0  0  0  0  0  0  0  0  0  0  0  0
   -9.0852    7.6623  -11.8236 H   0  0  0  0  0  0  0  0  0  0  0  0
  1  2  2  0  0  0  0
  1  5  1  0  0  0  0
  2  6  1  0  0  0  0
  3  4  2  0  0  0  0
  3  7  1  0  0  0  0
  4  8  1  0  0  0  0
  5 11  2  0  0  0  0
  6 12  2  0  0  0  0
  7 13  2  0  0  0  0
  8 15  2  0  0  0  0
  9 11  1  0  0  0  0
  9 14  2  0  0  0  0
 10 12  1  0  0  0  0
 10 16  2  0  0  0  0
 11 12  1  0  0  0  0
 13 15  1  0  0  0  0
 13 17  1  0  0  0  0
 14 16  1  0  0  0  0
 14 17  1  0  0  0  0
 15 19  1  0  0  0  0
 16 19  1  0  0  0  0
 17 18  2  0  0  0  0
  1 20  1  0  0  0  0
  2 21  1  0  0  0  0
  3 22  1  0  0  0  0
  4 23  1  0  0  0  0
  5 24  1  0  0  0  0
  6 25  1  0  0  0  0
  7 26  1  0  0  0  0
  8 27  1  0  0  0  0
  9 28  1  0  0  0  0
 10 29  1  0  0  0  0
M  END
> <id>
EN300-18291190

> <smiles>
O=C1C=2C=CC=CC2SC=3C=C4C=CC=CC4=CC13

> <MDLNUMBER>
MFCD01580854

> <IUPAC Name>
12H-5-thiatetracen-12-one

> <URL>
https://www.enaminestore.com/catalog/EN300-18291190

> <ROCS_ShapeQuery>
_x0404_0B

> <ROCS_TanimotoCombo>
0.375 

> <ROCS_ShapeTanimoto>
0.302 

> <ROCS_ColorTanimoto>
0.073 

> <ROCS_RefTversky>
0.273 

> <ROCS_RefColorTversky>
0.076 

> <ROCS_RefTverskyCombo>
0.349 

> <ROCS_FitTversky>
1.538 

> <ROCS_FitColorTversky>
0.644 

> <ROCS_FitTverskyCombo>
2.182 

> <ROCS_ColorScore>
-5.503

> <ROCS_Overlap>
1819.280

> <ROCS_Rank>
327                 

$$$$
untitled-dbase-26190_14
  -OEChem-08212314543D

 45 47  0     0  0  0  0  0  0999 V2000
   -9.1130    7.5640   -9.4723 C   0  0  0  0  0  0  0  0  0  0  0  0
   -9.0961    8.2596  -10.6846 C   0  0  0  0  0  0  0  0  0  0  0  0
   -8.9974    6.1722   -9.4521 C   0  0  0  0  0  0  0  0  0  0  0  0
   -8.9607    7.5732  -11.8917 C   0  0  0  0  0  0  0  0  0  0  0  0
   -8.8600    5.4815  -10.6509 C   0  0  0  0  0  0  0  0  0  0  0  0
   -8.8409    6.1890  -11.8604 C   0  0  0  0  0  0  0  0  0  0  0  0
   -8.6467    5.6387  -14.2891 C   0  0  0  0  0  0  0  0  0  0  0  0
   -7.5822    3.3096  -10.1361 C   0  0  0  0  0  0  0  0  0  0  0  0
  -10.0829    3.2541  -10.5629 C   0  0  0  0  0  0  0  0  0  0  0  0
   -7.8848    2.9444   -8.6814 C   0  0  0  0  0  0  0  0  0  0  0  0
  -10.2619    2.9242   -9.0801 C   0  0  0  0  0  0  0  0  0  0  0  0
   -8.4912    3.9471  -12.4131 C   0  0  0  0  0  0  0  0  0  0  0  0
   -8.7567    3.9822  -10.8780 C   0  0  0  0  0  0  0  0  0  0  0  0
   -7.6611    5.1519  -16.9335 C   0  0  0  0  0  0  0  0  0  0  0  0
   -9.5827    3.5497  -17.1567 C   0  0  0  0  0  0  0  0  0  0  0  0
  -10.0285    5.9925  -16.7795 C   0  0  0  0  0  0  0  0  0  0  0  0
   -9.0851    4.8273  -16.4842 C   0  0  0  0  0  0  0  0  0  0  0  0
   -9.1222    2.1769   -8.5497 N   0  0  0  0  0  0  0  0  0  0  0  0
   -8.6802    5.3060  -12.9410 N   0  0  0  0  0  0  0  0  0  0  0  0
   -8.2887    6.7157  -14.7572 O   0  0  0  0  0  0  0  0  0  0  0  0
   -9.0754    4.5954  -15.0709 O   0  0  0  0  0  0  0  0  0  0  0  0
   -9.2169    8.1097   -8.5376 H   0  0  0  0  0  0  0  0  0  0  0  0
   -9.1891    9.3415  -10.6861 H   0  0  0  0  0  0  0  0  0  0  0  0
   -9.0156    5.6436   -8.5009 H   0  0  0  0  0  0  0  0  0  0  0  0
   -8.9532    8.1384  -12.8161 H   0  0  0  0  0  0  0  0  0  0  0  0
   -6.6999    3.9800  -10.1477 H   0  0  0  0  0  0  0  0  0  0  0  0
   -7.2519    2.4023  -10.6788 H   0  0  0  0  0  0  0  0  0  0  0  0
  -10.1637    2.3266  -11.1567 H   0  0  0  0  0  0  0  0  0  0  0  0
  -10.9365    3.8772  -10.8851 H   0  0  0  0  0  0  0  0  0  0  0  0
   -7.0466    2.3874   -8.2376 H   0  0  0  0  0  0  0  0  0  0  0  0
   -7.9824    3.8697   -8.0966 H   0  0  0  0  0  0  0  0  0  0  0  0
  -10.3595    3.8609   -8.5173 H   0  0  0  0  0  0  0  0  0  0  0  0
  -11.1908    2.3629   -8.9152 H   0  0  0  0  0  0  0  0  0  0  0  0
   -7.4703    3.6289  -12.6608 H   0  0  0  0  0  0  0  0  0  0  0  0
   -9.1795    3.2803  -12.9482 H   0  0  0  0  0  0  0  0  0  0  0  0
   -7.3003    6.0683  -16.4530 H   0  0  0  0  0  0  0  0  0  0  0  0
   -6.9679    4.3385  -16.6958 H   0  0  0  0  0  0  0  0  0  0  0  0
   -7.6238    5.3339  -18.0136 H   0  0  0  0  0  0  0  0  0  0  0  0
  -10.6040    3.3130  -16.8373 H   0  0  0  0  0  0  0  0  0  0  0  0
   -8.9634    2.6917  -16.8713 H   0  0  0  0  0  0  0  0  0  0  0  0
   -9.5722    3.6371  -18.2480 H   0  0  0  0  0  0  0  0  0  0  0  0
  -11.0499    5.7599  -16.4574 H   0  0  0  0  0  0  0  0  0  0  0  0
   -9.7072    6.9094  -16.2748 H   0  0  0  0  0  0  0  0  0  0  0  0
  -10.0809    6.1880  -17.8567 H   0  0  0  0  0  0  0  0  0  0  0  0
   -9.0298    1.2996   -9.0568 H   0  0  0  0  0  0  0  0  0  0  0  0
  1  2  2  0  0  0  0
  1  3  1  0  0  0  0
  2  4  1  0  0  0  0
  3  5  2  0  0  0  0
  4  6  2  0  0  0  0
  5  6  1  0  0  0  0
  5 13  1  0  0  0  0
  6 19  1  0  0  0  0
  7 19  1  0  0  0  0
  7 20  2  0  0  0  0
  7 21  1  0  0  0  0
  8 10  1  0  0  0  0
  8 13  1  0  0  0  0
  9 11  1  0  0  0  0
  9 13  1  0  0  0  0
 10 18  1  0  0  0  0
 11 18  1  0  0  0  0
 12 13  1  0  0  0  0
 12 19  1  0  0  0  0
 14 17  1  0  0  0  0
 15 17  1  0  0  0  0
 16 17  1  0  0  0  0
 17 21  1  0  0  0  0
  1 22  1  0  0  0  0
  2 23  1  0  0  0  0
  3 24  1  0  0  0  0
  4 25  1  0  0  0  0
  8 26  1  0  0  0  0
  8 27  1  0  0  0  0
  9 28  1  0  0  0  0
  9 29  1  0  0  0  0
 10 30  1  0  0  0  0
 10 31  1  0  0  0  0
 11 32  1  0  0  0  0
 11 33  1  0  0  0  0
 12 34  1  0  0  0  0
 12 35  1  0  0  0  0
 14 36  1  0  0  0  0
 14 37  1  0  0  0  0
 14 38  1  0  0  0  0
 15 39  1  0  0  0  0
 15 40  1  0  0  0  0
 15 41  1  0  0  0  0
 16 42  1  0  0  0  0
 16 43  1  0  0  0  0
 16 44  1  0  0  0  0
 18 45  1  0  0  0  0
M  END
> <id>
EN300-6738758

> <smiles>
Cl.CC(C)(C)OC(=O)N1CC2(CCNCC2)C=3C=CC=CC13

> <MDLNUMBER>
MFCD15071705

> <IUPAC Name>
tert-butyl 1,2-dihydrospiro[indole-3,4'-piperidine]-1-carboxylate hydrochloride

> <CAS>
1243474-66-9

> <Purity>
95

> <URL>
https://www.enaminestore.com/catalog/EN300-6738758

> <Saltdate>
Cl

> <ROCS_ShapeQuery>
_x0404_0B

> <ROCS_TanimotoCombo>
0.375 

> <ROCS_ShapeTanimoto>
0.296 

> <ROCS_ColorTanimoto>
0.079 

> <ROCS_RefTversky>
0.271 

> <ROCS_RefColorTversky>
0.084 

> <ROCS_RefTverskyCombo>
0.355 

> <ROCS_FitTversky>
1.448 

> <ROCS_FitColorTversky>
0.577 

> <ROCS_FitTverskyCombo>
2.025 

> <ROCS_ColorScore>
-6.030

> <ROCS_Overlap>
1809.190

> <ROCS_Rank>
328                 

$$$$
untitled-dbase-49670_14
  -OEChem-08212314543D

 45 47  0     0  0  0  0  0  0999 V2000
   -9.1130    7.5640   -9.4723 C   0  0  0  0  0  0  0  0  0  0  0  0
   -9.0961    8.2596  -10.6846 C   0  0  0  0  0  0  0  0  0  0  0  0
   -8.9974    6.1722   -9.4521 C   0  0  0  0  0  0  0  0  0  0  0  0
   -8.9607    7.5732  -11.8917 C   0  0  0  0  0  0  0  0  0  0  0  0
   -8.8600    5.4815  -10.6509 C   0  0  0  0  0  0  0  0  0  0  0  0
   -8.8409    6.1890  -11.8604 C   0  0  0  0  0  0  0  0  0  0  0  0
   -8.6467    5.6387  -14.2891 C   0  0  0  0  0  0  0  0  0  0  0  0
   -7.5822    3.3096  -10.1361 C   0  0  0  0  0  0  0  0  0  0  0  0
  -10.0829    3.2541  -10.5629 C   0  0  0  0  0  0  0  0  0  0  0  0
   -7.8848    2.9444   -8.6814 C   0  0  0  0  0  0  0  0  0  0  0  0
  -10.2619    2.9242   -9.0801 C   0  0  0  0  0  0  0  0  0  0  0  0
   -8.4912    3.9471  -12.4131 C   0  0  0  0  0  0  0  0  0  0  0  0
   -8.7567    3.9822  -10.8780 C   0  0  0  0  0  0  0  0  0  0  0  0
   -7.6611    5.1519  -16.9335 C   0  0  0  0  0  0  0  0  0  0  0  0
   -9.5827    3.5497  -17.1567 C   0  0  0  0  0  0  0  0  0  0  0  0
  -10.0285    5.9925  -16.7795 C   0  0  0  0  0  0  0  0  0  0  0  0
   -9.0851    4.8273  -16.4842 C   0  0  0  0  0  0  0  0  0  0  0  0
   -9.1222    2.1769   -8.5497 N   0  0  0  0  0  0  0  0  0  0  0  0
   -8.6802    5.3060  -12.9410 N   0  0  0  0  0  0  0  0  0  0  0  0
   -8.2887    6.7157  -14.7572 O   0  0  0  0  0  0  0  0  0  0  0  0
   -9.0754    4.5954  -15.0709 O   0  0  0  0  0  0  0  0  0  0  0  0
   -9.2169    8.1097   -8.5376 H   0  0  0  0  0  0  0  0  0  0  0  0
   -9.1891    9.3415  -10.6861 H   0  0  0  0  0  0  0  0  0  0  0  0
   -9.0156    5.6436   -8.5009 H   0  0  0  0  0  0  0  0  0  0  0  0
   -8.9532    8.1384  -12.8161 H   0  0  0  0  0  0  0  0  0  0  0  0
   -6.6999    3.9800  -10.1477 H   0  0  0  0  0  0  0  0  0  0  0  0
   -7.2519    2.4023  -10.6788 H   0  0  0  0  0  0  0  0  0  0  0  0
  -10.1637    2.3266  -11.1567 H   0  0  0  0  0  0  0  0  0  0  0  0
  -10.9365    3.8772  -10.8851 H   0  0  0  0  0  0  0  0  0  0  0  0
   -7.0466    2.3874   -8.2376 H   0  0  0  0  0  0  0  0  0  0  0  0
   -7.9824    3.8697   -8.0966 H   0  0  0  0  0  0  0  0  0  0  0  0
  -10.3595    3.8609   -8.5173 H   0  0  0  0  0  0  0  0  0  0  0  0
  -11.1908    2.3629   -8.9152 H   0  0  0  0  0  0  0  0  0  0  0  0
   -7.4703    3.6289  -12.6608 H   0  0  0  0  0  0  0  0  0  0  0  0
   -9.1795    3.2803  -12.9482 H   0  0  0  0  0  0  0  0  0  0  0  0
   -7.3003    6.0683  -16.4530 H   0  0  0  0  0  0  0  0  0  0  0  0
   -6.9679    4.3385  -16.6958 H   0  0  0  0  0  0  0  0  0  0  0  0
   -7.6238    5.3339  -18.0136 H   0  0  0  0  0  0  0  0  0  0  0  0
  -10.6040    3.3130  -16.8373 H   0  0  0  0  0  0  0  0  0  0  0  0
   -8.9634    2.6917  -16.8713 H   0  0  0  0  0  0  0  0  0  0  0  0
   -9.5722    3.6371  -18.2480 H   0  0  0  0  0  0  0  0  0  0  0  0
  -11.0499    5.7599  -16.4574 H   0  0  0  0  0  0  0  0  0  0  0  0
   -9.7072    6.9094  -16.2748 H   0  0  0  0  0  0  0  0  0  0  0  0
  -10.0809    6.1880  -17.8567 H   0  0  0  0  0  0  0  0  0  0  0  0
   -9.0298    1.2996   -9.0568 H   0  0  0  0  0  0  0  0  0  0  0  0
  1  2  2  0  0  0  0
  1  3  1  0  0  0  0
  2  4  1  0  0  0  0
  3  5  2  0  0  0  0
  4  6  2  0  0  0  0
  5  6  1  0  0  0  0
  5 13  1  0  0  0  0
  6 19  1  0  0  0  0
  7 19  1  0  0  0  0
  7 20  2  0  0  0  0
  7 21  1  0  0  0  0
  8 10  1  0  0  0  0
  8 13  1  0  0  0  0
  9 11  1  0  0  0  0
  9 13  1  0  0  0  0
 10 18  1  0  0  0  0
 11 18  1  0  0  0  0
 12 13  1  0  0  0  0
 12 19  1  0  0  0  0
 14 17  1  0  0  0  0
 15 17  1  0  0  0  0
 16 17  1  0  0  0  0
 17 21  1  0  0  0  0
  1 22  1  0  0  0  0
  2 23  1  0  0  0  0
  3 24  1  0  0  0  0
  4 25  1  0  0  0  0
  8 26  1  0  0  0  0
  8 27  1  0  0  0  0
  9 28  1  0  0  0  0
  9 29  1  0  0  0  0
 10 30  1  0  0  0  0
 10 31  1  0  0  0  0
 11 32  1  0  0  0  0
 11 33  1  0  0  0  0
 12 34  1  0  0  0  0
 12 35  1  0  0  0  0
 14 36  1  0  0  0  0
 14 37  1  0  0  0  0
 14 38  1  0  0  0  0
 15 39  1  0  0  0  0
 15 40  1  0  0  0  0
 15 41  1  0  0  0  0
 16 42  1  0  0  0  0
 16 43  1  0  0  0  0
 16 44  1  0  0  0  0
 18 45  1  0  0  0  0
M  END
> <id>
EN300-3351736

> <smiles>
CC(C)(C)OC(=O)N1CC2(CCNCC2)C=3C=CC=CC13

> <MDLNUMBER>
MFCD09266212

> <IUPAC Name>
tert-butyl 1,2-dihydrospiro[indole-3,4'-piperidine]-1-carboxylate

> <CAS>
676607-31-1

> <URL>
https://www.enaminestore.com/catalog/EN300-3351736

> <ROCS_ShapeQuery>
_x0404_0B

> <ROCS_TanimotoCombo>
0.375 

> <ROCS_ShapeTanimoto>
0.296 

> <ROCS_ColorTanimoto>
0.079 

> <ROCS_RefTversky>
0.271 

> <ROCS_RefColorTversky>
0.084 

> <ROCS_RefTverskyCombo>
0.355 

> <ROCS_FitTversky>
1.448 

> <ROCS_FitColorTversky>
0.577 

> <ROCS_FitTverskyCombo>
2.025 

> <ROCS_ColorScore>
-6.030

> <ROCS_Overlap>
1809.190

> <ROCS_Rank>
329                 

$$$$
untitled-dbase-25573_41
  -OEChem-08212314543D

 41 42  0     0  0  0  0  0  0999 V2000
   -8.6935    5.9940   -8.0332 C   0  0  0  0  0  0  0  0  0  0  0  0
   -8.9897    4.2971  -10.2412 C   0  0  0  0  0  0  0  0  0  0  0  0
   -8.7785    5.6732  -10.4395 C   0  0  0  0  0  0  0  0  0  0  0  0
   -8.8851    4.6284   -7.8397 C   0  0  0  0  0  0  0  0  0  0  0  0
   -9.0284    3.7818   -8.9384 C   0  0  0  0  0  0  0  0  0  0  0  0
   -8.6396    6.5145   -9.3260 C   0  0  0  0  0  0  0  0  0  0  0  0
   -8.2743    5.5184  -14.1872 C   0  0  0  0  0  0  0  0  0  0  0  0
   -9.1174    3.3685  -11.4201 C   0  0  0  0  0  0  0  0  0  0  0  0
   -8.7113    6.2708  -11.8235 C   0  0  0  0  0  0  0  0  0  0  0  0
   -9.6194    4.1063  -12.6551 C   0  0  0  0  0  0  0  0  0  0  0  0
   -8.9285    4.1003   -6.4421 C   0  0  0  0  0  0  0  0  0  0  0  0
   -7.0566    5.4688  -16.7762 C   0  0  0  0  0  0  0  0  0  0  0  0
   -7.4385    2.9872  -16.7051 C   0  0  0  0  0  0  0  0  0  0  0  0
   -9.3985    4.5565  -16.6438 C   0  0  0  0  0  0  0  0  0  0  0  0
   -7.9420    4.3489  -16.2314 C   0  0  0  0  0  0  0  0  0  0  0  0
   -8.8011    5.2888  -12.9115 N   0  0  0  0  0  0  0  0  0  0  0  0
   -9.2044    2.3937   -8.7190 N   0  0  0  0  0  0  0  0  0  0  0  0
   -8.1766    6.6272  -14.7094 O   0  0  0  0  0  0  0  0  0  0  0  0
   -7.8664    4.3632  -14.8013 O   0  0  0  0  0  0  0  0  0  0  0  0
   -8.4003    8.2221   -9.4838 Cl  0  0  0  0  0  0  0  0  0  0  0  0
   -8.5847    6.6484   -7.1710 H   0  0  0  0  0  0  0  0  0  0  0  0
   -8.1394    2.9154  -11.6236 H   0  0  0  0  0  0  0  0  0  0  0  0
   -9.8266    2.5609  -11.2059 H   0  0  0  0  0  0  0  0  0  0  0  0
   -9.5504    6.9619  -11.9677 H   0  0  0  0  0  0  0  0  0  0  0  0
   -7.7741    6.8261  -11.9357 H   0  0  0  0  0  0  0  0  0  0  0  0
   -9.6142    3.4337  -13.5187 H   0  0  0  0  0  0  0  0  0  0  0  0
  -10.6514    4.4509  -12.5142 H   0  0  0  0  0  0  0  0  0  0  0  0
   -9.9571    4.1127   -6.0644 H   0  0  0  0  0  0  0  0  0  0  0  0
   -8.5506    3.0720   -6.3963 H   0  0  0  0  0  0  0  0  0  0  0  0
   -8.3019    4.7020   -5.7728 H   0  0  0  0  0  0  0  0  0  0  0  0
   -7.4146    6.4479  -16.4384 H   0  0  0  0  0  0  0  0  0  0  0  0
   -6.0155    5.3507  -16.4585 H   0  0  0  0  0  0  0  0  0  0  0  0
   -7.0837    5.4909  -17.8717 H   0  0  0  0  0  0  0  0  0  0  0  0
   -8.0709    2.1807  -16.3166 H   0  0  0  0  0  0  0  0  0  0  0  0
   -6.4267    2.7935  -16.3312 H   0  0  0  0  0  0  0  0  0  0  0  0
   -7.4232    2.9199  -17.7978 H   0  0  0  0  0  0  0  0  0  0  0  0
  -10.0338    3.7534  -16.2531 H   0  0  0  0  0  0  0  0  0  0  0  0
   -9.7882    5.5130  -16.2805 H   0  0  0  0  0  0  0  0  0  0  0  0
   -9.5023    4.5300  -17.7345 H   0  0  0  0  0  0  0  0  0  0  0  0
   -9.1812    2.0467   -7.7846 H   0  0  0  0  0  0  0  0  0  0  0  0
   -9.2530    1.7839   -9.5065 H   0  0  0  0  0  0  0  0  0  0  0  0
  1  4  2  0  0  0  0
  1  6  1  0  0  0  0
  2  3  1  0  0  0  0
  2  5  2  0  0  0  0
  2  8  1  0  0  0  0
  3  6  2  0  0  0  0
  3  9  1  0  0  0  0
  4  5  1  0  0  0  0
  4 11  1  0  0  0  0
  5 17  1  0  0  0  0
  6 20  1  0  0  0  0
  7 16  1  0  0  0  0
  7 18  2  0  0  0  0
  7 19  1  0  0  0  0
  8 10  1  0  0  0  0
  9 16  1  0  0  0  0
 10 16  1  0  0  0  0
 12 15  1  0  0  0  0
 13 15  1  0  0  0  0
 14 15  1  0  0  0  0
 15 19  1  0  0  0  0
  1 21  1  0  0  0  0
  8 22  1  0  0  0  0
  8 23  1  0  0  0  0
  9 24  1  0  0  0  0
  9 25  1  0  0  0  0
 10 26  1  0  0  0  0
 10 27  1  0  0  0  0
 11 28  1  0  0  0  0
 11 29  1  0  0  0  0
 11 30  1  0  0  0  0
 12 31  1  0  0  0  0
 12 32  1  0  0  0  0
 12 33  1  0  0  0  0
 13 34  1  0  0  0  0
 13 35  1  0  0  0  0
 13 36  1  0  0  0  0
 14 37  1  0  0  0  0
 14 38  1  0  0  0  0
 14 39  1  0  0  0  0
 17 40  1  0  0  0  0
 17 41  1  0  0  0  0
M  END
> <id>
EN300-1609911

> <smiles>
CC=1C=C(Cl)C=2CN(CCC2C1N)C(=O)OC(C)(C)C

> <IUPAC Name>
tert-butyl 5-amino-8-chloro-6-methyl-1,2,3,4-tetrahydroisoquinoline-2-carboxylate

> <CAS>
2172157-68-3

> <URL>
https://www.enaminestore.com/catalog/EN300-1609911

> <ROCS_ShapeQuery>
_x0404_0B

> <ROCS_TanimotoCombo>
0.375 

> <ROCS_ShapeTanimoto>
0.299 

> <ROCS_ColorTanimoto>
0.076 

> <ROCS_RefTversky>
0.271 

> <ROCS_RefColorTversky>
0.080 

> <ROCS_RefTverskyCombo>
0.351 

> <ROCS_FitTversky>
1.525 

> <ROCS_FitColorTversky>
0.606 

> <ROCS_FitTverskyCombo>
2.131 

> <ROCS_ColorScore>
-5.750

> <ROCS_Overlap>
1806.463

> <ROCS_Rank>
330                 

$$$$
untitled-dbase-14160_115
  -OEChem-08212314543D

 41 42  0     0  0  0  0  0  0999 V2000
   -8.5218    5.5323  -14.2697 C   0  0  0  0  0  0  0  0  0  0  0  0
   -7.9570    3.5479  -11.1154 C   0  0  0  0  0  0  0  0  0  0  0  0
   -9.9058    5.1817  -10.8464 C   0  0  0  0  0  0  0  0  0  0  0  0
   -8.3389    3.6707  -12.5879 C   0  0  0  0  0  0  0  0  0  0  0  0
   -9.1160    5.9464  -11.9014 C   0  0  0  0  0  0  0  0  0  0  0  0
   -9.9525    2.9438   -9.6421 C   0  0  0  0  0  0  0  0  0  0  0  0
   -8.2041    3.2447   -8.0635 C   0  0  0  0  0  0  0  0  0  0  0  0
   -9.0656    4.0844  -10.1638 C   0  0  0  0  0  0  0  0  0  0  0  0
   -8.4666    4.5287   -8.8259 C   0  0  0  0  0  0  0  0  0  0  0  0
   -7.2414    5.4880  -16.8275 C   0  0  0  0  0  0  0  0  0  0  0  0
   -8.9363    3.7384  -17.4402 C   0  0  0  0  0  0  0  0  0  0  0  0
   -9.6936    6.0550  -16.8334 C   0  0  0  0  0  0  0  0  0  0  0  0
   -8.6547    4.9648  -16.5749 C   0  0  0  0  0  0  0  0  0  0  0  0
   -9.1196    2.2527   -8.6462 N   0  0  0  0  0  0  0  0  0  0  0  0
   -8.6435    5.0556  -12.9608 N   0  0  0  0  0  0  0  0  0  0  0  0
   -8.2464    6.6948  -14.5604 O   0  0  0  0  0  0  0  0  0  0  0  0
   -8.7519    4.5579  -15.2051 O   0  0  0  0  0  0  0  0  0  0  0  0
   -7.3630    5.2832   -8.9676 F   0  0  0  0  0  0  0  0  0  0  0  0
   -9.3647    5.2620   -8.1174 F   0  0  0  0  0  0  0  0  0  0  0  0
   -7.7117    2.5038  -10.8976 H   0  0  0  0  0  0  0  0  0  0  0  0
   -7.0365    4.1211  -10.9499 H   0  0  0  0  0  0  0  0  0  0  0  0
  -10.2677    5.8875  -10.0873 H   0  0  0  0  0  0  0  0  0  0  0  0
  -10.7969    4.7467  -11.3146 H   0  0  0  0  0  0  0  0  0  0  0  0
   -7.5293    3.2641  -13.2053 H   0  0  0  0  0  0  0  0  0  0  0  0
   -9.2329    3.0742  -12.8125 H   0  0  0  0  0  0  0  0  0  0  0  0
   -9.7393    6.7134  -12.3758 H   0  0  0  0  0  0  0  0  0  0  0  0
   -8.2735    6.4623  -11.4292 H   0  0  0  0  0  0  0  0  0  0  0  0
  -10.8558    3.3358   -9.1529 H   0  0  0  0  0  0  0  0  0  0  0  0
  -10.2748    2.2461  -10.4225 H   0  0  0  0  0  0  0  0  0  0  0  0
   -7.1723    2.9047   -8.1903 H   0  0  0  0  0  0  0  0  0  0  0  0
   -8.4043    3.3727   -6.9955 H   0  0  0  0  0  0  0  0  0  0  0  0
   -7.0354    6.3684  -16.2082 H   0  0  0  0  0  0  0  0  0  0  0  0
   -6.4848    4.7265  -16.6121 H   0  0  0  0  0  0  0  0  0  0  0  0
   -7.1234    5.8083  -17.8690 H   0  0  0  0  0  0  0  0  0  0  0  0
   -9.9493    3.3596  -17.2622 H   0  0  0  0  0  0  0  0  0  0  0  0
   -8.2522    2.9193  -17.1908 H   0  0  0  0  0  0  0  0  0  0  0  0
   -8.8330    3.9640  -18.5065 H   0  0  0  0  0  0  0  0  0  0  0  0
  -10.7074    5.6799  -16.6523 H   0  0  0  0  0  0  0  0  0  0  0  0
   -9.5291    6.9286  -16.1945 H   0  0  0  0  0  0  0  0  0  0  0  0
   -9.6662    6.3790  -17.8801 H   0  0  0  0  0  0  0  0  0  0  0  0
   -9.7014    1.8265   -7.9266 H   0  0  0  0  0  0  0  0  0  0  0  0
  1 15  1  0  0  0  0
  1 16  2  0  0  0  0
  1 17  1  0  0  0  0
  2  4  1  0  0  0  0
  2  8  1  0  0  0  0
  3  5  1  0  0  0  0
  3  8  1  0  0  0  0
  4 15  1  0  0  0  0
  5 15  1  0  0  0  0
  6  8  1  0  0  0  0
  6 14  1  0  0  0  0
  7  9  1  0  0  0  0
  7 14  1  0  0  0  0
  8  9  1  0  0  0  0
  9 18  1  0  0  0  0
  9 19  1  0  0  0  0
 10 13  1  0  0  0  0
 11 13  1  0  0  0  0
 12 13  1  0  0  0  0
 13 17  1  0  0  0  0
  2 20  1  0  0  0  0
  2 21  1  0  0  0  0
  3 22  1  0  0  0  0
  3 23  1  0  0  0  0
  4 24  1  0  0  0  0
  4 25  1  0  0  0  0
  5 26  1  0  0  0  0
  5 27  1  0  0  0  0
  6 28  1  0  0  0  0
  6 29  1  0  0  0  0
  7 30  1  0  0  0  0
  7 31  1  0  0  0  0
 10 32  1  0  0  0  0
 10 33  1  0  0  0  0
 10 34  1  0  0  0  0
 11 35  1  0  0  0  0
 11 36  1  0  0  0  0
 11 37  1  0  0  0  0
 12 38  1  0  0  0  0
 12 39  1  0  0  0  0
 12 40  1  0  0  0  0
 14 41  1  0  0  0  0
M  END
> <id>
EN300-1105261

> <smiles>
CC(C)(C)OC(=O)N1CCC2(CNCC2(F)F)CC1

> <MDLNUMBER>
MFCD18791313

> <IUPAC Name>
tert-butyl 4,4-difluoro-2,8-diazaspiro[4.5]decane-8-carboxylate

> <CAS>
1263178-02-4

> <URL>
https://www.enaminestore.com/catalog/EN300-1105261

> <ROCS_ShapeQuery>
_x0404_0B

> <ROCS_TanimotoCombo>
0.374 

> <ROCS_ShapeTanimoto>
0.297 

> <ROCS_ColorTanimoto>
0.077 

> <ROCS_RefTversky>
0.269 

> <ROCS_RefColorTversky>
0.081 

> <ROCS_RefTverskyCombo>
0.350 

> <ROCS_FitTversky>
1.555 

> <ROCS_FitColorTversky>
0.616 

> <ROCS_FitTverskyCombo>
2.171 

> <ROCS_ColorScore>
-5.841

> <ROCS_Overlap>
1792.241

> <ROCS_Rank>
331                 

$$$$
untitled-dbase-34229_50
  -OEChem-08212314543D

 45 46  0     1  0  0  0  0  0999 V2000
   -8.5343    5.6230  -14.2521 C   0  0  0  0  0  0  0  0  0  0  0  0
   -7.4691    4.9797  -10.7645 C   0  0  0  0  0  0  0  0  0  0  0  0
   -9.8291    4.0588  -11.0753 C   0  0  0  0  0  0  0  0  0  0  0  0
   -7.9422    5.9239  -11.8647 C   0  0  0  0  0  0  0  0  0  0  0  0
   -9.3900    3.9977  -12.5339 C   0  0  0  0  0  0  0  0  0  0  0  0
   -9.4469    3.0930   -7.5771 C   0  0  0  0  0  0  0  0  0  0  0  0
   -8.1120    2.8795   -9.5521 C   0  0  0  0  0  0  0  0  0  0  0  0
  -10.0097    4.4079   -8.1153 C   0  0  1  0  0  0  0  0  0  0  0  0
   -8.6425    4.2262  -10.0923 C   0  0  0  0  0  0  0  0  0  0  0  0
  -10.3129    5.3757   -6.9786 C   0  0  0  0  0  0  0  0  0  0  0  0
   -7.1671    5.6106  -16.7650 C   0  0  0  0  0  0  0  0  0  0  0  0
   -8.6345    3.6561  -17.3446 C   0  0  0  0  0  0  0  0  0  0  0  0
   -9.6653    5.8972  -16.8722 C   0  0  0  0  0  0  0  0  0  0  0  0
   -8.5216    4.9433  -16.5306 C   0  0  0  0  0  0  0  0  0  0  0  0
   -9.0875    2.2117   -8.6879 N   0  0  0  0  0  0  0  0  0  0  0  0
   -8.6333    5.1912  -12.9259 N   0  0  0  0  0  0  0  0  0  0  0  0
   -8.3796    6.7953  -14.5892 O   0  0  0  0  0  0  0  0  0  0  0  0
   -9.0559    5.0417   -8.9756 O   0  0  0  0  0  0  0  0  0  0  0  0
   -8.6215    4.5887  -15.1466 O   0  0  0  0  0  0  0  0  0  0  0  0
   -6.7561    4.2604  -11.1870 H   0  0  0  0  0  0  0  0  0  0  0  0
   -6.9302    5.5714  -10.0140 H   0  0  0  0  0  0  0  0  0  0  0  0
  -10.5567    4.8765  -10.9688 H   0  0  0  0  0  0  0  0  0  0  0  0
  -10.3802    3.1356  -10.8295 H   0  0  0  0  0  0  0  0  0  0  0  0
   -8.6523    6.6578  -11.4671 H   0  0  0  0  0  0  0  0  0  0  0  0
   -7.0879    6.4821  -12.2562 H   0  0  0  0  0  0  0  0  0  0  0  0
   -8.7910    3.0942  -12.7029 H   0  0  0  0  0  0  0  0  0  0  0  0
  -10.2598    3.9334  -13.2021 H   0  0  0  0  0  0  0  0  0  0  0  0
   -8.5607    3.2754   -6.9579 H   0  0  0  0  0  0  0  0  0  0  0  0
  -10.1921    2.5952   -6.9485 H   0  0  0  0  0  0  0  0  0  0  0  0
   -7.8565    2.2117  -10.3859 H   0  0  0  0  0  0  0  0  0  0  0  0
   -7.1855    3.0390   -8.9805 H   0  0  0  0  0  0  0  0  0  0  0  0
  -10.9388    4.2343   -8.6672 H   0  0  0  0  0  0  0  0  0  0  0  0
   -9.4070    5.5725   -6.4052 H   0  0  0  0  0  0  0  0  0  0  0  0
  -11.0652    4.9481   -6.3159 H   0  0  0  0  0  0  0  0  0  0  0  0
  -10.6887    6.3166   -7.3805 H   0  0  0  0  0  0  0  0  0  0  0  0
   -7.0821    6.5349  -16.1825 H   0  0  0  0  0  0  0  0  0  0  0  0
   -6.3388    4.9493  -16.4907 H   0  0  0  0  0  0  0  0  0  0  0  0
   -7.0486    5.8960  -17.8166 H   0  0  0  0  0  0  0  0  0  0  0  0
   -9.6048    3.1739  -17.1795 H   0  0  0  0  0  0  0  0  0  0  0  0
   -7.8730    2.9309  -17.0358 H   0  0  0  0  0  0  0  0  0  0  0  0
   -8.5191    3.8447  -18.4168 H   0  0  0  0  0  0  0  0  0  0  0  0
  -10.6370    5.4187  -16.7041 H   0  0  0  0  0  0  0  0  0  0  0  0
   -9.6215    6.8111  -16.2709 H   0  0  0  0  0  0  0  0  0  0  0  0
   -9.6370    6.1758  -17.9318 H   0  0  0  0  0  0  0  0  0  0  0  0
   -8.6789    1.3525   -8.3188 H   0  0  0  0  0  0  0  0  0  0  0  0
  1 16  1  0  0  0  0
  1 17  2  0  0  0  0
  1 19  1  0  0  0  0
  2  4  1  0  0  0  0
  2  9  1  0  0  0  0
  3  5  1  0  0  0  0
  3  9  1  0  0  0  0
  4 16  1  0  0  0  0
  5 16  1  0  0  0  0
  6  8  1  0  0  0  0
  6 15  1  0  0  0  0
  7  9  1  0  0  0  0
  7 15  1  0  0  0  0
  8 10  1  0  0  0  0
  8 18  1  0  0  0  0
  9 18  1  0  0  0  0
 11 14  1  0  0  0  0
 12 14  1  0  0  0  0
 13 14  1  0  0  0  0
 14 19  1  0  0  0  0
  2 20  1  0  0  0  0
  2 21  1  0  0  0  0
  3 22  1  0  0  0  0
  3 23  1  0  0  0  0
  4 24  1  0  0  0  0
  4 25  1  0  0  0  0
  5 26  1  0  0  0  0
  5 27  1  0  0  0  0
  6 28  1  0  0  0  0
  6 29  1  0  0  0  0
  7 30  1  0  0  0  0
  7 31  1  0  0  0  0
  8 32  1  0  0  0  0
 10 33  1  0  0  0  0
 10 34  1  0  0  0  0
 10 35  1  0  0  0  0
 11 36  1  0  0  0  0
 11 37  1  0  0  0  0
 11 38  1  0  0  0  0
 12 39  1  0  0  0  0
 12 40  1  0  0  0  0
 12 41  1  0  0  0  0
 13 42  1  0  0  0  0
 13 43  1  0  0  0  0
 13 44  1  0  0  0  0
 15 45  1  0  0  0  0
M  END
> <id>
EN300-755333

> <smiles>
CC1CNCC2(CCN(CC2)C(=O)OC(C)(C)C)O1

> <MDLNUMBER>
MFCD31457128

> <IUPAC Name>
tert-butyl 2-methyl-1-oxa-4,9-diazaspiro[5.5]undecane-9-carboxylate

> <CAS>
1839098-01-9

> <Purity>
95

> <URL>
https://www.enaminestore.com/catalog/EN300-755333

> <ROCS_ShapeQuery>
_x0404_0B

> <ROCS_TanimotoCombo>
0.374 

> <ROCS_ShapeTanimoto>
0.288 

> <ROCS_ColorTanimoto>
0.086 

> <ROCS_RefTversky>
0.262 

> <ROCS_RefColorTversky>
0.091 

> <ROCS_RefTverskyCombo>
0.353 

> <ROCS_FitTversky>
1.536 

> <ROCS_FitColorTversky>
0.627 

> <ROCS_FitTverskyCombo>
2.163 

> <ROCS_ColorScore>
-6.540

> <ROCS_Overlap>
1747.014

> <ROCS_Rank>
332                 

$$$$
untitled-dbase-35430_14
  -OEChem-08212314543D

 42 45  0     1  0  0  0  0  0999 V2000
   -8.2380    3.4232  -17.5103 C   0  0  0  0  0  0  0  0  0  0  0  0
   -7.0130    5.5677  -17.5079 C   0  0  0  0  0  0  0  0  0  0  0  0
   -8.1161    4.6094  -11.8273 C   0  0  0  0  0  0  0  0  0  0  0  0
   -9.3899    6.7850  -12.0721 C   0  0  0  0  0  0  0  0  0  0  0  0
   -9.2277    4.0922  -18.4783 C   0  0  0  0  0  0  0  0  0  0  0  0
   -8.1301    6.2304  -18.3279 C   0  0  0  0  0  0  0  0  0  0  0  0
   -9.9080    4.9004  -13.6451 C   0  0  0  0  0  0  0  0  0  0  0  0
   -9.8640    5.6416  -16.7533 C   0  0  0  0  0  0  0  0  0  0  0  0
   -8.8074    4.6751  -10.4713 C   0  0  0  0  0  0  0  0  0  0  0  0
   -8.6353    7.0597  -10.7779 C   0  0  0  0  0  0  0  0  0  0  0  0
   -7.6785    6.0740  -13.8250 C   0  0  0  0  0  0  0  0  0  0  0  0
   -7.6342    4.4977  -16.5869 C   0  0  0  0  0  0  0  0  0  0  0  0
   -8.7716    5.5858  -12.8398 C   0  0  0  0  0  0  0  0  0  0  0  0
   -8.7714    5.1620  -15.7518 C   0  0  2  0  0  0  0  0  0  0  0  0
   -9.3737    4.1922  -14.8096 N   0  0  0  0  0  0  0  0  0  0  0  0
   -9.4190    5.5259  -18.1641 N   0  0  0  0  0  0  0  0  0  0  0  0
   -8.6995    5.9636   -9.8647 O   0  0  0  0  0  0  0  0  0  0  0  0
   -8.2510    6.3471  -15.1027 O   0  0  0  0  0  0  0  0  0  0  0  0
   -8.7293    2.6277  -16.9426 H   0  0  0  0  0  0  0  0  0  0  0  0
   -7.4383    2.9421  -18.0866 H   0  0  0  0  0  0  0  0  0  0  0  0
   -6.2827    5.1011  -18.1795 H   0  0  0  0  0  0  0  0  0  0  0  0
   -6.4736    6.3233  -16.9272 H   0  0  0  0  0  0  0  0  0  0  0  0
   -7.0524    4.8213  -11.7167 H   0  0  0  0  0  0  0  0  0  0  0  0
   -8.2154    3.5917  -12.2126 H   0  0  0  0  0  0  0  0  0  0  0  0
  -10.4219    6.5343  -11.8128 H   0  0  0  0  0  0  0  0  0  0  0  0
   -9.4133    7.6870  -12.6839 H   0  0  0  0  0  0  0  0  0  0  0  0
   -8.8766    3.9832  -19.5124 H   0  0  0  0  0  0  0  0  0  0  0  0
  -10.1931    3.5721  -18.4405 H   0  0  0  0  0  0  0  0  0  0  0  0
   -8.2430    7.2813  -18.0328 H   0  0  0  0  0  0  0  0  0  0  0  0
   -7.8501    6.2511  -19.3884 H   0  0  0  0  0  0  0  0  0  0  0  0
  -10.4624    4.2105  -13.0090 H   0  0  0  0  0  0  0  0  0  0  0  0
  -10.6185    5.6499  -13.9940 H   0  0  0  0  0  0  0  0  0  0  0  0
  -10.7942    5.0675  -16.6478 H   0  0  0  0  0  0  0  0  0  0  0  0
  -10.1461    6.6832  -16.5534 H   0  0  0  0  0  0  0  0  0  0  0  0
   -9.8815    4.4610  -10.5948 H   0  0  0  0  0  0  0  0  0  0  0  0
   -8.4205    3.9107   -9.7754 H   0  0  0  0  0  0  0  0  0  0  0  0
   -7.5795    7.3160  -10.9634 H   0  0  0  0  0  0  0  0  0  0  0  0
   -9.0780    7.9316  -10.2721 H   0  0  0  0  0  0  0  0  0  0  0  0
   -7.2078    6.9944  -13.4801 H   0  0  0  0  0  0  0  0  0  0  0  0
   -6.8824    5.3339  -13.9301 H   0  0  0  0  0  0  0  0  0  0  0  0
   -6.8488    4.0637  -15.9610 H   0  0  0  0  0  0  0  0  0  0  0  0
   -8.7097    3.4921  -14.5233 H   0  0  0  0  0  0  0  0  0  0  0  0
  1  5  1  0  0  0  0
  1 12  1  0  0  0  0
  2  6  1  0  0  0  0
  2 12  1  0  0  0  0
  3  9  1  0  0  0  0
  3 13  1  0  0  0  0
  4 10  1  0  0  0  0
  4 13  1  0  0  0  0
  5 16  1  0  0  0  0
  6 16  1  0  0  0  0
  7 13  1  0  0  0  0
  7 15  1  0  0  0  0
  8 14  1  0  0  0  0
  8 16  1  0  0  0  0
  9 17  1  0  0  0  0
 10 17  1  0  0  0  0
 11 13  1  0  0  0  0
 11 18  1  0  0  0  0
 12 14  1  0  0  0  0
 14 15  1  0  0  0  0
 14 18  1  0  0  0  0
  1 19  1  0  0  0  0
  1 20  1  0  0  0  0
  2 21  1  0  0  0  0
  2 22  1  0  0  0  0
  3 23  1  0  0  0  0
  3 24  1  0  0  0  0
  4 25  1  0  0  0  0
  4 26  1  0  0  0  0
  5 27  1  0  0  0  0
  5 28  1  0  0  0  0
  6 29  1  0  0  0  0
  6 30  1  0  0  0  0
  7 31  1  0  0  0  0
  7 32  1  0  0  0  0
  8 33  1  0  0  0  0
  8 34  1  0  0  0  0
  9 35  1  0  0  0  0
  9 36  1  0  0  0  0
 10 37  1  0  0  0  0
 10 38  1  0  0  0  0
 11 39  1  0  0  0  0
 11 40  1  0  0  0  0
 12 41  1  0  0  0  0
 15 42  1  0  0  0  0
M  END
> <id>
EN300-1278969

> <smiles>
C1CC2(CCO1)CNC3(CN4CCC3CC4)OC2

> <IUPAC Name>
dispiro[4-azabicyclo[2.2.2]octane-2,2'-[1,3]oxazinane-5',4''-oxane]

> <CAS>
2172372-50-6

> <URL>
https://www.enaminestore.com/catalog/EN300-1278969

> <ROCS_ShapeQuery>
_x0404_0B

> <ROCS_TanimotoCombo>
0.374 

> <ROCS_ShapeTanimoto>
0.282 

> <ROCS_ColorTanimoto>
0.092 

> <ROCS_RefTversky>
0.257 

> <ROCS_RefColorTversky>
0.103 

> <ROCS_RefTverskyCombo>
0.360 

> <ROCS_FitTversky>
1.525 

> <ROCS_FitColorTversky>
0.462 

> <ROCS_FitTverskyCombo>
1.987 

> <ROCS_ColorScore>
-7.485

> <ROCS_Overlap>
1714.435

> <ROCS_Rank>
333                 

$$$$
untitled-dbase-31819_52
  -OEChem-08212314543D

 57 60  0     0  0  0  0  0  0999 V2000
   -9.5114    3.2774   -7.4922 C   0  0  0  0  0  0  0  0  0  0  0  0
   -8.9908    2.1523   -8.1253 C   0  0  0  0  0  0  0  0  0  0  0  0
   -9.5785    4.4918   -8.1735 C   0  0  0  0  0  0  0  0  0  0  0  0
   -8.5386    2.2364   -9.4430 C   0  0  0  0  0  0  0  0  0  0  0  0
   -9.1379    4.5821   -9.5016 C   0  0  0  0  0  0  0  0  0  0  0  0
   -8.6202    3.4459  -10.1447 C   0  0  0  0  0  0  0  0  0  0  0  0
   -9.5830    2.8355  -14.3795 C   0  0  0  0  0  0  0  0  0  0  0  0
   -8.4584    2.9941  -13.6663 C   0  0  0  0  0  0  0  0  0  0  0  0
   -9.2203    5.9176  -10.1476 C   0  0  0  0  0  0  0  0  0  0  0  0
   -9.1449    5.8641  -15.0262 C   0  0  0  0  0  0  0  0  0  0  0  0
   -9.9125    3.4051  -15.7293 C   0  0  0  0  0  0  0  0  0  0  0  0
   -8.2927    2.4597  -12.2775 C   0  0  0  0  0  0  0  0  0  0  0  0
  -12.7088    9.3093  -12.9212 C   0  0  0  0  0  0  0  0  0  0  0  0
  -11.3021    9.6247  -13.4150 C   0  0  0  0  0  0  0  0  0  0  0  0
  -12.7554    8.0082  -12.1293 C   0  0  0  0  0  0  0  0  0  0  0  0
  -10.6962    8.4585  -14.1984 C   0  0  0  0  0  0  0  0  0  0  0  0
  -12.1588    6.8473  -12.9249 C   0  0  0  0  0  0  0  0  0  0  0  0
   -7.7362    4.3781  -16.7549 C   0  0  0  0  0  0  0  0  0  0  0  0
   -9.4964    5.1511  -17.5499 C   0  0  0  0  0  0  0  0  0  0  0  0
   -9.7218    7.1683  -12.2330 C   0  0  0  0  0  0  0  0  0  0  0  0
   -9.1292    4.6790  -16.1024 C   0  0  0  0  0  0  0  0  0  0  0  0
  -10.7126    7.1128  -13.4270 C   0  0  0  0  0  0  0  0  0  0  0  0
   -9.6367    5.9319  -11.4710 N   0  0  0  0  0  0  0  0  0  0  0  0
  -10.3625    6.0195  -14.3691 N   0  0  0  0  0  0  0  0  0  0  0  0
   -8.0607    5.3516  -17.8130 N   0  0  0  0  0  0  0  0  0  0  0  0
   -8.9431    6.9133   -9.4835 O   0  0  0  0  0  0  0  0  0  0  0  0
   -8.1722    6.5994  -14.8227 O   0  0  0  0  0  0  0  0  0  0  0  0
   -8.1410    3.5935  -11.4185 O   0  0  0  0  0  0  0  0  0  0  0  0
   -9.8683    3.2086   -6.4688 H   0  0  0  0  0  0  0  0  0  0  0  0
   -8.9461    1.2044   -7.5969 H   0  0  0  0  0  0  0  0  0  0  0  0
   -9.9656    5.3629   -7.6506 H   0  0  0  0  0  0  0  0  0  0  0  0
   -8.1431    1.3383   -9.9092 H   0  0  0  0  0  0  0  0  0  0  0  0
  -10.3868    2.2022  -13.9218 H   0  0  0  0  0  0  0  0  0  0  0  0
   -7.6137    3.5141  -14.0986 H   0  0  0  0  0  0  0  0  0  0  0  0
   -9.7450    2.5990  -16.4849 H   0  0  0  0  0  0  0  0  0  0  0  0
  -11.0084    3.6151  -15.8032 H   0  0  0  0  0  0  0  0  0  0  0  0
   -9.1946    1.9067  -11.9988 H   0  0  0  0  0  0  0  0  0  0  0  0
   -7.4215    1.7974  -12.2198 H   0  0  0  0  0  0  0  0  0  0  0  0
  -13.0634   10.1327  -12.2879 H   0  0  0  0  0  0  0  0  0  0  0  0
  -13.3949    9.2481  -13.7741 H   0  0  0  0  0  0  0  0  0  0  0  0
  -11.3281   10.5241  -14.0419 H   0  0  0  0  0  0  0  0  0  0  0  0
  -10.6595    9.8605  -12.5586 H   0  0  0  0  0  0  0  0  0  0  0  0
  -12.1979    8.1325  -11.1929 H   0  0  0  0  0  0  0  0  0  0  0  0
  -13.7916    7.7805  -11.8496 H   0  0  0  0  0  0  0  0  0  0  0  0
  -11.2299    8.3635  -15.1556 H   0  0  0  0  0  0  0  0  0  0  0  0
   -9.6579    8.7169  -14.4578 H   0  0  0  0  0  0  0  0  0  0  0  0
  -12.1557    5.9541  -12.2798 H   0  0  0  0  0  0  0  0  0  0  0  0
  -12.8287    6.5951  -13.7580 H   0  0  0  0  0  0  0  0  0  0  0  0
   -6.8674    4.6758  -16.1567 H   0  0  0  0  0  0  0  0  0  0  0  0
   -7.5753    3.3587  -17.1139 H   0  0  0  0  0  0  0  0  0  0  0  0
   -9.9780    4.4118  -18.1963 H   0  0  0  0  0  0  0  0  0  0  0  0
  -10.0804    6.0788  -17.5907 H   0  0  0  0  0  0  0  0  0  0  0  0
   -8.7151    7.4302  -12.5951 H   0  0  0  0  0  0  0  0  0  0  0  0
  -10.0014    7.9589  -11.5213 H   0  0  0  0  0  0  0  0  0  0  0  0
   -9.8862    5.0647  -11.9151 H   0  0  0  0  0  0  0  0  0  0  0  0
  -11.0846    5.3313  -14.5506 H   0  0  0  0  0  0  0  0  0  0  0  0
   -7.7203    6.2974  -17.6460 H   0  0  0  0  0  0  0  0  0  0  0  0
  1  2  2  0  0  0  0
  1  3  1  0  0  0  0
  2  4  1  0  0  0  0
  3  5  2  0  0  0  0
  4  6  2  0  0  0  0
  5  6  1  0  0  0  0
  5  9  1  0  0  0  0
  6 28  1  0  0  0  0
  7  8  2  0  0  0  0
  7 11  1  0  0  0  0
  8 12  1  0  0  0  0
  9 23  1  0  0  0  0
  9 26  2  0  0  0  0
 10 21  1  0  0  0  0
 10 24  1  0  0  0  0
 10 27  2  0  0  0  0
 11 21  1  0  0  0  0
 12 28  1  0  0  0  0
 13 14  1  0  0  0  0
 13 15  1  0  0  0  0
 14 16  1  0  0  0  0
 15 17  1  0  0  0  0
 16 22  1  0  0  0  0
 17 22  1  0  0  0  0
 18 21  1  0  0  0  0
 18 25  1  0  0  0  0
 19 21  1  0  0  0  0
 19 25  1  0  0  0  0
 20 22  1  0  0  0  0
 20 23  1  0  0  0  0
 22 24  1  0  0  0  0
  1 29  1  0  0  0  0
  2 30  1  0  0  0  0
  3 31  1  0  0  0  0
  4 32  1  0  0  0  0
  7 33  1  0  0  0  0
  8 34  1  0  0  0  0
 11 35  1  0  0  0  0
 11 36  1  0  0  0  0
 12 37  1  0  0  0  0
 12 38  1  0  0  0  0
 13 39  1  0  0  0  0
 13 40  1  0  0  0  0
 14 41  1  0  0  0  0
 14 42  1  0  0  0  0
 15 43  1  0  0  0  0
 15 44  1  0  0  0  0
 16 45  1  0  0  0  0
 16 46  1  0  0  0  0
 17 47  1  0  0  0  0
 17 48  1  0  0  0  0
 18 49  1  0  0  0  0
 18 50  1  0  0  0  0
 19 51  1  0  0  0  0
 19 52  1  0  0  0  0
 20 53  1  0  0  0  0
 20 54  1  0  0  0  0
 23 55  1  0  0  0  0
 24 56  1  0  0  0  0
 25 57  1  0  0  0  0
M  END
> <id>
EN300-6482042

> <smiles>
OC(=O)C(F)(F)F.O=C1NCC2(CCCCC2)NC(=O)C3(CNC3)C/C=C/COC=4C=CC=CC14

> <MDLNUMBER>
MFCD31736687

> <IUPAC Name>
(3'E)-5',7',8',10',11',12'-hexahydro-2'H-dispiro[azetidine-3,6'-[1,8,11]benzoxadiazacyclotetradecine-9',1''-cyclohexan]-3'-ene-7',12'-dione; trifluoroacetic acid

> <CAS>
2648972-77-2

> <URL>
https://www.enaminestore.com/catalog/EN300-6482042

> <Saltdate>
OC(=O)C(F)(F)F

> <ROCS_ShapeQuery>
_x0404_0B

> <ROCS_TanimotoCombo>
0.374 

> <ROCS_ShapeTanimoto>
0.318 

> <ROCS_ColorTanimoto>
0.057 

> <ROCS_RefTversky>
0.296 

> <ROCS_RefColorTversky>
0.063 

> <ROCS_RefTverskyCombo>
0.360 

> <ROCS_FitTversky>
1.294 

> <ROCS_FitColorTversky>
0.345 

> <ROCS_FitTverskyCombo>
1.639 

> <ROCS_ColorScore>
-4.581

> <ROCS_Overlap>
1982.164

> <ROCS_Rank>
334                 

$$$$
untitled-dbase-28080_58
  -OEChem-08212314543D

 46 48  0     1  0  0  0  0  0999 V2000
   -9.5462    4.8563  -13.7989 C   0  0  0  0  0  0  0  0  0  0  0  0
   -8.6075    7.0099  -11.0922 C   0  0  0  0  0  0  0  0  0  0  0  0
   -7.3420    6.1417  -11.2522 C   0  0  0  0  0  0  0  0  0  0  0  0
  -10.3916    5.2211  -10.6185 C   0  0  0  0  0  0  0  0  0  0  0  0
   -8.2797    3.7757  -10.9034 C   0  0  0  0  0  0  0  0  0  0  0  0
   -8.0402    4.1108   -7.8398 C   0  0  0  0  0  0  0  0  0  0  0  0
   -8.8575    2.9022   -7.4111 C   0  0  0  0  0  0  0  0  0  0  0  0
  -10.1738    3.0462   -9.3454 C   0  0  0  0  0  0  0  0  0  0  0  0
   -9.7436    6.1561  -11.6626 C   0  0  2  0  0  0  0  0  0  0  0  0
   -7.8324    4.8513  -11.9168 C   0  0  1  0  0  0  0  0  0  0  0  0
   -9.3864    4.2553   -9.8982 C   0  0  0  0  0  0  0  0  0  0  0  0
   -9.3515    6.7566  -15.5921 C   0  0  0  0  0  0  0  0  0  0  0  0
   -7.2484    5.6771  -16.4413 C   0  0  0  0  0  0  0  0  0  0  0  0
   -9.4793    4.6425  -16.9519 C   0  0  0  0  0  0  0  0  0  0  0  0
   -8.6659    5.4330  -15.9281 C   0  0  0  0  0  0  0  0  0  0  0  0
   -8.7988    4.9781   -8.7443 N   0  0  0  0  0  0  0  0  0  0  0  0
   -9.0368    5.3000  -12.5944 N   0  0  0  0  0  0  0  0  0  0  0  0
  -10.7402    4.6611  -14.0139 O   0  0  0  0  0  0  0  0  0  0  0  0
   -9.3355    2.2002   -8.5569 O   0  0  0  0  0  0  0  0  0  0  0  0
   -8.5629    4.6561  -14.7297 O   0  0  0  0  0  0  0  0  0  0  0  0
   -8.7865    7.3645  -10.0746 H   0  0  0  0  0  0  0  0  0  0  0  0
   -8.4858    7.9093  -11.7099 H   0  0  0  0  0  0  0  0  0  0  0  0
   -6.6513    6.6598  -11.9303 H   0  0  0  0  0  0  0  0  0  0  0  0
   -6.7922    5.9787  -10.3223 H   0  0  0  0  0  0  0  0  0  0  0  0
  -10.9606    5.8245   -9.9025 H   0  0  0  0  0  0  0  0  0  0  0  0
  -11.1476    4.6162  -11.1409 H   0  0  0  0  0  0  0  0  0  0  0  0
   -8.6598    2.9154  -11.4707 H   0  0  0  0  0  0  0  0  0  0  0  0
   -7.4052    3.4056  -10.3533 H   0  0  0  0  0  0  0  0  0  0  0  0
   -7.7102    4.6749   -6.9617 H   0  0  0  0  0  0  0  0  0  0  0  0
   -7.1340    3.7699   -8.3522 H   0  0  0  0  0  0  0  0  0  0  0  0
   -8.2713    2.2211   -6.7820 H   0  0  0  0  0  0  0  0  0  0  0  0
   -9.7260    3.2244   -6.8280 H   0  0  0  0  0  0  0  0  0  0  0  0
  -10.9941    3.3832   -8.7015 H   0  0  0  0  0  0  0  0  0  0  0  0
  -10.6261    2.4540  -10.1521 H   0  0  0  0  0  0  0  0  0  0  0  0
  -10.5084    6.7626  -12.1593 H   0  0  0  0  0  0  0  0  0  0  0  0
   -7.1044    4.4370  -12.6195 H   0  0  0  0  0  0  0  0  0  0  0  0
  -10.3692    6.5856  -15.2233 H   0  0  0  0  0  0  0  0  0  0  0  0
   -8.7962    7.3172  -14.8331 H   0  0  0  0  0  0  0  0  0  0  0  0
   -9.4477    7.3848  -16.4850 H   0  0  0  0  0  0  0  0  0  0  0  0
   -6.7527    4.7301  -16.6837 H   0  0  0  0  0  0  0  0  0  0  0  0
   -6.6331    6.1600  -15.6736 H   0  0  0  0  0  0  0  0  0  0  0  0
   -7.2457    6.3086  -17.3356 H   0  0  0  0  0  0  0  0  0  0  0  0
   -8.9878    3.6931  -17.1931 H   0  0  0  0  0  0  0  0  0  0  0  0
  -10.4880    4.4261  -16.5853 H   0  0  0  0  0  0  0  0  0  0  0  0
   -9.5626    5.1957  -17.8944 H   0  0  0  0  0  0  0  0  0  0  0  0
   -9.4798    5.4975   -8.2089 H   0  0  0  0  0  0  0  0  0  0  0  0
  1 17  1  0  0  0  0
  1 18  2  0  0  0  0
  1 20  1  0  0  0  0
  2  3  1  0  0  0  0
  2  9  1  0  0  0  0
  3 10  1  0  0  0  0
  4  9  1  0  0  0  0
  4 11  1  0  0  0  0
  5 10  1  0  0  0  0
  5 11  1  0  0  0  0
  6  7  1  0  0  0  0
  6 16  1  0  0  0  0
  7 19  1  0  0  0  0
  8 11  1  0  0  0  0
  8 19  1  0  0  0  0
  9 17  1  0  0  0  0
 10 17  1  0  0  0  0
 11 16  1  0  0  0  0
 12 15  1  0  0  0  0
 13 15  1  0  0  0  0
 14 15  1  0  0  0  0
 15 20  1  0  0  0  0
  2 21  1  0  0  0  0
  2 22  1  0  0  0  0
  3 23  1  0  0  0  0
  3 24  1  0  0  0  0
  4 25  1  0  0  0  0
  4 26  1  0  0  0  0
  5 27  1  0  0  0  0
  5 28  1  0  0  0  0
  6 29  1  0  0  0  0
  6 30  1  0  0  0  0
  7 31  1  0  0  0  0
  7 32  1  0  0  0  0
  8 33  1  0  0  0  0
  8 34  1  0  0  0  0
  9 35  1  0  0  0  0
 10 36  1  0  0  0  0
 12 37  1  0  0  0  0
 12 38  1  0  0  0  0
 12 39  1  0  0  0  0
 13 40  1  0  0  0  0
 13 41  1  0  0  0  0
 13 42  1  0  0  0  0
 14 43  1  0  0  0  0
 14 44  1  0  0  0  0
 14 45  1  0  0  0  0
 16 46  1  0  0  0  0
M  END
> <id>
EN300-1645387

> <smiles>
CC(C)(C)OC(=O)N1C2CCC1CC3(COCCN3)C2

> <IUPAC Name>
tert-butyl 8-azaspiro[bicyclo[3.2.1]octane-3,3'-morpholine]-8-carboxylate

> <CAS>
2171652-80-3

> <URL>
https://www.enaminestore.com/catalog/EN300-1645387

> <ROCS_ShapeQuery>
_x0404_0B

> <ROCS_TanimotoCombo>
0.374 

> <ROCS_ShapeTanimoto>
0.293 

> <ROCS_ColorTanimoto>
0.082 

> <ROCS_RefTversky>
0.267 

> <ROCS_RefColorTversky>
0.091 

> <ROCS_RefTverskyCombo>
0.358 

> <ROCS_FitTversky>
1.484 

> <ROCS_FitColorTversky>
0.440 

> <ROCS_FitTverskyCombo>
1.924 

> <ROCS_ColorScore>
-6.593

> <ROCS_Overlap>
1782.387

> <ROCS_Rank>
335                 

$$$$
untitled-dbase-14429_255
  -OEChem-08212314543D

 48 49  0     0  0  0  0  0  0999 V2000
   -8.9377    5.2956  -11.3576 C   0  0  0  0  0  0  0  0  0  0  0  0
   -9.8040    6.3043  -14.7951 C   0  0  0  0  0  0  0  0  0  0  0  0
   -8.8524    4.0053  -14.7612 C   0  0  0  0  0  0  0  0  0  0  0  0
   -9.0583    6.6287  -13.4986 C   0  0  0  0  0  0  0  0  0  0  0  0
   -8.0880    4.3440  -13.4827 C   0  0  0  0  0  0  0  0  0  0  0  0
   -9.9426    4.9276  -16.8850 C   0  0  0  0  0  0  0  0  0  0  0  0
   -8.0716    4.9986  -18.3393 C   0  0  0  0  0  0  0  0  0  0  0  0
   -9.0712    5.2448  -15.6550 C   0  0  0  0  0  0  0  0  0  0  0  0
   -7.1223    5.3299  -17.1756 C   0  0  0  0  0  0  0  0  0  0  0  0
   -6.2441    4.1340  -16.7825 C   0  0  0  0  0  0  0  0  0  0  0  0
   -6.1806    6.4648  -17.6148 C   0  0  0  0  0  0  0  0  0  0  0  0
   -9.4769    4.5575   -8.6451 C   0  0  0  0  0  0  0  0  0  0  0  0
   -9.2102    2.1871   -9.4318 C   0  0  0  0  0  0  0  0  0  0  0  0
   -7.2735    3.7793   -9.5800 C   0  0  0  0  0  0  0  0  0  0  0  0
   -8.7931    3.6388   -9.6566 C   0  0  0  0  0  0  0  0  0  0  0  0
   -9.2074    4.1844  -17.9072 N   0  0  0  0  0  0  0  0  0  0  0  0
   -8.7467    5.4156  -12.7386 N   0  0  0  0  0  0  0  0  0  0  0  0
   -8.8655    6.2323  -10.5641 O   0  0  0  0  0  0  0  0  0  0  0  0
   -7.8327    5.8591  -16.0467 O   0  0  0  0  0  0  0  0  0  0  0  0
   -9.2198    4.0116  -10.9722 O   0  0  0  0  0  0  0  0  0  0  0  0
  -10.8075    5.9348  -14.5378 H   0  0  0  0  0  0  0  0  0  0  0  0
   -9.9674    7.2334  -15.3444 H   0  0  0  0  0  0  0  0  0  0  0  0
   -8.2773    3.2479  -15.3072 H   0  0  0  0  0  0  0  0  0  0  0  0
   -9.8164    3.5551  -14.4946 H   0  0  0  0  0  0  0  0  0  0  0  0
   -8.1073    7.1321  -13.7094 H   0  0  0  0  0  0  0  0  0  0  0  0
   -9.6589    7.3157  -12.8922 H   0  0  0  0  0  0  0  0  0  0  0  0
   -7.9843    3.4414  -12.8743 H   0  0  0  0  0  0  0  0  0  0  0  0
   -7.0755    4.6914  -13.7176 H   0  0  0  0  0  0  0  0  0  0  0  0
  -10.8277    4.3423  -16.5878 H   0  0  0  0  0  0  0  0  0  0  0  0
  -10.3286    5.8584  -17.3263 H   0  0  0  0  0  0  0  0  0  0  0  0
   -8.4476    5.9267  -18.7971 H   0  0  0  0  0  0  0  0  0  0  0  0
   -7.5326    4.4620  -19.1378 H   0  0  0  0  0  0  0  0  0  0  0  0
   -5.5958    4.4201  -15.9606 H   0  0  0  0  0  0  0  0  0  0  0  0
   -5.6425    3.8356  -17.6350 H   0  0  0  0  0  0  0  0  0  0  0  0
   -6.8788    3.3085  -16.4766 H   0  0  0  0  0  0  0  0  0  0  0  0
   -5.5041    6.7086  -16.8007 H   0  0  0  0  0  0  0  0  0  0  0  0
   -6.7674    7.3415  -17.8735 H   0  0  0  0  0  0  0  0  0  0  0  0
   -5.6069    6.1440  -18.4795 H   0  0  0  0  0  0  0  0  0  0  0  0
   -9.1801    5.6006   -8.8032 H   0  0  0  0  0  0  0  0  0  0  0  0
  -10.5677    4.4922   -8.7138 H   0  0  0  0  0  0  0  0  0  0  0  0
   -9.1787    4.3030   -7.6216 H   0  0  0  0  0  0  0  0  0  0  0  0
   -8.7220    1.5243  -10.1554 H   0  0  0  0  0  0  0  0  0  0  0  0
  -10.2892    2.0637   -9.5794 H   0  0  0  0  0  0  0  0  0  0  0  0
   -8.9570    1.8455   -8.4230 H   0  0  0  0  0  0  0  0  0  0  0  0
   -6.7828    3.1205  -10.3055 H   0  0  0  0  0  0  0  0  0  0  0  0
   -6.9532    4.8079   -9.7754 H   0  0  0  0  0  0  0  0  0  0  0  0
   -6.9040    3.4812   -8.5922 H   0  0  0  0  0  0  0  0  0  0  0  0
   -8.8607    3.3142  -17.5037 H   0  0  0  0  0  0  0  0  0  0  0  0
  1 17  1  0  0  0  0
  1 18  2  0  0  0  0
  1 20  1  0  0  0  0
  2  4  1  0  0  0  0
  2  8  1  0  0  0  0
  3  5  1  0  0  0  0
  3  8  1  0  0  0  0
  4 17  1  0  0  0  0
  5 17  1  0  0  0  0
  6  8  1  0  0  0  0
  6 16  1  0  0  0  0
  7  9  1  0  0  0  0
  7 16  1  0  0  0  0
  8 19  1  0  0  0  0
  9 10  1  0  0  0  0
  9 11  1  0  0  0  0
  9 19  1  0  0  0  0
 12 15  1  0  0  0  0
 13 15  1  0  0  0  0
 14 15  1  0  0  0  0
 15 20  1  0  0  0  0
  2 21  1  0  0  0  0
  2 22  1  0  0  0  0
  3 23  1  0  0  0  0
  3 24  1  0  0  0  0
  4 25  1  0  0  0  0
  4 26  1  0  0  0  0
  5 27  1  0  0  0  0
  5 28  1  0  0  0  0
  6 29  1  0  0  0  0
  6 30  1  0  0  0  0
  7 31  1  0  0  0  0
  7 32  1  0  0  0  0
 10 33  1  0  0  0  0
 10 34  1  0  0  0  0
 10 35  1  0  0  0  0
 11 36  1  0  0  0  0
 11 37  1  0  0  0  0
 11 38  1  0  0  0  0
 12 39  1  0  0  0  0
 12 40  1  0  0  0  0
 12 41  1  0  0  0  0
 13 42  1  0  0  0  0
 13 43  1  0  0  0  0
 13 44  1  0  0  0  0
 14 45  1  0  0  0  0
 14 46  1  0  0  0  0
 14 47  1  0  0  0  0
 16 48  1  0  0  0  0
M  END
> <id>
EN300-842604

> <smiles>
CC(C)(C)OC(=O)N1CCC2(CC1)CNCC(C)(C)O2

> <IUPAC Name>
tert-butyl 2,2-dimethyl-1-oxa-4,9-diazaspiro[5.5]undecane-9-carboxylate

> <CAS>
1839098-07-5

> <URL>
https://www.enaminestore.com/catalog/EN300-842604

> <ROCS_ShapeQuery>
_x0404_0B

> <ROCS_TanimotoCombo>
0.374 

> <ROCS_ShapeTanimoto>
0.334 

> <ROCS_ColorTanimoto>
0.040 

> <ROCS_RefTversky>
0.295 

> <ROCS_RefColorTversky>
0.045 

> <ROCS_RefTverskyCombo>
0.339 

> <ROCS_FitTversky>
1.666 

> <ROCS_FitColorTversky>
0.284 

> <ROCS_FitTverskyCombo>
1.950 

> <ROCS_ColorScore>
-3.235

> <ROCS_Overlap>
1965.340

> <ROCS_Rank>
336                 

$$$$
untitled-dbase-30599_113
  -OEChem-08212314543D

 40 41  0     1  0  0  0  0  0999 V2000
   -8.8493    5.9712  -12.4295 C   0  0  0  0  0  0  0  0  0  0  0  0
   -8.5045    6.0820  -11.0839 C   0  0  0  0  0  0  0  0  0  0  0  0
   -8.2775    3.6868  -10.9584 C   0  0  0  0  0  0  0  0  0  0  0  0
   -8.6212    3.5495  -12.3173 C   0  0  0  0  0  0  0  0  0  0  0  0
   -8.9218    4.7125  -13.0548 C   0  0  0  0  0  0  0  0  0  0  0  0
   -8.2248    4.9390  -10.3463 C   0  0  0  0  0  0  0  0  0  0  0  0
   -8.7841    5.4388  -15.4318 C   0  0  0  0  0  0  0  0  0  0  0  0
  -10.1748    2.3411  -14.8936 C   0  0  0  0  0  0  0  0  0  0  0  0
   -9.7959    1.6502  -13.5872 C   0  0  0  0  0  0  0  0  0  0  0  0
  -10.5138    3.8103  -14.7028 C   0  0  0  0  0  0  0  0  0  0  0  0
   -8.5154    2.1726  -12.9360 C   0  0  1  0  0  0  0  0  0  0  0  0
   -6.6511    4.7425  -17.2105 C   0  0  0  0  0  0  0  0  0  0  0  0
   -8.4238    4.5944  -18.9838 C   0  0  0  0  0  0  0  0  0  0  0  0
   -7.9829    6.7844  -17.8361 C   0  0  0  0  0  0  0  0  0  0  0  0
   -8.0094    5.2651  -17.6759 C   0  0  0  0  0  0  0  0  0  0  0  0
   -9.3450    4.6460  -14.4158 N   0  0  0  0  0  0  0  0  0  0  0  0
   -8.2067    6.5068  -15.2330 O   0  0  0  0  0  0  0  0  0  0  0  0
   -7.4361    2.1769  -13.8693 O   0  0  0  0  0  0  0  0  0  0  0  0
   -8.9903    4.9277  -16.6884 O   0  0  0  0  0  0  0  0  0  0  0  0
   -7.9082    5.0384   -9.0478 F   0  0  0  0  0  0  0  0  0  0  0  0
   -9.0021    6.8893  -12.9834 H   0  0  0  0  0  0  0  0  0  0  0  0
   -8.4365    7.0596  -10.6175 H   0  0  0  0  0  0  0  0  0  0  0  0
   -8.0625    2.8096  -10.3549 H   0  0  0  0  0  0  0  0  0  0  0  0
   -9.3470    2.2633  -15.6050 H   0  0  0  0  0  0  0  0  0  0  0  0
  -11.0226    1.8136  -15.3405 H   0  0  0  0  0  0  0  0  0  0  0  0
  -10.6307    1.7130  -12.8747 H   0  0  0  0  0  0  0  0  0  0  0  0
   -9.6704    0.5816  -13.8136 H   0  0  0  0  0  0  0  0  0  0  0  0
  -11.0324    4.2187  -15.5856 H   0  0  0  0  0  0  0  0  0  0  0  0
  -11.2498    3.9031  -13.8894 H   0  0  0  0  0  0  0  0  0  0  0  0
   -8.2609    1.4706  -12.1458 H   0  0  0  0  0  0  0  0  0  0  0  0
   -6.3501    5.2215  -16.2719 H   0  0  0  0  0  0  0  0  0  0  0  0
   -6.6666    3.6584  -17.0582 H   0  0  0  0  0  0  0  0  0  0  0  0
   -5.8699    4.9781  -17.9422 H   0  0  0  0  0  0  0  0  0  0  0  0
   -9.3979    4.9664  -19.3215 H   0  0  0  0  0  0  0  0  0  0  0  0
   -8.5364    3.5125  -18.8491 H   0  0  0  0  0  0  0  0  0  0  0  0
   -7.6912    4.7705  -19.7780 H   0  0  0  0  0  0  0  0  0  0  0  0
   -8.9571    7.1595  -18.1700 H   0  0  0  0  0  0  0  0  0  0  0  0
   -7.7233    7.2845  -16.8974 H   0  0  0  0  0  0  0  0  0  0  0  0
   -7.2577    7.0829  -18.6018 H   0  0  0  0  0  0  0  0  0  0  0  0
   -7.3939    1.2847  -14.2474 H   0  0  0  0  0  0  0  0  0  0  0  0
  1  2  1  0  0  0  0
  1  5  2  0  0  0  0
  2  6  2  0  0  0  0
  3  4  2  0  0  0  0
  3  6  1  0  0  0  0
  4  5  1  0  0  0  0
  4 11  1  0  0  0  0
  5 16  1  0  0  0  0
  6 20  1  0  0  0  0
  7 16  1  0  0  0  0
  7 17  2  0  0  0  0
  7 19  1  0  0  0  0
  8  9  1  0  0  0  0
  8 10  1  0  0  0  0
  9 11  1  0  0  0  0
 10 16  1  0  0  0  0
 11 18  1  0  0  0  0
 12 15  1  0  0  0  0
 13 15  1  0  0  0  0
 14 15  1  0  0  0  0
 15 19  1  0  0  0  0
  1 21  1  0  0  0  0
  2 22  1  0  0  0  0
  3 23  1  0  0  0  0
  8 24  1  0  0  0  0
  8 25  1  0  0  0  0
  9 26  1  0  0  0  0
  9 27  1  0  0  0  0
 10 28  1  0  0  0  0
 10 29  1  0  0  0  0
 11 30  1  0  0  0  0
 12 31  1  0  0  0  0
 12 32  1  0  0  0  0
 12 33  1  0  0  0  0
 13 34  1  0  0  0  0
 13 35  1  0  0  0  0
 13 36  1  0  0  0  0
 14 37  1  0  0  0  0
 14 38  1  0  0  0  0
 14 39  1  0  0  0  0
 18 40  1  0  0  0  0
M  END
> <id>
EN300-26666139

> <smiles>
CC(C)(C)OC(=O)N1CCCC(O)C=2C=C(F)C=CC12

> <IUPAC Name>
tert-butyl 7-fluoro-5-hydroxy-2,3,4,5-tetrahydro-1H-1-benzazepine-1-carboxylate

> <CAS>
2413874-90-3

> <URL>
https://www.enaminestore.com/catalog/EN300-26666139

> <ROCS_ShapeQuery>
_x0404_0B

> <ROCS_TanimotoCombo>
0.374 

> <ROCS_ShapeTanimoto>
0.269 

> <ROCS_ColorTanimoto>
0.106 

> <ROCS_RefTversky>
0.250 

> <ROCS_RefColorTversky>
0.108 

> <ROCS_RefTverskyCombo>
0.358 

> <ROCS_FitTversky>
1.394 

> <ROCS_FitColorTversky>
0.823 

> <ROCS_FitTverskyCombo>
2.217 

> <ROCS_ColorScore>
-7.804

> <ROCS_Overlap>
1664.633

> <ROCS_Rank>
337                 

$$$$
untitled-dbase-34818_62
  -OEChem-08212314543D

 40 42  0     0  0  0  0  0  0999 V2000
   -8.1531    5.6054  -17.8588 C   0  0  0  0  0  0  0  0  0  0  0  0
   -8.9895    4.5412  -17.5265 C   0  0  0  0  0  0  0  0  0  0  0  0
   -7.5842    6.3853  -16.8530 C   0  0  0  0  0  0  0  0  0  0  0  0
   -9.2587    4.2545  -16.1872 C   0  0  0  0  0  0  0  0  0  0  0  0
   -7.8551    6.0966  -15.5123 C   0  0  0  0  0  0  0  0  0  0  0  0
   -8.6930    5.0307  -15.1693 C   0  0  0  0  0  0  0  0  0  0  0  0
   -7.4706    6.6991  -13.1482 C   0  0  0  0  0  0  0  0  0  0  0  0
   -8.6720    5.2516   -9.3402 C   0  0  0  0  0  0  0  0  0  0  0  0
   -7.8498    4.5440  -11.6542 C   0  0  0  0  0  0  0  0  0  0  0  0
   -9.5413    5.8594  -11.7227 C   0  0  0  0  0  0  0  0  0  0  0  0
   -8.4131    5.5087  -12.7292 C   0  0  0  0  0  0  0  0  0  0  0  0
  -10.3628    3.4449   -8.2304 C   0  0  0  0  0  0  0  0  0  0  0  0
   -8.3735    1.9676   -7.8188 C   0  0  0  0  0  0  0  0  0  0  0  0
   -8.7479    3.9911   -6.3789 C   0  0  0  0  0  0  0  0  0  0  0  0
   -8.9038    3.3992   -7.7789 C   0  0  0  0  0  0  0  0  0  0  0  0
   -7.2737    6.8910  -14.5098 N   0  0  0  0  0  0  0  0  0  0  0  0
   -8.9527    4.7562  -13.8238 N   0  0  0  0  0  0  0  0  0  0  0  0
   -8.7534    5.1822  -10.7107 N   0  0  0  0  0  0  0  0  0  0  0  0
   -6.9175    7.4460  -12.3295 O   0  0  0  0  0  0  0  0  0  0  0  0
   -9.1237    6.1945   -8.6907 O   0  0  0  0  0  0  0  0  0  0  0  0
   -8.1171    4.1778   -8.6950 O   0  0  0  0  0  0  0  0  0  0  0  0
   -7.9444    5.8269  -18.9013 H   0  0  0  0  0  0  0  0  0  0  0  0
   -9.4324    3.9337  -18.3104 H   0  0  0  0  0  0  0  0  0  0  0  0
   -6.9339    7.2129  -17.1243 H   0  0  0  0  0  0  0  0  0  0  0  0
   -9.9132    3.4209  -15.9445 H   0  0  0  0  0  0  0  0  0  0  0  0
   -8.0608    3.4782  -11.7806 H   0  0  0  0  0  0  0  0  0  0  0  0
   -6.7962    4.6820  -11.3978 H   0  0  0  0  0  0  0  0  0  0  0  0
   -9.6790    6.9255  -11.5213 H   0  0  0  0  0  0  0  0  0  0  0  0
  -10.5155    5.3877  -11.8835 H   0  0  0  0  0  0  0  0  0  0  0  0
  -10.7472    4.4708   -8.2032 H   0  0  0  0  0  0  0  0  0  0  0  0
  -10.4830    3.0554   -9.2466 H   0  0  0  0  0  0  0  0  0  0  0  0
  -10.9989    2.8586   -7.5575 H   0  0  0  0  0  0  0  0  0  0  0  0
   -7.3269    1.9301   -7.4956 H   0  0  0  0  0  0  0  0  0  0  0  0
   -8.3954    1.5716   -8.8405 H   0  0  0  0  0  0  0  0  0  0  0  0
   -8.9589    1.3019   -7.1763 H   0  0  0  0  0  0  0  0  0  0  0  0
   -7.7014    3.9584   -6.0547 H   0  0  0  0  0  0  0  0  0  0  0  0
   -9.0893    5.0306   -6.3402 H   0  0  0  0  0  0  0  0  0  0  0  0
   -9.3173    3.4100   -5.6445 H   0  0  0  0  0  0  0  0  0  0  0  0
   -6.6700    7.6555  -14.7995 H   0  0  0  0  0  0  0  0  0  0  0  0
   -9.5635    3.9721  -13.6201 H   0  0  0  0  0  0  0  0  0  0  0  0
  1  2  2  0  0  0  0
  1  3  1  0  0  0  0
  2  4  1  0  0  0  0
  3  5  2  0  0  0  0
  4  6  2  0  0  0  0
  5  6  1  0  0  0  0
  5 16  1  0  0  0  0
  6 17  1  0  0  0  0
  7 11  1  0  0  0  0
  7 16  1  0  0  0  0
  7 19  2  0  0  0  0
  8 18  1  0  0  0  0
  8 20  2  0  0  0  0
  8 21  1  0  0  0  0
  9 11  1  0  0  0  0
  9 18  1  0  0  0  0
 10 11  1  0  0  0  0
 10 18  1  0  0  0  0
 11 17  1  0  0  0  0
 12 15  1  0  0  0  0
 13 15  1  0  0  0  0
 14 15  1  0  0  0  0
 15 21  1  0  0  0  0
  1 22  1  0  0  0  0
  2 23  1  0  0  0  0
  3 24  1  0  0  0  0
  4 25  1  0  0  0  0
  9 26  1  0  0  0  0
  9 27  1  0  0  0  0
 10 28  1  0  0  0  0
 10 29  1  0  0  0  0
 12 30  1  0  0  0  0
 12 31  1  0  0  0  0
 12 32  1  0  0  0  0
 13 33  1  0  0  0  0
 13 34  1  0  0  0  0
 13 35  1  0  0  0  0
 14 36  1  0  0  0  0
 14 37  1  0  0  0  0
 14 38  1  0  0  0  0
 16 39  1  0  0  0  0
 17 40  1  0  0  0  0
M  END
> <id>
EN300-1726097

> <smiles>
CC(C)(C)OC(=O)N1CC2(C1)NC=3C=CC=CC3NC2=O

> <MDLNUMBER>
MFCD31667006

> <IUPAC Name>
tert-butyl 3'-oxo-3',4'-dihydro-1'H-spiro[azetidine-3,2'-quinoxaline]-1-carboxylate

> <CAS>
2230802-82-9

> <URL>
https://www.enaminestore.com/catalog/EN300-1726097

> <ROCS_ShapeQuery>
_x0404_0B

> <ROCS_TanimotoCombo>
0.374 

> <ROCS_ShapeTanimoto>
0.319 

> <ROCS_ColorTanimoto>
0.055 

> <ROCS_RefTversky>
0.288 

> <ROCS_RefColorTversky>
0.060 

> <ROCS_RefTverskyCombo>
0.348 

> <ROCS_FitTversky>
1.524 

> <ROCS_FitColorTversky>
0.383 

> <ROCS_FitTverskyCombo>
1.907 

> <ROCS_ColorScore>
-4.359

> <ROCS_Overlap>
1919.272

> <ROCS_Rank>
338                 

$$$$
untitled-dbase-30643_42
  -OEChem-08212314543D

 40 41  0     1  0  0  0  0  0999 V2000
   -9.6313    5.5555   -8.8411 C   0  0  0  0  0  0  0  0  0  0  0  0
   -9.7238    4.3108   -8.2192 C   0  0  0  0  0  0  0  0  0  0  0  0
   -8.6542    3.2757  -10.1224 C   0  0  0  0  0  0  0  0  0  0  0  0
   -9.0613    5.6631  -10.1140 C   0  0  0  0  0  0  0  0  0  0  0  0
   -8.5618    4.5205  -10.7585 C   0  0  0  0  0  0  0  0  0  0  0  0
   -9.2378    3.1723   -8.8596 C   0  0  0  0  0  0  0  0  0  0  0  0
   -8.3457    5.6541  -14.3388 C   0  0  0  0  0  0  0  0  0  0  0  0
   -8.9309    6.9886  -10.8052 C   0  0  0  0  0  0  0  0  0  0  0  0
   -9.1923    6.8377  -12.2999 C   0  0  0  0  0  0  0  0  0  0  0  0
   -7.8888    4.6545  -12.1076 C   0  0  2  0  0  0  0  0  0  0  0  0
   -6.3781    4.8511  -11.9325 C   0  0  0  0  0  0  0  0  0  0  0  0
   -6.8550    4.9142  -16.6662 C   0  0  0  0  0  0  0  0  0  0  0  0
   -8.0035    2.6891  -16.4688 C   0  0  0  0  0  0  0  0  0  0  0  0
   -9.3592    4.7651  -16.8694 C   0  0  0  0  0  0  0  0  0  0  0  0
   -8.1146    4.1877  -16.1968 C   0  0  0  0  0  0  0  0  0  0  0  0
   -8.4566    5.7372  -12.9409 N   0  0  0  0  0  0  0  0  0  0  0  0
   -8.3366    6.6259  -15.0923 O   0  0  0  0  0  0  0  0  0  0  0  0
   -9.3383    1.9575   -8.2535 O   0  0  0  0  0  0  0  0  0  0  0  0
   -8.2397    4.3610  -14.7807 O   0  0  0  0  0  0  0  0  0  0  0  0
  -10.0081    6.4336   -8.3284 H   0  0  0  0  0  0  0  0  0  0  0  0
  -10.1832    4.2335   -7.2369 H   0  0  0  0  0  0  0  0  0  0  0  0
   -8.2781    2.3823  -10.6089 H   0  0  0  0  0  0  0  0  0  0  0  0
   -9.6522    7.6821  -10.3738 H   0  0  0  0  0  0  0  0  0  0  0  0
   -7.9291    7.3915  -10.6646 H   0  0  0  0  0  0  0  0  0  0  0  0
  -10.2835    6.7255  -12.4754 H   0  0  0  0  0  0  0  0  0  0  0  0
   -8.9091    7.7680  -12.8388 H   0  0  0  0  0  0  0  0  0  0  0  0
   -8.0476    3.7064  -12.6370 H   0  0  0  0  0  0  0  0  0  0  0  0
   -6.1927    5.7852  -11.4096 H   0  0  0  0  0  0  0  0  0  0  0  0
   -5.9014    4.8816  -12.9082 H   0  0  0  0  0  0  0  0  0  0  0  0
   -5.9700    4.0259  -11.3555 H   0  0  0  0  0  0  0  0  0  0  0  0
   -6.9308    5.9902  -16.4727 H   0  0  0  0  0  0  0  0  0  0  0  0
   -5.9592    4.5331  -16.1652 H   0  0  0  0  0  0  0  0  0  0  0  0
   -6.7200    4.8035  -17.7482 H   0  0  0  0  0  0  0  0  0  0  0  0
   -8.9052    2.1638  -16.1336 H   0  0  0  0  0  0  0  0  0  0  0  0
   -7.1668    2.2523  -15.9118 H   0  0  0  0  0  0  0  0  0  0  0  0
   -7.8571    2.4815  -17.5338 H   0  0  0  0  0  0  0  0  0  0  0  0
  -10.2629    4.2441  -16.5329 H   0  0  0  0  0  0  0  0  0  0  0  0
   -9.4754    5.8323  -16.6545 H   0  0  0  0  0  0  0  0  0  0  0  0
   -9.3121    4.6318  -17.9562 H   0  0  0  0  0  0  0  0  0  0  0  0
   -9.7681    2.0475   -7.3880 H   0  0  0  0  0  0  0  0  0  0  0  0
  1  2  1  0  0  0  0
  1  4  2  0  0  0  0
  2  6  2  0  0  0  0
  3  5  2  0  0  0  0
  3  6  1  0  0  0  0
  4  5  1  0  0  0  0
  4  8  1  0  0  0  0
  5 10  1  0  0  0  0
  6 18  1  0  0  0  0
  7 16  1  0  0  0  0
  7 17  2  0  0  0  0
  7 19  1  0  0  0  0
  8  9  1  0  0  0  0
  9 16  1  0  0  0  0
 10 11  1  0  0  0  0
 10 16  1  0  0  0  0
 12 15  1  0  0  0  0
 13 15  1  0  0  0  0
 14 15  1  0  0  0  0
 15 19  1  0  0  0  0
  1 20  1  0  0  0  0
  2 21  1  0  0  0  0
  3 22  1  0  0  0  0
  8 23  1  0  0  0  0
  8 24  1  0  0  0  0
  9 25  1  0  0  0  0
  9 26  1  0  0  0  0
 10 27  1  0  0  0  0
 11 28  1  0  0  0  0
 11 29  1  0  0  0  0
 11 30  1  0  0  0  0
 12 31  1  0  0  0  0
 12 32  1  0  0  0  0
 12 33  1  0  0  0  0
 13 34  1  0  0  0  0
 13 35  1  0  0  0  0
 13 36  1  0  0  0  0
 14 37  1  0  0  0  0
 14 38  1  0  0  0  0
 14 39  1  0  0  0  0
 18 40  1  0  0  0  0
M  END
> <id>
EN300-1709818

> <smiles>
CC1N(CCC=2C=CC(O)=CC12)C(=O)OC(C)(C)C

> <IUPAC Name>
tert-butyl 7-hydroxy-1-methyl-1,2,3,4-tetrahydroisoquinoline-2-carboxylate

> <CAS>
1785566-18-8

> <URL>
https://www.enaminestore.com/catalog/EN300-1709818

> <ROCS_ShapeQuery>
_x0404_0B

> <ROCS_TanimotoCombo>
0.374 

> <ROCS_ShapeTanimoto>
0.287 

> <ROCS_ColorTanimoto>
0.087 

> <ROCS_RefTversky>
0.261 

> <ROCS_RefColorTversky>
0.091 

> <ROCS_RefTverskyCombo>
0.352 

> <ROCS_FitTversky>
1.515 

> <ROCS_FitColorTversky>
0.691 

> <ROCS_FitTverskyCombo>
2.206 

> <ROCS_ColorScore>
-6.558

> <ROCS_Overlap>
1741.105

> <ROCS_Rank>
339                 

$$$$
untitled-dbase-45670_14
  -OEChem-08212314543D

 39 40  0     1  0  0  0  0  0999 V2000
   -8.5030    6.7504  -12.3387 C   0  0  0  0  0  0  0  0  0  0  0  0
   -8.7058    6.8995  -10.9528 C   0  0  0  0  0  0  0  0  0  0  0  0
   -8.6322    5.3979  -12.5755 C   0  0  0  0  0  0  0  0  0  0  0  0
   -8.3922    5.1922  -14.9732 C   0  0  0  0  0  0  0  0  0  0  0  0
   -8.4414    2.5999  -12.2122 C   0  0  0  0  0  0  0  0  0  0  0  0
   -8.8169    3.1404  -13.5904 C   0  0  0  0  0  0  0  0  0  0  0  0
   -9.0932    3.4226  -11.0937 C   0  0  1  0  0  0  0  0  0  0  0  0
   -8.7199    8.1324  -10.1397 C   0  0  0  0  0  0  0  0  0  0  0  0
   -6.9146    5.4348  -17.4185 C   0  0  0  0  0  0  0  0  0  0  0  0
   -8.4084    3.6120  -18.2875 C   0  0  0  0  0  0  0  0  0  0  0  0
   -9.3966    5.8140  -17.5927 C   0  0  0  0  0  0  0  0  0  0  0  0
   -8.5824    2.9500   -9.7313 C   0  0  0  0  0  0  0  0  0  0  0  0
   -8.2961    4.7893  -17.3213 C   0  0  0  0  0  0  0  0  0  0  0  0
   -8.9447    5.7402  -10.3394 N   0  0  0  0  0  0  0  0  0  0  0  0
   -8.8639    4.8420  -11.3380 N   0  0  0  0  0  0  0  0  0  0  0  0
   -8.5800    4.5906  -13.7162 N   0  0  0  0  0  0  0  0  0  0  0  0
   -8.1894    6.3860  -15.1816 O   0  0  0  0  0  0  0  0  0  0  0  0
   -8.4674    4.2766  -15.9946 O   0  0  0  0  0  0  0  0  0  0  0  0
   -8.8413    1.6435   -9.5722 F   0  0  0  0  0  0  0  0  0  0  0  0
   -7.2582    3.1451   -9.6448 F   0  0  0  0  0  0  0  0  0  0  0  0
   -9.1884    3.6362   -8.7510 F   0  0  0  0  0  0  0  0  0  0  0  0
   -8.3865    8.4109  -13.5662 I   0  0  0  0  0  0  0  0  0  0  0  0
   -8.7878    1.5630  -12.1399 H   0  0  0  0  0  0  0  0  0  0  0  0
   -7.3547    2.5818  -12.0964 H   0  0  0  0  0  0  0  0  0  0  0  0
   -8.2403    2.6422  -14.3780 H   0  0  0  0  0  0  0  0  0  0  0  0
   -9.8742    2.9227  -13.7732 H   0  0  0  0  0  0  0  0  0  0  0  0
  -10.1793    3.2534  -11.1417 H   0  0  0  0  0  0  0  0  0  0  0  0
   -9.7356    8.5561  -10.0793 H   0  0  0  0  0  0  0  0  0  0  0  0
   -8.3697    7.9521   -9.1093 H   0  0  0  0  0  0  0  0  0  0  0  0
   -8.0563    8.9094  -10.5560 H   0  0  0  0  0  0  0  0  0  0  0  0
   -6.8299    6.2803  -16.7265 H   0  0  0  0  0  0  0  0  0  0  0  0
   -6.1179    4.7187  -17.1918 H   0  0  0  0  0  0  0  0  0  0  0  0
   -6.7414    5.8386  -18.4226 H   0  0  0  0  0  0  0  0  0  0  0  0
   -9.3981    3.1459  -18.2211 H   0  0  0  0  0  0  0  0  0  0  0  0
   -7.6818    2.8307  -18.0369 H   0  0  0  0  0  0  0  0  0  0  0  0
   -8.2402    3.9224  -19.3238 H   0  0  0  0  0  0  0  0  0  0  0  0
  -10.3877    5.3513  -17.5230 H   0  0  0  0  0  0  0  0  0  0  0  0
   -9.3542    6.6483  -16.8850 H   0  0  0  0  0  0  0  0  0  0  0  0
   -9.3134    6.2152  -18.6093 H   0  0  0  0  0  0  0  0  0  0  0  0
  1  2  1  0  0  0  0
  1  3  2  0  0  0  0
  1 22  1  0  0  0  0
  2  8  1  0  0  0  0
  2 14  2  0  0  0  0
  3 15  1  0  0  0  0
  3 16  1  0  0  0  0
  4 16  1  0  0  0  0
  4 17  2  0  0  0  0
  4 18  1  0  0  0  0
  5  6  1  0  0  0  0
  5  7  1  0  0  0  0
  6 16  1  0  0  0  0
  7 12  1  0  0  0  0
  7 15  1  0  0  0  0
  9 13  1  0  0  0  0
 10 13  1  0  0  0  0
 11 13  1  0  0  0  0
 12 19  1  0  0  0  0
 12 20  1  0  0  0  0
 12 21  1  0  0  0  0
 13 18  1  0  0  0  0
 14 15  1  0  0  0  0
  5 23  1  0  0  0  0
  5 24  1  0  0  0  0
  6 25  1  0  0  0  0
  6 26  1  0  0  0  0
  7 27  1  0  0  0  0
  8 28  1  0  0  0  0
  8 29  1  0  0  0  0
  8 30  1  0  0  0  0
  9 31  1  0  0  0  0
  9 32  1  0  0  0  0
  9 33  1  0  0  0  0
 10 34  1  0  0  0  0
 10 35  1  0  0  0  0
 10 36  1  0  0  0  0
 11 37  1  0  0  0  0
 11 38  1  0  0  0  0
 11 39  1  0  0  0  0
M  END
> <id>
EN300-28304155

> <smiles>
CC1=NN2C(CCN(C(=O)OC(C)(C)C)C2=C1I)C(F)(F)F

> <IUPAC Name>
tert-butyl 3-iodo-2-methyl-7-(trifluoromethyl)-4H,5H,6H,7H-pyrazolo[1,5-a]pyrimidine-4-carboxylate

> <CAS>
2680893-07-4

> <URL>
https://www.enaminestore.com/catalog/EN300-28304155

> <ROCS_ShapeQuery>
_x0404_0B

> <ROCS_TanimotoCombo>
0.374 

> <ROCS_ShapeTanimoto>
0.322 

> <ROCS_ColorTanimoto>
0.051 

> <ROCS_RefTversky>
0.291 

> <ROCS_RefColorTversky>
0.055 

> <ROCS_RefTverskyCombo>
0.346 

> <ROCS_FitTversky>
1.500 

> <ROCS_FitColorTversky>
0.419 

> <ROCS_FitTverskyCombo>
1.919 

> <ROCS_ColorScore>
-3.979

> <ROCS_Overlap>
1943.677

> <ROCS_Rank>
340                 

$$$$
untitled-dbase-31271_49
  -OEChem-08212314543D

 39 40  0     0  0  0  0  0  0999 V2000
   -8.7546    4.6451  -11.3173 C   0  0  0  0  0  0  0  0  0  0  0  0
   -8.5610    3.2764  -11.4661 C   0  0  0  0  0  0  0  0  0  0  0  0
   -9.1467    5.0599  -10.0548 C   0  0  0  0  0  0  0  0  0  0  0  0
   -9.1408    2.9241   -9.2853 C   0  0  0  0  0  0  0  0  0  0  0  0
   -8.4039    5.6268  -14.9456 C   0  0  0  0  0  0  0  0  0  0  0  0
   -8.5365    5.6235  -12.4313 C   0  0  0  0  0  0  0  0  0  0  0  0
   -8.1586    2.7142  -12.8014 C   0  0  0  0  0  0  0  0  0  0  0  0
   -7.4294    3.7481  -13.6520 C   0  0  0  0  0  0  0  0  0  0  0  0
   -6.3655    5.2060  -16.5430 C   0  0  0  0  0  0  0  0  0  0  0  0
   -7.6584    3.3463  -17.6288 C   0  0  0  0  0  0  0  0  0  0  0  0
   -8.2666    5.7362  -18.1048 C   0  0  0  0  0  0  0  0  0  0  0  0
   -9.3786    6.5069   -9.7638 C   0  0  0  0  0  0  0  0  0  0  0  0
   -7.7337    4.7603  -17.0568 C   0  0  0  0  0  0  0  0  0  0  0  0
   -8.7575    2.3922  -10.4611 N   0  0  0  0  0  0  0  0  0  0  0  0
   -9.3495    4.2248   -9.0155 N   0  0  0  0  0  0  0  0  0  0  0  0
   -8.1855    4.9987  -13.7141 N   0  0  0  0  0  0  0  0  0  0  0  0
   -9.3427    2.0189   -8.2207 N   0  0  0  0  0  0  0  0  0  0  0  0
   -8.3881    6.8442  -15.1172 O   0  0  0  0  0  0  0  0  0  0  0  0
   -8.6473    4.7316  -15.9542 O   0  0  0  0  0  0  0  0  0  0  0  0
   -9.1665    7.3197  -10.8397 F   0  0  0  0  0  0  0  0  0  0  0  0
  -10.6503    6.7821   -9.3520 F   0  0  0  0  0  0  0  0  0  0  0  0
   -8.5620    6.9791   -8.7788 F   0  0  0  0  0  0  0  0  0  0  0  0
   -9.4574    6.1919  -12.6078 H   0  0  0  0  0  0  0  0  0  0  0  0
   -7.7442    6.3261  -12.1516 H   0  0  0  0  0  0  0  0  0  0  0  0
   -7.5098    1.8468  -12.6308 H   0  0  0  0  0  0  0  0  0  0  0  0
   -9.0483    2.3646  -13.3374 H   0  0  0  0  0  0  0  0  0  0  0  0
   -6.4242    3.9179  -13.2530 H   0  0  0  0  0  0  0  0  0  0  0  0
   -7.3163    3.3917  -14.6835 H   0  0  0  0  0  0  0  0  0  0  0  0
   -6.4153    6.2206  -16.1315 H   0  0  0  0  0  0  0  0  0  0  0  0
   -5.9879    4.5338  -15.7656 H   0  0  0  0  0  0  0  0  0  0  0  0
   -5.6334    5.2386  -17.3579 H   0  0  0  0  0  0  0  0  0  0  0  0
   -8.6379    3.0224  -17.9986 H   0  0  0  0  0  0  0  0  0  0  0  0
   -7.3675    2.6271  -16.8546 H   0  0  0  0  0  0  0  0  0  0  0  0
   -6.9384    3.2809  -18.4509 H   0  0  0  0  0  0  0  0  0  0  0  0
   -9.2480    5.4167  -18.4735 H   0  0  0  0  0  0  0  0  0  0  0  0
   -8.3623    6.7493  -17.7008 H   0  0  0  0  0  0  0  0  0  0  0  0
   -7.6045    5.7704  -18.9776 H   0  0  0  0  0  0  0  0  0  0  0  0
   -9.5817    2.3749   -7.3182 H   0  0  0  0  0  0  0  0  0  0  0  0
   -9.1512    1.0487   -8.3647 H   0  0  0  0  0  0  0  0  0  0  0  0
  1  2  1  0  0  0  0
  1  3  2  0  0  0  0
  1  6  1  0  0  0  0
  2  7  1  0  0  0  0
  2 14  2  0  0  0  0
  3 12  1  0  0  0  0
  3 15  1  0  0  0  0
  4 14  1  0  0  0  0
  4 15  2  0  0  0  0
  4 17  1  0  0  0  0
  5 16  1  0  0  0  0
  5 18  2  0  0  0  0
  5 19  1  0  0  0  0
  6 16  1  0  0  0  0
  7  8  1  0  0  0  0
  8 16  1  0  0  0  0
  9 13  1  0  0  0  0
 10 13  1  0  0  0  0
 11 13  1  0  0  0  0
 12 20  1  0  0  0  0
 12 21  1  0  0  0  0
 12 22  1  0  0  0  0
 13 19  1  0  0  0  0
  6 23  1  0  0  0  0
  6 24  1  0  0  0  0
  7 25  1  0  0  0  0
  7 26  1  0  0  0  0
  8 27  1  0  0  0  0
  8 28  1  0  0  0  0
  9 29  1  0  0  0  0
  9 30  1  0  0  0  0
  9 31  1  0  0  0  0
 10 32  1  0  0  0  0
 10 33  1  0  0  0  0
 10 34  1  0  0  0  0
 11 35  1  0  0  0  0
 11 36  1  0  0  0  0
 11 37  1  0  0  0  0
 17 38  1  0  0  0  0
 17 39  1  0  0  0  0
M  END
> <id>
EN300-26623917

> <smiles>
CC(C)(C)OC(=O)N1CCC=2N=C(N)N=C(C2C1)C(F)(F)F

> <MDLNUMBER>
MFCD32667951

> <IUPAC Name>
tert-butyl 2-amino-4-(trifluoromethyl)-5H,6H,7H,8H-pyrido[4,3-d]pyrimidine-6-carboxylate

> <CAS>
2416242-96-9

> <Purity>
95

> <URL>
https://www.enaminestore.com/catalog/EN300-26623917

> <ROCS_ShapeQuery>
_x0404_0B

> <ROCS_TanimotoCombo>
0.374 

> <ROCS_ShapeTanimoto>
0.319 

> <ROCS_ColorTanimoto>
0.055 

> <ROCS_RefTversky>
0.289 

> <ROCS_RefColorTversky>
0.060 

> <ROCS_RefTverskyCombo>
0.349 

> <ROCS_FitTversky>
1.477 

> <ROCS_FitColorTversky>
0.383 

> <ROCS_FitTverskyCombo>
1.860 

> <ROCS_ColorScore>
-4.363

> <ROCS_Overlap>
1928.329

> <ROCS_Rank>
341                 

$$$$
untitled-dbase-16651_19
  -OEChem-08212314543D

 44 47  0     1  0  0  0  0  0999 V2000
   -8.2389    3.9090  -18.3929 C   0  0  0  0  0  0  0  0  0  0  0  0
   -9.6230    4.5213  -18.1798 C   0  0  0  0  0  0  0  0  0  0  0  0
   -9.1133    6.5072  -10.1562 C   0  0  0  0  0  0  0  0  0  0  0  0
   -7.6914    5.9581  -10.2125 C   0  0  0  0  0  0  0  0  0  0  0  0
   -7.2993    4.6458  -17.4421 C   0  0  0  0  0  0  0  0  0  0  0  0
   -9.4571    5.5800  -17.0912 C   0  0  0  0  0  0  0  0  0  0  0  0
   -9.7951    6.3448  -12.5918 C   0  0  0  0  0  0  0  0  0  0  0  0
   -7.4446    5.4101  -12.6787 C   0  0  0  0  0  0  0  0  0  0  0  0
   -8.5028    4.0362  -15.2852 C   0  0  0  0  0  0  0  0  0  0  0  0
   -7.5685    6.3306  -15.5631 C   0  0  0  0  0  0  0  0  0  0  0  0
   -9.8822    5.6792  -11.1941 C   0  0  1  0  0  0  0  0  0  0  0  0
   -7.7523    4.8451  -11.2675 C   0  0  2  0  0  0  0  0  0  0  0  0
   -8.2012    5.1525  -16.3084 C   0  0  0  0  0  0  0  0  0  0  0  0
   -8.7076    5.7393  -13.5300 C   0  0  0  0  0  0  0  0  0  0  0  0
   -9.4602    3.5195  -10.1141 C   0  0  0  0  0  0  0  0  0  0  0  0
   -9.2848    4.5201  -14.1446 N   0  0  0  0  0  0  0  0  0  0  0  0
   -9.1556    4.3982  -11.2384 N   0  0  0  0  0  0  0  0  0  0  0  0
   -8.4175    6.7612  -14.5004 O   0  0  0  0  0  0  0  0  0  0  0  0
   -8.2362    2.8313  -18.2010 H   0  0  0  0  0  0  0  0  0  0  0  0
   -7.9227    4.0556  -19.4321 H   0  0  0  0  0  0  0  0  0  0  0  0
   -9.9786    4.9762  -19.1106 H   0  0  0  0  0  0  0  0  0  0  0  0
  -10.3574    3.7656  -17.8846 H   0  0  0  0  0  0  0  0  0  0  0  0
   -9.5282    6.3425   -9.1547 H   0  0  0  0  0  0  0  0  0  0  0  0
   -9.1589    7.5827  -10.3488 H   0  0  0  0  0  0  0  0  0  0  0  0
   -6.9513    6.7281  -10.4484 H   0  0  0  0  0  0  0  0  0  0  0  0
   -7.4223    5.5418   -9.2343 H   0  0  0  0  0  0  0  0  0  0  0  0
   -6.5551    3.9387  -17.0538 H   0  0  0  0  0  0  0  0  0  0  0  0
   -6.7556    5.4495  -17.9493 H   0  0  0  0  0  0  0  0  0  0  0  0
   -9.3869    6.5849  -17.5185 H   0  0  0  0  0  0  0  0  0  0  0  0
  -10.3401    5.5602  -16.4406 H   0  0  0  0  0  0  0  0  0  0  0  0
  -10.7871    6.2500  -13.0604 H   0  0  0  0  0  0  0  0  0  0  0  0
   -9.6127    7.4206  -12.4557 H   0  0  0  0  0  0  0  0  0  0  0  0
   -6.8015    6.2903  -12.5611 H   0  0  0  0  0  0  0  0  0  0  0  0
   -6.8384    4.6587  -13.2085 H   0  0  0  0  0  0  0  0  0  0  0  0
   -9.0594    3.2154  -15.7655 H   0  0  0  0  0  0  0  0  0  0  0  0
   -7.5645    3.5790  -14.9304 H   0  0  0  0  0  0  0  0  0  0  0  0
   -6.5843    6.0715  -15.1634 H   0  0  0  0  0  0  0  0  0  0  0  0
   -7.4185    7.1936  -16.2176 H   0  0  0  0  0  0  0  0  0  0  0  0
  -10.9333    5.5772  -10.9172 H   0  0  0  0  0  0  0  0  0  0  0  0
   -7.0373    4.0491  -11.0441 H   0  0  0  0  0  0  0  0  0  0  0  0
   -8.8858    2.5864  -10.2112 H   0  0  0  0  0  0  0  0  0  0  0  0
   -9.1889    4.0206   -9.1732 H   0  0  0  0  0  0  0  0  0  0  0  0
  -10.5358    3.2891  -10.1099 H   0  0  0  0  0  0  0  0  0  0  0  0
  -10.2322    4.7277  -14.4592 H   0  0  0  0  0  0  0  0  0  0  0  0
  1  2  1  0  0  0  0
  1  5  1  0  0  0  0
  2  6  1  0  0  0  0
  3  4  1  0  0  0  0
  3 11  1  0  0  0  0
  4 12  1  0  0  0  0
  5 13  1  0  0  0  0
  6 13  1  0  0  0  0
  7 11  1  0  0  0  0
  7 14  1  0  0  0  0
  8 12  1  0  0  0  0
  8 14  1  0  0  0  0
  9 13  1  0  0  0  0
  9 16  1  0  0  0  0
 10 13  1  0  0  0  0
 10 18  1  0  0  0  0
 11 17  1  0  0  0  0
 12 17  1  0  0  0  0
 14 16  1  0  0  0  0
 14 18  1  0  0  0  0
 15 17  1  0  0  0  0
  1 19  1  0  0  0  0
  1 20  1  0  0  0  0
  2 21  1  0  0  0  0
  2 22  1  0  0  0  0
  3 23  1  0  0  0  0
  3 24  1  0  0  0  0
  4 25  1  0  0  0  0
  4 26  1  0  0  0  0
  5 27  1  0  0  0  0
  5 28  1  0  0  0  0
  6 29  1  0  0  0  0
  6 30  1  0  0  0  0
  7 31  1  0  0  0  0
  7 32  1  0  0  0  0
  8 33  1  0  0  0  0
  8 34  1  0  0  0  0
  9 35  1  0  0  0  0
  9 36  1  0  0  0  0
 10 37  1  0  0  0  0
 10 38  1  0  0  0  0
 11 39  1  0  0  0  0
 12 40  1  0  0  0  0
 15 41  1  0  0  0  0
 15 42  1  0  0  0  0
 15 43  1  0  0  0  0
 16 44  1  0  0  0  0
M  END
> <id>
EN300-1278933

> <smiles>
CN1C2CCC1CC3(C2)NCC4(CCCC4)CO3

> <IUPAC Name>
8-methyldispiro[8-azabicyclo[3.2.1]octane-3,2'-[1,3]oxazinane-5',1''-cyclopentane]

> <URL>
https://www.enaminestore.com/catalog/EN300-1278933

> <ROCS_ShapeQuery>
_x0404_0B

> <ROCS_TanimotoCombo>
0.374 

> <ROCS_ShapeTanimoto>
0.278 

> <ROCS_ColorTanimoto>
0.096 

> <ROCS_RefTversky>
0.254 

> <ROCS_RefColorTversky>
0.105 

> <ROCS_RefTverskyCombo>
0.359 

> <ROCS_FitTversky>
1.507 

> <ROCS_FitColorTversky>
0.510 

> <ROCS_FitTverskyCombo>
2.017 

> <ROCS_ColorScore>
-7.636

> <ROCS_Overlap>
1693.311

> <ROCS_Rank>
342                 

$$$$
untitled-dbase-23986_0
  -OEChem-08212314543D

 29 31  0     0  0  0  0  0  0999 V2000
   -9.7046    5.6668   -8.0366 C   0  0  0  0  0  0  0  0  0  0  0  0
   -9.3919    6.3402   -9.2178 C   0  0  0  0  0  0  0  0  0  0  0  0
   -9.5807    4.2805   -7.9687 C   0  0  0  0  0  0  0  0  0  0  0  0
   -7.8467    6.2468  -13.9438 C   0  0  0  0  0  0  0  0  0  0  0  0
   -7.2855    4.1417  -14.9889 C   0  0  0  0  0  0  0  0  0  0  0  0
   -8.9528    5.6228  -10.3370 C   0  0  0  0  0  0  0  0  0  0  0  0
   -8.1617    5.5750  -12.7566 C   0  0  0  0  0  0  0  0  0  0  0  0
   -8.8286    4.2335  -10.2689 C   0  0  0  0  0  0  0  0  0  0  0  0
   -8.0376    4.1857  -12.6886 C   0  0  0  0  0  0  0  0  0  0  0  0
   -7.4095    5.5280  -15.0568 C   0  0  0  0  0  0  0  0  0  0  0  0
   -9.1434    3.5617   -9.0816 C   0  0  0  0  0  0  0  0  0  0  0  0
   -7.5984    3.4683  -13.8078 C   0  0  0  0  0  0  0  0  0  0  0  0
   -8.6239    6.3443  -11.5833 C   0  0  0  0  0  0  0  0  0  0  0  0
   -8.3664    3.4643  -11.4422 C   0  0  0  0  0  0  0  0  0  0  0  0
   -7.0741    6.2444  -16.3213 C   0  0  0  0  0  0  0  0  0  0  0  0
   -8.7327    7.5628  -11.6425 O   0  0  0  0  0  0  0  0  0  0  0  0
   -8.2579    2.2462  -11.3826 O   0  0  0  0  0  0  0  0  0  0  0  0
   -9.0459    2.2086   -8.9451 O   0  0  0  0  0  0  0  0  0  0  0  0
   -7.4548    2.1123  -13.8115 O   0  0  0  0  0  0  0  0  0  0  0  0
  -10.0447    6.2241   -7.1686 H   0  0  0  0  0  0  0  0  0  0  0  0
   -9.4967    7.4215   -9.2451 H   0  0  0  0  0  0  0  0  0  0  0  0
   -9.8269    3.7663   -7.0434 H   0  0  0  0  0  0  0  0  0  0  0  0
   -7.9381    7.3281  -14.0133 H   0  0  0  0  0  0  0  0  0  0  0  0
   -6.9445    3.5831  -15.8576 H   0  0  0  0  0  0  0  0  0  0  0  0
   -6.0152    6.5302  -16.3288 H   0  0  0  0  0  0  0  0  0  0  0  0
   -7.2712    5.6160  -17.1994 H   0  0  0  0  0  0  0  0  0  0  0  0
   -7.6805    7.1521  -16.4377 H   0  0  0  0  0  0  0  0  0  0  0  0
   -8.7350    1.8110   -9.7731 H   0  0  0  0  0  0  0  0  0  0  0  0
   -7.6976    1.7485  -12.9461 H   0  0  0  0  0  0  0  0  0  0  0  0
  1  2  1  0  0  0  0
  1  3  2  0  0  0  0
  2  6  2  0  0  0  0
  3 11  1  0  0  0  0
  4  7  2  0  0  0  0
  4 10  1  0  0  0  0
  5 10  2  0  0  0  0
  5 12  1  0  0  0  0
  6  8  1  0  0  0  0
  6 13  1  0  0  0  0
  7  9  1  0  0  0  0
  7 13  1  0  0  0  0
  8 11  2  0  0  0  0
  8 14  1  0  0  0  0
  9 12  2  0  0  0  0
  9 14  1  0  0  0  0
 10 15  1  0  0  0  0
 11 18  1  0  0  0  0
 12 19  1  0  0  0  0
 13 16  2  0  0  0  0
 14 17  2  0  0  0  0
  1 20  1  0  0  0  0
  2 21  1  0  0  0  0
  3 22  1  0  0  0  0
  4 23  1  0  0  0  0
  5 24  1  0  0  0  0
 15 25  1  0  0  0  0
 15 26  1  0  0  0  0
 15 27  1  0  0  0  0
 18 28  1  0  0  0  0
 19 29  1  0  0  0  0
M  END
> <id>
EN300-7401332

> <smiles>
CC=1C=C(O)C=2C(=O)C=3C(O)=CC=CC3C(=O)C2C1

> <MDLNUMBER>
MFCD00001208

> <IUPAC Name>
1,8-dihydroxy-3-methyl-9,10-dihydroanthracene-9,10-dione

> <CAS>
481-74-3

> <Purity>
95

> <URL>
https://www.enaminestore.com/catalog/EN300-7401332

> <MP>
187-190

> <ROCS_ShapeQuery>
_x0404_0B

> <ROCS_TanimotoCombo>
0.373 

> <ROCS_ShapeTanimoto>
0.251 

> <ROCS_ColorTanimoto>
0.123 

> <ROCS_RefTversky>
0.236 

> <ROCS_RefColorTversky>
0.128 

> <ROCS_RefTverskyCombo>
0.364 

> <ROCS_FitTversky>
1.316 

> <ROCS_FitColorTversky>
0.750 

> <ROCS_FitTverskyCombo>
2.066 

> <ROCS_ColorScore>
-9.256

> <ROCS_Overlap>
1576.376

> <ROCS_Rank>
343                 

$$$$
untitled-dbase-30426_0
  -OEChem-08212314543D

 29 32  0     0  0  0  0  0  0999 V2000
   -9.6141    8.4196   -9.6311 C   0  0  0  0  0  0  0  0  0  0  0  0
   -8.2091    5.9309  -14.1856 C   0  0  0  0  0  0  0  0  0  0  0  0
   -7.8398    3.1902  -13.2144 C   0  0  0  0  0  0  0  0  0  0  0  0
   -8.9413    1.7671   -6.0949 C   0  0  0  0  0  0  0  0  0  0  0  0
   -8.6241    1.4916   -7.4239 C   0  0  0  0  0  0  0  0  0  0  0  0
   -9.2836    3.0634   -5.7133 C   0  0  0  0  0  0  0  0  0  0  0  0
   -8.6455    2.5070   -8.3837 C   0  0  0  0  0  0  0  0  0  0  0  0
   -9.3290    7.0224   -9.6262 C   0  0  0  0  0  0  0  0  0  0  0  0
   -8.4012    5.5589  -12.8196 C   0  0  0  0  0  0  0  0  0  0  0  0
   -8.2276    4.2692  -12.3615 C   0  0  0  0  0  0  0  0  0  0  0  0
   -9.3092    4.0907   -6.6631 C   0  0  0  0  0  0  0  0  0  0  0  0
   -8.9506    6.2335  -10.7286 C   0  0  0  0  0  0  0  0  0  0  0  0
   -8.9876    3.8074   -8.0060 C   0  0  0  0  0  0  0  0  0  0  0  0
   -9.3756    6.1923   -8.5250 C   0  0  0  0  0  0  0  0  0  0  0  0
   -8.7711    4.9273  -10.2816 C   0  0  0  0  0  0  0  0  0  0  0  0
   -9.6683    5.4556   -6.2637 C   0  0  0  0  0  0  0  0  0  0  0  0
   -9.6944    6.4447   -7.1663 C   0  0  0  0  0  0  0  0  0  0  0  0
   -9.8461    9.5567   -9.6352 N   0  0  0  0  0  0  0  0  0  0  0  0
   -8.0530    6.2331  -15.2951 N   0  0  0  0  0  0  0  0  0  0  0  0
   -7.5247    2.3140  -13.9070 N   0  0  0  0  0  0  0  0  0  0  0  0
   -8.7667    6.5829  -12.0271 N   0  0  0  0  0  0  0  0  0  0  0  0
   -8.4049    3.9025  -11.0782 N   0  0  0  0  0  0  0  0  0  0  0  0
   -9.0325    4.8995   -8.9209 N   0  0  0  0  0  0  0  0  0  0  0  0
   -8.9211    0.9712   -5.3562 H   0  0  0  0  0  0  0  0  0  0  0  0
   -8.3574    0.4794   -7.7158 H   0  0  0  0  0  0  0  0  0  0  0  0
   -9.5286    3.2600   -4.6725 H   0  0  0  0  0  0  0  0  0  0  0  0
   -8.3889    2.2346   -9.3996 H   0  0  0  0  0  0  0  0  0  0  0  0
   -9.9117    5.6497   -5.2247 H   0  0  0  0  0  0  0  0  0  0  0  0
   -9.9622    7.4496   -6.8554 H   0  0  0  0  0  0  0  0  0  0  0  0
  1  8  1  0  0  0  0
  1 18  3  0  0  0  0
  2  9  1  0  0  0  0
  2 19  3  0  0  0  0
  3 10  1  0  0  0  0
  3 20  3  0  0  0  0
  4  5  2  0  0  0  0
  4  6  1  0  0  0  0
  5  7  1  0  0  0  0
  6 11  2  0  0  0  0
  7 13  2  0  0  0  0
  8 12  1  0  0  0  0
  8 14  2  0  0  0  0
  9 10  2  0  0  0  0
  9 21  1  0  0  0  0
 10 22  1  0  0  0  0
 11 13  1  0  0  0  0
 11 16  1  0  0  0  0
 12 15  1  0  0  0  0
 12 21  2  0  0  0  0
 13 23  1  0  0  0  0
 14 17  1  0  0  0  0
 14 23  1  0  0  0  0
 15 22  2  0  0  0  0
 15 23  1  0  0  0  0
 16 17  2  0  0  0  0
  4 24  1  0  0  0  0
  5 25  1  0  0  0  0
  6 26  1  0  0  0  0
  7 27  1  0  0  0  0
 16 28  1  0  0  0  0
 17 29  1  0  0  0  0
M  END
> <id>
EN300-26599443

> <smiles>
N#CC1=C2C=CC=3C=CC=CC3N2C=4N=C(C#N)C(C#N)=NC14

> <IUPAC Name>
1,13,16-triazatetracyclo[8.7.0.0^{2,7}.0^{12,17}]heptadeca-2(7),3,5,8,10,12(17),13,15-octaene-11,14,15-tricarbonitrile

> <CAS>
268205-27-2

> <URL>
https://www.enaminestore.com/catalog/EN300-26599443

> <ROCS_ShapeQuery>
_x0404_0B

> <ROCS_TanimotoCombo>
0.373 

> <ROCS_ShapeTanimoto>
0.271 

> <ROCS_ColorTanimoto>
0.102 

> <ROCS_RefTversky>
0.258 

> <ROCS_RefColorTversky>
0.108 

> <ROCS_RefTverskyCombo>
0.366 

> <ROCS_FitTversky>
1.237 

> <ROCS_FitColorTversky>
0.632 

> <ROCS_FitTverskyCombo>
1.869 

> <ROCS_ColorScore>
-7.826

> <ROCS_Overlap>
1723.718

> <ROCS_Rank>
344                 

$$$$
untitled-dbase-30540_96
  -OEChem-08212314543D

 43 45  0     1  0  0  0  0  0999 V2000
   -9.9974    8.8943  -11.7759 C   0  0  0  0  0  0  0  0  0  0  0  0
   -9.1158    8.8265  -12.8426 C   0  0  0  0  0  0  0  0  0  0  0  0
  -10.1608    7.7862  -10.9508 C   0  0  0  0  0  0  0  0  0  0  0  0
   -8.4238    7.6402  -13.1001 C   0  0  0  0  0  0  0  0  0  0  0  0
   -9.5932    5.5295  -10.2937 C   0  0  0  0  0  0  0  0  0  0  0  0
   -8.8618    4.3599  -10.4621 C   0  0  0  0  0  0  0  0  0  0  0  0
   -9.4616    6.5912  -11.1934 C   0  0  0  0  0  0  0  0  0  0  0  0
   -8.6045    6.4692  -12.3189 C   0  0  0  0  0  0  0  0  0  0  0  0
   -8.0265    4.1927  -11.5718 C   0  0  0  0  0  0  0  0  0  0  0  0
   -7.9372    5.2190  -12.5405 C   0  0  0  0  0  0  0  0  0  0  0  0
   -7.6273    5.3076  -15.0061 C   0  0  0  0  0  0  0  0  0  0  0  0
   -7.2348    2.9058  -11.6571 C   0  0  0  0  0  0  0  0  0  0  0  0
   -6.0297    4.0272  -13.5478 C   0  0  0  0  0  0  0  0  0  0  0  0
   -6.5192    2.7010  -12.9882 C   0  0  2  0  0  0  0  0  0  0  0  0
   -7.1785    5.7946  -17.7928 C   0  0  0  0  0  0  0  0  0  0  0  0
   -7.6261    3.3427  -18.1044 C   0  0  0  0  0  0  0  0  0  0  0  0
   -9.4271    4.8368  -17.1921 C   0  0  0  0  0  0  0  0  0  0  0  0
   -7.9230    4.5747  -17.2521 C   0  0  0  0  0  0  0  0  0  0  0  0
   -7.1647    4.9480  -13.7257 N   0  0  0  0  0  0  0  0  0  0  0  0
   -8.1547    6.3811  -15.2927 O   0  0  0  0  0  0  0  0  0  0  0  0
   -7.3959    2.0918  -13.9346 O   0  0  0  0  0  0  0  0  0  0  0  0
   -7.4537    4.3052  -15.9260 O   0  0  0  0  0  0  0  0  0  0  0  0
  -10.5381    9.8128  -11.5699 H   0  0  0  0  0  0  0  0  0  0  0  0
   -8.9548    9.6958  -13.4733 H   0  0  0  0  0  0  0  0  0  0  0  0
  -10.8310    7.8712  -10.0969 H   0  0  0  0  0  0  0  0  0  0  0  0
   -7.7109    7.6586  -13.9210 H   0  0  0  0  0  0  0  0  0  0  0  0
  -10.2398    5.6157   -9.4225 H   0  0  0  0  0  0  0  0  0  0  0  0
   -8.9506    3.5707   -9.7189 H   0  0  0  0  0  0  0  0  0  0  0  0
   -6.4823    2.9416  -10.8587 H   0  0  0  0  0  0  0  0  0  0  0  0
   -7.9020    2.0572  -11.4613 H   0  0  0  0  0  0  0  0  0  0  0  0
   -5.3127    4.5043  -12.8686 H   0  0  0  0  0  0  0  0  0  0  0  0
   -5.5181    3.8532  -14.4981 H   0  0  0  0  0  0  0  0  0  0  0  0
   -5.6756    2.0142  -12.8505 H   0  0  0  0  0  0  0  0  0  0  0  0
   -7.3889    6.6810  -17.1837 H   0  0  0  0  0  0  0  0  0  0  0  0
   -6.0958    5.6323  -17.8082 H   0  0  0  0  0  0  0  0  0  0  0  0
   -7.5071    6.0338  -18.8106 H   0  0  0  0  0  0  0  0  0  0  0  0
   -8.1583    2.4650  -17.7201 H   0  0  0  0  0  0  0  0  0  0  0  0
   -6.5590    3.0947  -18.0736 H   0  0  0  0  0  0  0  0  0  0  0  0
   -7.9168    3.4945  -19.1489 H   0  0  0  0  0  0  0  0  0  0  0  0
   -9.9614    3.9619  -16.8043 H   0  0  0  0  0  0  0  0  0  0  0  0
   -9.6617    5.6955  -16.5546 H   0  0  0  0  0  0  0  0  0  0  0  0
   -9.8299    5.0262  -18.1936 H   0  0  0  0  0  0  0  0  0  0  0  0
   -8.1468    2.6953  -14.0413 H   0  0  0  0  0  0  0  0  0  0  0  0
  1  2  1  0  0  0  0
  1  3  2  0  0  0  0
  2  4  2  0  0  0  0
  3  7  1  0  0  0  0
  4  8  1  0  0  0  0
  5  6  1  0  0  0  0
  5  7  2  0  0  0  0
  6  9  2  0  0  0  0
  7  8  1  0  0  0  0
  8 10  2  0  0  0  0
  9 10  1  0  0  0  0
  9 12  1  0  0  0  0
 10 19  1  0  0  0  0
 11 19  1  0  0  0  0
 11 20  2  0  0  0  0
 11 22  1  0  0  0  0
 12 14  1  0  0  0  0
 13 14  1  0  0  0  0
 13 19  1  0  0  0  0
 14 21  1  0  0  0  0
 15 18  1  0  0  0  0
 16 18  1  0  0  0  0
 17 18  1  0  0  0  0
 18 22  1  0  0  0  0
  1 23  1  0  0  0  0
  2 24  1  0  0  0  0
  3 25  1  0  0  0  0
  4 26  1  0  0  0  0
  5 27  1  0  0  0  0
  6 28  1  0  0  0  0
 12 29  1  0  0  0  0
 12 30  1  0  0  0  0
 13 31  1  0  0  0  0
 13 32  1  0  0  0  0
 14 33  1  0  0  0  0
 15 34  1  0  0  0  0
 15 35  1  0  0  0  0
 15 36  1  0  0  0  0
 16 37  1  0  0  0  0
 16 38  1  0  0  0  0
 16 39  1  0  0  0  0
 17 40  1  0  0  0  0
 17 41  1  0  0  0  0
 17 42  1  0  0  0  0
 21 43  1  0  0  0  0
M  END
> <id>
EN300-26666150

> <smiles>
CC(C)(C)OC(=O)N1CC(O)CC=2C=CC=3C=CC=CC3C12

> <IUPAC Name>
tert-butyl 3-hydroxy-1H,2H,3H,4H-benzo[h]quinoline-1-carboxylate

> <CAS>
2413900-65-7

> <URL>
https://www.enaminestore.com/catalog/EN300-26666150

> <ROCS_ShapeQuery>
_x0404_0B

> <ROCS_TanimotoCombo>
0.373 

> <ROCS_ShapeTanimoto>
0.257 

> <ROCS_ColorTanimoto>
0.117 

> <ROCS_RefTversky>
0.244 

> <ROCS_RefColorTversky>
0.120 

> <ROCS_RefTverskyCombo>
0.364 

> <ROCS_FitTversky>
1.251 

> <ROCS_FitColorTversky>
0.826 

> <ROCS_FitTverskyCombo>
2.077 

> <ROCS_ColorScore>
-8.624

> <ROCS_Overlap>
1629.885

> <ROCS_Rank>
345                 

$$$$
untitled-dbase-25636_1
  -OEChem-08212314543D

 32 34  0     0  0  0  0  0  0999 V2000
   -9.0373    5.9951  -10.7528 C   0  0  0  0  0  0  0  0  0  0  0  0
   -9.1461    6.3674  -12.0985 C   0  0  0  0  0  0  0  0  0  0  0  0
   -8.1619    3.8107  -11.3682 C   0  0  0  0  0  0  0  0  0  0  0  0
   -8.2828    4.2121  -12.6834 C   0  0  0  0  0  0  0  0  0  0  0  0
   -8.5492    4.7266  -10.3913 C   0  0  0  0  0  0  0  0  0  0  0  0
   -8.7625    5.4600  -13.0688 C   0  0  0  0  0  0  0  0  0  0  0  0
   -7.9682    3.5005  -13.9146 C   0  0  0  0  0  0  0  0  0  0  0  0
   -9.3852    3.8061  -15.9807 C   0  0  0  0  0  0  0  0  0  0  0  0
   -7.0388    4.7291  -15.9138 C   0  0  0  0  0  0  0  0  0  0  0  0
   -9.6120    4.6152  -17.2581 C   0  0  0  0  0  0  0  0  0  0  0  0
   -7.3612    5.5010  -17.1938 C   0  0  0  0  0  0  0  0  0  0  0  0
   -8.2963    4.4203  -15.0959 C   0  0  0  0  0  0  0  0  0  0  0  0
   -8.4446    4.3609   -8.9482 C   0  0  0  0  0  0  0  0  0  0  0  0
   -8.7923    5.6343  -14.4437 N   0  0  0  0  0  0  0  0  0  0  0  0
   -8.3652    4.8060  -17.9998 N   0  0  0  0  0  0  0  0  0  0  0  0
   -7.5224    2.3694  -13.9599 O   0  0  0  0  0  0  0  0  0  0  0  0
   -8.8559    5.3509   -8.1023 F   0  0  0  0  0  0  0  0  0  0  0  0
   -9.1886    3.2680   -8.6067 F   0  0  0  0  0  0  0  0  0  0  0  0
   -7.1661    4.0660   -8.5735 F   0  0  0  0  0  0  0  0  0  0  0  0
   -9.3360    6.7023   -9.9821 H   0  0  0  0  0  0  0  0  0  0  0  0
   -9.5238    7.3492  -12.3643 H   0  0  0  0  0  0  0  0  0  0  0  0
   -7.7830    2.8290  -11.1081 H   0  0  0  0  0  0  0  0  0  0  0  0
  -10.3322    3.7687  -15.4255 H   0  0  0  0  0  0  0  0  0  0  0  0
   -9.1321    2.7743  -16.2534 H   0  0  0  0  0  0  0  0  0  0  0  0
   -6.5084    3.8065  -16.1792 H   0  0  0  0  0  0  0  0  0  0  0  0
   -6.3485    5.3351  -15.3122 H   0  0  0  0  0  0  0  0  0  0  0  0
  -10.3607    4.1333  -17.8943 H   0  0  0  0  0  0  0  0  0  0  0  0
  -10.0110    5.5973  -16.9877 H   0  0  0  0  0  0  0  0  0  0  0  0
   -7.7511    6.4867  -16.9233 H   0  0  0  0  0  0  0  0  0  0  0  0
   -6.4545    5.6699  -17.7829 H   0  0  0  0  0  0  0  0  0  0  0  0
   -9.1033    6.4652  -14.9169 H   0  0  0  0  0  0  0  0  0  0  0  0
   -7.9980    3.8930  -18.2783 H   0  0  0  0  0  0  0  0  0  0  0  0
  1  2  1  0  0  0  0
  1  5  2  0  0  0  0
  2  6  2  0  0  0  0
  3  4  2  0  0  0  0
  3  5  1  0  0  0  0
  4  6  1  0  0  0  0
  4  7  1  0  0  0  0
  5 13  1  0  0  0  0
  6 14  1  0  0  0  0
  7 12  1  0  0  0  0
  7 16  2  0  0  0  0
  8 10  1  0  0  0  0
  8 12  1  0  0  0  0
  9 11  1  0  0  0  0
  9 12  1  0  0  0  0
 10 15  1  0  0  0  0
 11 15  1  0  0  0  0
 12 14  1  0  0  0  0
 13 17  1  0  0  0  0
 13 18  1  0  0  0  0
 13 19  1  0  0  0  0
  1 20  1  0  0  0  0
  2 21  1  0  0  0  0
  3 22  1  0  0  0  0
  8 23  1  0  0  0  0
  8 24  1  0  0  0  0
  9 25  1  0  0  0  0
  9 26  1  0  0  0  0
 10 27  1  0  0  0  0
 10 28  1  0  0  0  0
 11 29  1  0  0  0  0
 11 30  1  0  0  0  0
 14 31  1  0  0  0  0
 15 32  1  0  0  0  0
M  END
> <id>
EN300-28221599

> <smiles>
Cl.FC(F)(F)C=1C=CC=2NC3(CCNCC3)C(=O)C2C1

> <IUPAC Name>
5-(trifluoromethyl)-1,3-dihydrospiro[indole-2,4'-piperidin]-3-one hydrochloride

> <Purity>
95

> <URL>
https://www.enaminestore.com/catalog/EN300-28221599

> <Saltdate>
Cl

> <ROCS_ShapeQuery>
_x0404_0B

> <ROCS_TanimotoCombo>
0.373 

> <ROCS_ShapeTanimoto>
0.312 

> <ROCS_ColorTanimoto>
0.062 

> <ROCS_RefTversky>
0.280 

> <ROCS_RefColorTversky>
0.067 

> <ROCS_RefTverskyCombo>
0.346 

> <ROCS_FitTversky>
1.576 

> <ROCS_FitColorTversky>
0.460 

> <ROCS_FitTverskyCombo>
2.035 

> <ROCS_ColorScore>
-4.801

> <ROCS_Overlap>
1865.143

> <ROCS_Rank>
346                 

$$$$
untitled-dbase-52199_1
  -OEChem-08212314543D

 41 42  0     0  0  0  0  0  0999 V2000
   -8.1983    5.7037   -8.7956 C   0  0  0  0  0  0  0  0  0  0  0  0
   -8.4734    4.7741   -7.7936 C   0  0  0  0  0  0  0  0  0  0  0  0
   -9.0393    3.1471   -9.4765 C   0  0  0  0  0  0  0  0  0  0  0  0
   -8.3455    5.3723  -10.1550 C   0  0  0  0  0  0  0  0  0  0  0  0
   -8.7726    4.0739  -10.5009 C   0  0  0  0  0  0  0  0  0  0  0  0
   -8.8942    3.4951   -8.1343 C   0  0  0  0  0  0  0  0  0  0  0  0
   -8.8605    5.8763  -14.4534 C   0  0  0  0  0  0  0  0  0  0  0  0
   -8.0170    6.4237  -11.1902 C   0  0  0  0  0  0  0  0  0  0  0  0
   -8.9339    3.6252  -11.9351 C   0  0  0  0  0  0  0  0  0  0  0  0
   -9.1894    6.7565  -12.1125 C   0  0  0  0  0  0  0  0  0  0  0  0
   -9.9374    4.4604  -12.7304 C   0  0  0  0  0  0  0  0  0  0  0  0
   -7.1590    4.9978  -16.5804 C   0  0  0  0  0  0  0  0  0  0  0  0
   -9.1038    3.5820  -17.3034 C   0  0  0  0  0  0  0  0  0  0  0  0
   -9.3199    6.0842  -17.2769 C   0  0  0  0  0  0  0  0  0  0  0  0
   -8.6816    4.8711  -16.6018 C   0  0  0  0  0  0  0  0  0  0  0  0
   -9.3619    5.7368  -13.1513 N   0  0  0  0  0  0  0  0  0  0  0  0
   -9.1709    2.5497   -7.1255 N   0  0  0  0  0  0  0  0  0  0  0  0
   -8.2327    6.8555  -14.8529 O   0  0  0  0  0  0  0  0  0  0  0  0
   -9.1520    4.8011  -15.2509 O   0  0  0  0  0  0  0  0  0  0  0  0
   -7.8658    6.6978   -8.5050 H   0  0  0  0  0  0  0  0  0  0  0  0
   -8.3522    5.0606   -6.7522 H   0  0  0  0  0  0  0  0  0  0  0  0
   -9.3651    2.1398   -9.7305 H   0  0  0  0  0  0  0  0  0  0  0  0
   -7.7208    7.3515  -10.6837 H   0  0  0  0  0  0  0  0  0  0  0  0
   -7.1373    6.1072  -11.7651 H   0  0  0  0  0  0  0  0  0  0  0  0
   -7.9519    3.6149  -12.4248 H   0  0  0  0  0  0  0  0  0  0  0  0
   -9.2829    2.5846  -11.9531 H   0  0  0  0  0  0  0  0  0  0  0  0
  -10.1303    6.8484  -11.5572 H   0  0  0  0  0  0  0  0  0  0  0  0
   -9.0037    7.7275  -12.5823 H   0  0  0  0  0  0  0  0  0  0  0  0
  -10.2330    3.8957  -13.6216 H   0  0  0  0  0  0  0  0  0  0  0  0
  -10.8503    4.6592  -12.1567 H   0  0  0  0  0  0  0  0  0  0  0  0
   -6.8519    5.9218  -16.0776 H   0  0  0  0  0  0  0  0  0  0  0  0
   -6.6909    4.1510  -16.0680 H   0  0  0  0  0  0  0  0  0  0  0  0
   -6.7568    5.0515  -17.5986 H   0  0  0  0  0  0  0  0  0  0  0  0
  -10.1956    3.4870  -17.3210 H   0  0  0  0  0  0  0  0  0  0  0  0
   -8.7262    2.7040  -16.7670 H   0  0  0  0  0  0  0  0  0  0  0  0
   -8.7358    3.5436  -18.3337 H   0  0  0  0  0  0  0  0  0  0  0  0
  -10.4120    5.9935  -17.2923 H   0  0  0  0  0  0  0  0  0  0  0  0
   -9.0576    7.0154  -16.7644 H   0  0  0  0  0  0  0  0  0  0  0  0
   -9.0011    6.1606  -18.3228 H   0  0  0  0  0  0  0  0  0  0  0  0
   -9.5182    1.6479   -7.3833 H   0  0  0  0  0  0  0  0  0  0  0  0
   -9.1058    2.8261   -6.1664 H   0  0  0  0  0  0  0  0  0  0  0  0
  1  2  1  0  0  0  0
  1  4  2  0  0  0  0
  2  6  2  0  0  0  0
  3  5  2  0  0  0  0
  3  6  1  0  0  0  0
  4  5  1  0  0  0  0
  4  8  1  0  0  0  0
  5  9  1  0  0  0  0
  6 17  1  0  0  0  0
  7 16  1  0  0  0  0
  7 18  2  0  0  0  0
  7 19  1  0  0  0  0
  8 10  1  0  0  0  0
  9 11  1  0  0  0  0
 10 16  1  0  0  0  0
 11 16  1  0  0  0  0
 12 15  1  0  0  0  0
 13 15  1  0  0  0  0
 14 15  1  0  0  0  0
 15 19  1  0  0  0  0
  1 20  1  0  0  0  0
  2 21  1  0  0  0  0
  3 22  1  0  0  0  0
  8 23  1  0  0  0  0
  8 24  1  0  0  0  0
  9 25  1  0  0  0  0
  9 26  1  0  0  0  0
 10 27  1  0  0  0  0
 10 28  1  0  0  0  0
 11 29  1  0  0  0  0
 11 30  1  0  0  0  0
 12 31  1  0  0  0  0
 12 32  1  0  0  0  0
 12 33  1  0  0  0  0
 13 34  1  0  0  0  0
 13 35  1  0  0  0  0
 13 36  1  0  0  0  0
 14 37  1  0  0  0  0
 14 38  1  0  0  0  0
 14 39  1  0  0  0  0
 17 40  1  0  0  0  0
 17 41  1  0  0  0  0
M  END
> <id>
EN300-726553

> <smiles>
CC(C)(C)OC(=O)N1CCC=2C=CC(N)=CC2CC1

> <MDLNUMBER>
MFCD11046302

> <IUPAC Name>
tert-butyl 7-amino-2,3,4,5-tetrahydro-1H-3-benzazepine-3-carboxylate

> <CAS>
118454-24-3

> <Purity>
95

> <URL>
https://www.enaminestore.com/catalog/EN300-726553

> <ROCS_ShapeQuery>
_x0404_0B

> <ROCS_TanimotoCombo>
0.373 

> <ROCS_ShapeTanimoto>
0.308 

> <ROCS_ColorTanimoto>
0.065 

> <ROCS_RefTversky>
0.276 

> <ROCS_RefColorTversky>
0.069 

> <ROCS_RefTverskyCombo>
0.345 

> <ROCS_FitTversky>
1.607 

> <ROCS_FitColorTversky>
0.526 

> <ROCS_FitTverskyCombo>
2.134 

> <ROCS_ColorScore>
-4.991

> <ROCS_Overlap>
1838.975

> <ROCS_Rank>
347                 

$$$$
untitled-dbase-26542_106
  -OEChem-08212314543D

 37 38  0     0  0  0  0  0  0999 V2000
   -8.8840    5.4632   -7.6000 C   0  0  0  0  0  0  0  0  0  0  0  0
   -8.8928    4.4254  -10.0960 C   0  0  0  0  0  0  0  0  0  0  0  0
   -8.9435    5.7994   -9.8766 C   0  0  0  0  0  0  0  0  0  0  0  0
   -8.8090    3.6474   -8.9432 C   0  0  0  0  0  0  0  0  0  0  0  0
   -8.4446    5.6975  -14.5016 C   0  0  0  0  0  0  0  0  0  0  0  0
   -8.8633    3.7368  -11.4310 C   0  0  0  0  0  0  0  0  0  0  0  0
   -9.0201    6.8221  -10.9787 C   0  0  0  0  0  0  0  0  0  0  0  0
   -9.5407    4.4636  -12.5906 C   0  0  0  0  0  0  0  0  0  0  0  0
   -8.1516    6.5313  -12.1987 C   0  0  0  0  0  0  0  0  0  0  0  0
   -6.7506    5.2138  -16.7581 C   0  0  0  0  0  0  0  0  0  0  0  0
   -8.0988    3.1201  -17.0871 C   0  0  0  0  0  0  0  0  0  0  0  0
   -9.2153    5.3644  -17.2449 C   0  0  0  0  0  0  0  0  0  0  0  0
   -8.1147    4.5540  -16.5617 C   0  0  0  0  0  0  0  0  0  0  0  0
   -8.9542    6.3300   -8.6254 N   0  0  0  0  0  0  0  0  0  0  0  0
   -8.8058    4.1290   -7.6845 N   0  0  0  0  0  0  0  0  0  0  0  0
   -8.7302    5.5627  -13.1327 N   0  0  0  0  0  0  0  0  0  0  0  0
   -8.2613    6.7752  -15.0659 O   0  0  0  0  0  0  0  0  0  0  0  0
   -8.3953    4.4962  -15.1583 O   0  0  0  0  0  0  0  0  0  0  0  0
   -8.6918    1.9226   -8.9419 Cl  0  0  0  0  0  0  0  0  0  0  0  0
   -8.8930    5.8890   -6.6049 H   0  0  0  0  0  0  0  0  0  0  0  0
   -7.8283    3.5235  -11.7608 H   0  0  0  0  0  0  0  0  0  0  0  0
   -9.3011    2.7219  -11.3084 H   0  0  0  0  0  0  0  0  0  0  0  0
  -10.0769    6.9643  -11.2713 H   0  0  0  0  0  0  0  0  0  0  0  0
   -8.7072    7.7997  -10.5676 H   0  0  0  0  0  0  0  0  0  0  0  0
   -9.7880    3.7770  -13.4158 H   0  0  0  0  0  0  0  0  0  0  0  0
  -10.4961    4.8792  -12.2358 H   0  0  0  0  0  0  0  0  0  0  0  0
   -7.9651    7.4826  -12.7335 H   0  0  0  0  0  0  0  0  0  0  0  0
   -7.1466    6.1649  -11.9033 H   0  0  0  0  0  0  0  0  0  0  0  0
   -6.7578    6.2431  -16.3822 H   0  0  0  0  0  0  0  0  0  0  0  0
   -5.9575    4.6613  -16.2436 H   0  0  0  0  0  0  0  0  0  0  0  0
   -6.4954    5.2750  -17.8222 H   0  0  0  0  0  0  0  0  0  0  0  0
   -9.0756    2.6429  -16.9482 H   0  0  0  0  0  0  0  0  0  0  0  0
   -7.3757    2.5098  -16.5341 H   0  0  0  0  0  0  0  0  0  0  0  0
   -7.8426    3.0824  -18.1508 H   0  0  0  0  0  0  0  0  0  0  0  0
  -10.1939    4.8914  -17.1042 H   0  0  0  0  0  0  0  0  0  0  0  0
   -9.2658    6.3858  -16.8539 H   0  0  0  0  0  0  0  0  0  0  0  0
   -9.0483    5.4136  -18.3270 H   0  0  0  0  0  0  0  0  0  0  0  0
  1 14  1  0  0  0  0
  1 15  2  0  0  0  0
  2  3  1  0  0  0  0
  2  4  2  0  0  0  0
  2  6  1  0  0  0  0
  3  7  1  0  0  0  0
  3 14  2  0  0  0  0
  4 15  1  0  0  0  0
  4 19  1  0  0  0  0
  5 16  1  0  0  0  0
  5 17  2  0  0  0  0
  5 18  1  0  0  0  0
  6  8  1  0  0  0  0
  7  9  1  0  0  0  0
  8 16  1  0  0  0  0
  9 16  1  0  0  0  0
 10 13  1  0  0  0  0
 11 13  1  0  0  0  0
 12 13  1  0  0  0  0
 13 18  1  0  0  0  0
  1 20  1  0  0  0  0
  6 21  1  0  0  0  0
  6 22  1  0  0  0  0
  7 23  1  0  0  0  0
  7 24  1  0  0  0  0
  8 25  1  0  0  0  0
  8 26  1  0  0  0  0
  9 27  1  0  0  0  0
  9 28  1  0  0  0  0
 10 29  1  0  0  0  0
 10 30  1  0  0  0  0
 10 31  1  0  0  0  0
 11 32  1  0  0  0  0
 11 33  1  0  0  0  0
 11 34  1  0  0  0  0
 12 35  1  0  0  0  0
 12 36  1  0  0  0  0
 12 37  1  0  0  0  0
M  END
> <id>
EN300-3550057

> <smiles>
CC(C)(C)OC(=O)N1CCC=2N=CN=C(Cl)C2CC1

> <MDLNUMBER>
MFCD11045433

> <IUPAC Name>
tert-butyl 4-chloro-5H,6H,7H,8H,9H-pyrimido[4,5-d]azepine-7-carboxylate

> <CAS>
1057338-27-8

> <Purity>
95

> <URL>
https://www.enaminestore.com/catalog/EN300-3550057

> <ROCS_ShapeQuery>
_x0404_0B

> <ROCS_TanimotoCombo>
0.373 

> <ROCS_ShapeTanimoto>
0.308 

> <ROCS_ColorTanimoto>
0.065 

> <ROCS_RefTversky>
0.276 

> <ROCS_RefColorTversky>
0.069 

> <ROCS_RefTverskyCombo>
0.345 

> <ROCS_FitTversky>
1.606 

> <ROCS_FitColorTversky>
0.523 

> <ROCS_FitTverskyCombo>
2.129 

> <ROCS_ColorScore>
-4.965

> <ROCS_Overlap>
1840.545

> <ROCS_Rank>
348                 

$$$$
untitled-dbase-34231_71
  -OEChem-08212314543D

 51 53  0     1  0  0  0  0  0999 V2000
   -9.0845    2.7640   -7.8339 C   0  0  0  0  0  0  0  0  0  0  0  0
   -8.8338    4.6269   -8.8078 C   0  0  0  0  0  0  0  0  0  0  0  0
   -9.1707    3.7379   -9.8026 C   0  0  0  0  0  0  0  0  0  0  0  0
   -8.7971    5.4589  -15.0559 C   0  0  0  0  0  0  0  0  0  0  0  0
   -8.5707    6.0554   -9.0818 C   0  0  0  0  0  0  0  0  0  0  0  0
  -11.0214    3.7744  -13.2467 C   0  0  0  0  0  0  0  0  0  0  0  0
  -10.6267    3.4590  -11.8019 C   0  0  0  0  0  0  0  0  0  0  0  0
   -8.0720    3.4246  -12.0103 C   0  0  0  0  0  0  0  0  0  0  0  0
   -8.3277    6.2521  -10.5948 C   0  0  0  0  0  0  0  0  0  0  0  0
   -9.9775    3.3793  -14.2838 C   0  0  0  0  0  0  0  0  0  0  0  0
   -7.7166    3.9824  -13.3938 C   0  0  0  0  0  0  0  0  0  0  0  0
   -9.2889    4.0531  -11.2751 C   0  0  2  0  0  0  0  0  0  0  0  0
   -7.3130    5.0489  -17.1808 C   0  0  0  0  0  0  0  0  0  0  0  0
   -9.4049    4.6209  -18.5035 C   0  0  0  0  0  0  0  0  0  0  0  0
   -8.8042    6.9670  -17.8378 C   0  0  0  0  0  0  0  0  0  0  0  0
   -9.5783    1.2364   -9.7328 C   0  0  0  0  0  0  0  0  0  0  0  0
   -8.7525    5.4942  -17.4340 C   0  0  0  0  0  0  0  0  0  0  0  0
   -8.7879    4.0234   -7.5836 N   0  0  0  0  0  0  0  0  0  0  0  0
   -9.3187    2.5386   -9.1671 N   0  0  0  0  0  0  0  0  0  0  0  0
   -9.3180    5.5394  -11.4307 N   0  0  0  0  0  0  0  0  0  0  0  0
   -8.8419    4.3007  -14.2649 N   0  0  0  0  0  0  0  0  0  0  0  0
   -8.2035    6.4899  -14.7443 O   0  0  0  0  0  0  0  0  0  0  0  0
   -9.5009    5.3265  -16.2245 O   0  0  0  0  0  0  0  0  0  0  0  0
   -9.1341    1.9731   -7.0976 H   0  0  0  0  0  0  0  0  0  0  0  0
   -9.4383    6.6465   -8.7658 H   0  0  0  0  0  0  0  0  0  0  0  0
   -7.7008    6.4046   -8.5163 H   0  0  0  0  0  0  0  0  0  0  0  0
  -11.9467    3.2265  -13.4670 H   0  0  0  0  0  0  0  0  0  0  0  0
  -11.2752    4.8368  -13.3463 H   0  0  0  0  0  0  0  0  0  0  0  0
  -11.4530    3.7886  -11.1553 H   0  0  0  0  0  0  0  0  0  0  0  0
  -10.6108    2.3662  -11.7190 H   0  0  0  0  0  0  0  0  0  0  0  0
   -8.2295    2.3413  -12.1055 H   0  0  0  0  0  0  0  0  0  0  0  0
   -7.1680    3.5215  -11.3917 H   0  0  0  0  0  0  0  0  0  0  0  0
   -8.3737    7.3215  -10.8290 H   0  0  0  0  0  0  0  0  0  0  0  0
   -7.3158    5.9233  -10.8611 H   0  0  0  0  0  0  0  0  0  0  0  0
   -9.6183    2.3554  -14.1321 H   0  0  0  0  0  0  0  0  0  0  0  0
  -10.4390    3.4033  -15.2771 H   0  0  0  0  0  0  0  0  0  0  0  0
   -7.0935    4.8751  -13.2674 H   0  0  0  0  0  0  0  0  0  0  0  0
   -7.0968    3.2521  -13.9280 H   0  0  0  0  0  0  0  0  0  0  0  0
   -6.8412    5.6733  -16.4137 H   0  0  0  0  0  0  0  0  0  0  0  0
   -7.2650    4.0042  -16.8567 H   0  0  0  0  0  0  0  0  0  0  0  0
   -6.7047    5.1588  -18.0859 H   0  0  0  0  0  0  0  0  0  0  0  0
  -10.4380    4.9369  -18.6884 H   0  0  0  0  0  0  0  0  0  0  0  0
   -9.4556    3.5760  -18.1767 H   0  0  0  0  0  0  0  0  0  0  0  0
   -8.8552    4.6621  -19.4494 H   0  0  0  0  0  0  0  0  0  0  0  0
   -9.8367    7.2866  -18.0195 H   0  0  0  0  0  0  0  0  0  0  0  0
   -8.3736    7.6123  -17.0654 H   0  0  0  0  0  0  0  0  0  0  0  0
   -8.2596    7.1336  -18.7742 H   0  0  0  0  0  0  0  0  0  0  0  0
  -10.6581    1.0675   -9.7089 H   0  0  0  0  0  0  0  0  0  0  0  0
   -9.2093    1.2062  -10.7618 H   0  0  0  0  0  0  0  0  0  0  0  0
   -9.0582    0.4761   -9.1434 H   0  0  0  0  0  0  0  0  0  0  0  0
  -10.2477    5.8799  -11.1818 H   0  0  0  0  0  0  0  0  0  0  0  0
  1 18  2  0  0  0  0
  1 19  1  0  0  0  0
  2  3  2  0  0  0  0
  2  5  1  0  0  0  0
  2 18  1  0  0  0  0
  3 12  1  0  0  0  0
  3 19  1  0  0  0  0
  4 21  1  0  0  0  0
  4 22  2  0  0  0  0
  4 23  1  0  0  0  0
  5  9  1  0  0  0  0
  6  7  1  0  0  0  0
  6 10  1  0  0  0  0
  7 12  1  0  0  0  0
  8 11  1  0  0  0  0
  8 12  1  0  0  0  0
  9 20  1  0  0  0  0
 10 21  1  0  0  0  0
 11 21  1  0  0  0  0
 12 20  1  0  0  0  0
 13 17  1  0  0  0  0
 14 17  1  0  0  0  0
 15 17  1  0  0  0  0
 16 19  1  0  0  0  0
 17 23  1  0  0  0  0
  1 24  1  0  0  0  0
  5 25  1  0  0  0  0
  5 26  1  0  0  0  0
  6 27  1  0  0  0  0
  6 28  1  0  0  0  0
  7 29  1  0  0  0  0
  7 30  1  0  0  0  0
  8 31  1  0  0  0  0
  8 32  1  0  0  0  0
  9 33  1  0  0  0  0
  9 34  1  0  0  0  0
 10 35  1  0  0  0  0
 10 36  1  0  0  0  0
 11 37  1  0  0  0  0
 11 38  1  0  0  0  0
 13 39  1  0  0  0  0
 13 40  1  0  0  0  0
 13 41  1  0  0  0  0
 14 42  1  0  0  0  0
 14 43  1  0  0  0  0
 14 44  1  0  0  0  0
 15 45  1  0  0  0  0
 15 46  1  0  0  0  0
 15 47  1  0  0  0  0
 16 48  1  0  0  0  0
 16 49  1  0  0  0  0
 16 50  1  0  0  0  0
 20 51  1  0  0  0  0
M  END
> <id>
EN300-1077089

> <smiles>
CN1C=NC=2CCNC3(CCCN(CC3)C(=O)OC(C)(C)C)C21

> <IUPAC Name>
tert-butyl 3'-methyl-3',5',6',7'-tetrahydrospiro[azepane-4,4'-imidazo[4,5-c]pyridine]-1-carboxylate

> <CAS>
2137473-07-3

> <URL>
https://www.enaminestore.com/catalog/EN300-1077089

> <ROCS_ShapeQuery>
_x0404_0B

> <ROCS_TanimotoCombo>
0.373 

> <ROCS_ShapeTanimoto>
0.324 

> <ROCS_ColorTanimoto>
0.049 

> <ROCS_RefTversky>
0.294 

> <ROCS_RefColorTversky>
0.055 

> <ROCS_RefTverskyCombo>
0.348 

> <ROCS_FitTversky>
1.470 

> <ROCS_FitColorTversky>
0.320 

> <ROCS_FitTverskyCombo>
1.790 

> <ROCS_ColorScore>
-3.951

> <ROCS_Overlap>
1959.791

> <ROCS_Rank>
349                 

$$$$
untitled-dbase-27225_27
  -OEChem-08212314543D

 46 48  0     1  0  0  0  0  0999 V2000
   -8.3516    4.0810  -17.9008 C   0  0  0  0  0  0  0  0  0  0  0  0
   -8.7566    5.4118  -17.8191 C   0  0  0  0  0  0  0  0  0  0  0  0
   -7.8104    3.4432  -16.7843 C   0  0  0  0  0  0  0  0  0  0  0  0
   -8.6273    6.1118  -16.6192 C   0  0  0  0  0  0  0  0  0  0  0  0
   -7.6840    4.1359  -15.5734 C   0  0  0  0  0  0  0  0  0  0  0  0
   -8.1045    5.4760  -15.4884 C   0  0  0  0  0  0  0  0  0  0  0  0
   -9.1992    6.8751  -12.4231 C   0  0  0  0  0  0  0  0  0  0  0  0
   -9.3390    5.6781  -11.8330 C   0  0  0  0  0  0  0  0  0  0  0  0
   -7.0824    3.4558  -14.3931 C   0  0  0  0  0  0  0  0  0  0  0  0
   -8.3707    3.1411  -10.0367 C   0  0  0  0  0  0  0  0  0  0  0  0
   -8.9894    7.0144  -13.9046 C   0  0  0  0  0  0  0  0  0  0  0  0
   -8.4136    5.0230   -8.3142 C   0  0  0  0  0  0  0  0  0  0  0  0
   -7.9076    1.4724  -11.8275 C   0  0  0  0  0  0  0  0  0  0  0  0
   -8.8483    6.4694   -8.4075 C   0  0  0  0  0  0  0  0  0  0  0  0
   -9.4992    5.3884  -10.3694 C   0  0  1  0  0  0  0  0  0  0  0  0
   -8.2989    4.6401   -9.7749 C   0  0  2  0  0  0  0  0  0  0  0  0
   -7.0718    1.2646  -13.0986 C   0  0  2  0  0  0  0  0  0  0  0  0
   -5.5689    1.2957  -12.8232 C   0  0  0  0  0  0  0  0  0  0  0  0
   -7.4858    2.1427  -14.1996 N   0  0  0  0  0  0  0  0  0  0  0  0
   -7.8232    2.8063  -11.2680 N   0  0  0  0  0  0  0  0  0  0  0  0
   -6.3029    4.0801  -13.6806 O   0  0  0  0  0  0  0  0  0  0  0  0
   -8.8884    2.3468   -9.2561 O   0  0  0  0  0  0  0  0  0  0  0  0
   -7.9388    6.1241  -14.2945 O   0  0  0  0  0  0  0  0  0  0  0  0
   -9.6635    6.5801   -9.5819 O   0  0  0  0  0  0  0  0  0  0  0  0
   -8.4584    3.5382  -18.8364 H   0  0  0  0  0  0  0  0  0  0  0  0
   -9.1823    5.9018  -18.6895 H   0  0  0  0  0  0  0  0  0  0  0  0
   -7.4810    2.4126  -16.8798 H   0  0  0  0  0  0  0  0  0  0  0  0
   -8.9588    7.1437  -16.5925 H   0  0  0  0  0  0  0  0  0  0  0  0
   -9.2961    7.7785  -11.8553 H   0  0  0  0  0  0  0  0  0  0  0  0
   -9.4078    4.7829  -12.5088 H   0  0  0  0  0  0  0  0  0  0  0  0
   -9.9232    6.7393  -14.4213 H   0  0  0  0  0  0  0  0  0  0  0  0
   -8.7318    8.0564  -14.1622 H   0  0  0  0  0  0  0  0  0  0  0  0
   -7.4811    4.8972   -7.7573 H   0  0  0  0  0  0  0  0  0  0  0  0
   -9.1884    4.4343   -7.8088 H   0  0  0  0  0  0  0  0  0  0  0  0
   -8.9700    1.2838  -12.0421 H   0  0  0  0  0  0  0  0  0  0  0  0
   -7.6125    0.7495  -11.0524 H   0  0  0  0  0  0  0  0  0  0  0  0
   -9.4166    6.7954   -7.5318 H   0  0  0  0  0  0  0  0  0  0  0  0
   -7.9877    7.1350   -8.5337 H   0  0  0  0  0  0  0  0  0  0  0  0
  -10.4201    4.7834  -10.2026 H   0  0  0  0  0  0  0  0  0  0  0  0
   -7.3503    5.0309  -10.1686 H   0  0  0  0  0  0  0  0  0  0  0  0
   -7.3032    0.2036  -13.4351 H   0  0  0  0  0  0  0  0  0  0  0  0
   -5.2743    2.2908  -12.4939 H   0  0  0  0  0  0  0  0  0  0  0  0
   -5.0220    1.0441  -13.7305 H   0  0  0  0  0  0  0  0  0  0  0  0
   -5.3210    0.5748  -12.0458 H   0  0  0  0  0  0  0  0  0  0  0  0
   -8.1904    1.7570  -14.8476 H   0  0  0  0  0  0  0  0  0  0  0  0
   -7.3447    3.5261  -11.7969 H   0  0  0  0  0  0  0  0  0  0  0  0
  1  2  2  0  0  0  0
  1  3  1  0  0  0  0
  2  4  1  0  0  0  0
  3  5  2  0  0  0  0
  4  6  2  0  0  0  0
  5  6  1  0  0  0  0
  5  9  1  0  0  0  0
  6 23  1  0  0  0  0
  7  8  2  0  0  0  0
  7 11  1  0  0  0  0
  8 15  1  0  0  0  0
  9 19  1  0  0  0  0
  9 21  2  0  0  0  0
 10 16  1  0  0  0  0
 10 20  1  0  0  0  0
 10 22  2  0  0  0  0
 11 23  1  0  0  0  0
 12 14  1  0  0  0  0
 12 16  1  6  0  0  0
 13 17  1  0  0  0  0
 13 20  1  0  0  0  0
 14 24  1  0  0  0  0
 15 16  1  0  0  0  0
 15 24  1  1  0  0  0
 17 18  1  1  0  0  0
 17 19  1  0  0  0  0
  1 25  1  0  0  0  0
  2 26  1  0  0  0  0
  3 27  1  0  0  0  0
  4 28  1  0  0  0  0
  7 29  1  0  0  0  0
  8 30  1  0  0  0  0
 11 31  1  0  0  0  0
 11 32  1  0  0  0  0
 12 33  1  0  0  0  0
 12 34  1  0  0  0  0
 13 35  1  0  0  0  0
 13 36  1  0  0  0  0
 14 37  1  0  0  0  0
 14 38  1  0  0  0  0
 15 39  1  0  0  0  0
 16 40  1  0  0  0  0
 17 41  1  0  0  0  0
 18 42  1  0  0  0  0
 18 43  1  0  0  0  0
 18 44  1  0  0  0  0
 19 45  1  0  0  0  0
 20 46  1  0  0  0  0
M  END
> <id>
EN300-6490455

> <smiles>
C[C@H]1CNC(=O)[C@@H]2CCO[C@H]2/C=C/COC=3C=CC=CC3C(=O)N1

> <MDLNUMBER>
MFCD31719993

> <IUPAC Name>
(4E,6S,10R,14S)-14-methyl-2,7-dioxa-12,15-diazatricyclo[15.4.0.0,6,10]henicosa-1(17),4,18,20-tetraene-11,16-dione

> <CAS>
2253619-47-3

> <URL>
https://www.enaminestore.com/catalog/EN300-6490455

> <ROCS_ShapeQuery>
_x0404_0B

> <ROCS_TanimotoCombo>
0.373 

> <ROCS_ShapeTanimoto>
0.297 

> <ROCS_ColorTanimoto>
0.076 

> <ROCS_RefTversky>
0.276 

> <ROCS_RefColorTversky>
0.081 

> <ROCS_RefTverskyCombo>
0.357 

> <ROCS_FitTversky>
1.349 

> <ROCS_FitColorTversky>
0.516 

> <ROCS_FitTverskyCombo>
1.865 

> <ROCS_ColorScore>
-5.873

> <ROCS_Overlap>
1843.135

> <ROCS_Rank>
350                 

$$$$
untitled-dbase-45527_71
  -OEChem-08212314543D

 45 47  0     0  0  0  0  0  0999 V2000
   -9.1378    7.2730  -12.4292 C   0  0  0  0  0  0  0  0  0  0  0  0
   -9.4150    7.0045  -11.0943 C   0  0  0  0  0  0  0  0  0  0  0  0
   -8.5016    4.7807  -11.3712 C   0  0  0  0  0  0  0  0  0  0  0  0
   -8.2179    5.0268  -12.7233 C   0  0  0  0  0  0  0  0  0  0  0  0
   -8.5537    6.2912  -13.2394 C   0  0  0  0  0  0  0  0  0  0  0  0
   -9.0981    5.7588  -10.5670 C   0  0  0  0  0  0  0  0  0  0  0  0
   -7.3579    2.7235  -13.2394 C   0  0  0  0  0  0  0  0  0  0  0  0
   -7.4934    6.2688  -16.7228 C   0  0  0  0  0  0  0  0  0  0  0  0
   -9.4333    4.9451  -15.8766 C   0  0  0  0  0  0  0  0  0  0  0  0
   -7.0893    4.6239  -14.8543 C   0  0  0  0  0  0  0  0  0  0  0  0
   -7.4485    5.3250  -17.9182 C   0  0  0  0  0  0  0  0  0  0  0  0
   -9.2841    4.0621  -17.1095 C   0  0  0  0  0  0  0  0  0  0  0  0
   -8.0977    5.6048  -15.4670 C   0  0  0  0  0  0  0  0  0  0  0  0
   -5.6972    0.7081  -12.0504 C   0  0  0  0  0  0  0  0  0  0  0  0
   -6.8979    1.2429   -9.9100 C   0  0  0  0  0  0  0  0  0  0  0  0
   -8.1793    0.3326  -11.8690 C   0  0  0  0  0  0  0  0  0  0  0  0
   -7.0034    1.2056  -11.4331 C   0  0  0  0  0  0  0  0  0  0  0  0
   -7.5724    4.0723  -13.5794 N   0  0  0  0  0  0  0  0  0  0  0  0
   -7.2672    1.7830  -14.0239 O   0  0  0  0  0  0  0  0  0  0  0  0
   -8.3471    6.6727  -14.5400 O   0  0  0  0  0  0  0  0  0  0  0  0
   -8.7463    4.8056  -18.2014 O   0  0  0  0  0  0  0  0  0  0  0  0
   -7.2388    2.5454  -11.8824 O   0  0  0  0  0  0  0  0  0  0  0  0
   -9.4600    5.3915   -8.7465 Br  0  0  0  0  0  0  0  0  0  0  0  0
   -9.3875    8.2476  -12.8414 H   0  0  0  0  0  0  0  0  0  0  0  0
   -9.8732    7.7756  -10.4811 H   0  0  0  0  0  0  0  0  0  0  0  0
   -8.2346    3.8432  -10.8968 H   0  0  0  0  0  0  0  0  0  0  0  0
   -6.4664    6.5988  -16.4974 H   0  0  0  0  0  0  0  0  0  0  0  0
   -8.0722    7.1631  -17.0009 H   0  0  0  0  0  0  0  0  0  0  0  0
  -10.2090    5.6964  -16.0807 H   0  0  0  0  0  0  0  0  0  0  0  0
   -9.7940    4.3255  -15.0408 H   0  0  0  0  0  0  0  0  0  0  0  0
   -6.8721    3.8252  -15.5694 H   0  0  0  0  0  0  0  0  0  0  0  0
   -6.1428    5.1295  -14.6261 H   0  0  0  0  0  0  0  0  0  0  0  0
   -7.0497    5.8194  -18.8122 H   0  0  0  0  0  0  0  0  0  0  0  0
   -6.7933    4.4763  -17.6957 H   0  0  0  0  0  0  0  0  0  0  0  0
   -8.5916    3.2415  -16.8951 H   0  0  0  0  0  0  0  0  0  0  0  0
  -10.2401    3.6146  -17.4063 H   0  0  0  0  0  0  0  0  0  0  0  0
   -5.7688    0.6798  -13.1436 H   0  0  0  0  0  0  0  0  0  0  0  0
   -4.8515    1.3461  -11.7737 H   0  0  0  0  0  0  0  0  0  0  0  0
   -5.4777   -0.3163  -11.7284 H   0  0  0  0  0  0  0  0  0  0  0  0
   -7.8330    1.5993   -9.4628 H   0  0  0  0  0  0  0  0  0  0  0  0
   -6.1167    1.9418   -9.5899 H   0  0  0  0  0  0  0  0  0  0  0  0
   -6.6702    0.2551   -9.4964 H   0  0  0  0  0  0  0  0  0  0  0  0
   -9.1163    0.6892  -11.4263 H   0  0  0  0  0  0  0  0  0  0  0  0
   -8.2929    0.3236  -12.9579 H   0  0  0  0  0  0  0  0  0  0  0  0
   -8.0474   -0.6993  -11.5241 H   0  0  0  0  0  0  0  0  0  0  0  0
  1  2  1  0  0  0  0
  1  5  2  0  0  0  0
  2  6  2  0  0  0  0
  3  4  2  0  0  0  0
  3  6  1  0  0  0  0
  4  5  1  0  0  0  0
  4 18  1  0  0  0  0
  5 20  1  0  0  0  0
  6 23  1  0  0  0  0
  7 18  1  0  0  0  0
  7 19  2  0  0  0  0
  7 22  1  0  0  0  0
  8 11  1  0  0  0  0
  8 13  1  0  0  0  0
  9 12  1  0  0  0  0
  9 13  1  0  0  0  0
 10 13  1  0  0  0  0
 10 18  1  0  0  0  0
 11 21  1  0  0  0  0
 12 21  1  0  0  0  0
 13 20  1  0  0  0  0
 14 17  1  0  0  0  0
 15 17  1  0  0  0  0
 16 17  1  0  0  0  0
 17 22  1  0  0  0  0
  1 24  1  0  0  0  0
  2 25  1  0  0  0  0
  3 26  1  0  0  0  0
  8 27  1  0  0  0  0
  8 28  1  0  0  0  0
  9 29  1  0  0  0  0
  9 30  1  0  0  0  0
 10 31  1  0  0  0  0
 10 32  1  0  0  0  0
 11 33  1  0  0  0  0
 11 34  1  0  0  0  0
 12 35  1  0  0  0  0
 12 36  1  0  0  0  0
 14 37  1  0  0  0  0
 14 38  1  0  0  0  0
 14 39  1  0  0  0  0
 15 40  1  0  0  0  0
 15 41  1  0  0  0  0
 15 42  1  0  0  0  0
 16 43  1  0  0  0  0
 16 44  1  0  0  0  0
 16 45  1  0  0  0  0
M  END
> <id>
EN300-28302150

> <smiles>
CC(C)(C)OC(=O)N1CC2(CCOCC2)OC=3C=CC(Br)=CC13

> <IUPAC Name>
tert-butyl 6-bromo-3,4-dihydrospiro[1,4-benzoxazine-2,4'-oxane]-4-carboxylate

> <CAS>
2680683-51-4

> <URL>
https://www.enaminestore.com/catalog/EN300-28302150

> <ROCS_ShapeQuery>
_x0404_0B

> <ROCS_TanimotoCombo>
0.373 

> <ROCS_ShapeTanimoto>
0.291 

> <ROCS_ColorTanimoto>
0.081 

> <ROCS_RefTversky>
0.271 

> <ROCS_RefColorTversky>
0.087 

> <ROCS_RefTverskyCombo>
0.358 

> <ROCS_FitTversky>
1.358 

> <ROCS_FitColorTversky>
0.553 

> <ROCS_FitTverskyCombo>
1.910 

> <ROCS_ColorScore>
-6.291

> <ROCS_Overlap>
1806.124

> <ROCS_Rank>
351                 

$$$$
untitled-dbase-8425_6
  -OEChem-08212314543D

 44 46  0     0  0  0  0  0  0999 V2000
   -8.3767    3.6221   -9.1481 C   0  0  0  0  0  0  0  0  0  0  0  0
   -8.4084    4.3404  -11.1604 C   0  0  0  0  0  0  0  0  0  0  0  0
   -8.6912    5.4171  -10.3578 C   0  0  0  0  0  0  0  0  0  0  0  0
   -8.6477    6.1511  -14.5127 C   0  0  0  0  0  0  0  0  0  0  0  0
   -8.9907    6.7738  -10.8217 C   0  0  0  0  0  0  0  0  0  0  0  0
   -6.8127    4.1388  -13.0544 C   0  0  0  0  0  0  0  0  0  0  0  0
   -9.2195    3.3149  -13.3137 C   0  0  0  0  0  0  0  0  0  0  0  0
   -9.5667    6.6446  -12.2341 C   0  0  0  0  0  0  0  0  0  0  0  0
   -6.4197    2.6639  -12.9791 C   0  0  0  0  0  0  0  0  0  0  0  0
   -8.6429    1.9023  -13.2375 C   0  0  0  0  0  0  0  0  0  0  0  0
   -8.3024    4.3895  -12.6736 C   0  0  0  0  0  0  0  0  0  0  0  0
   -7.1331    6.2572  -16.9454 C   0  0  0  0  0  0  0  0  0  0  0  0
   -8.1701    4.0305  -17.4704 C   0  0  0  0  0  0  0  0  0  0  0  0
   -9.6279    6.0595  -17.2126 C   0  0  0  0  0  0  0  0  0  0  0  0
   -8.3533    5.3603  -16.7421 C   0  0  0  0  0  0  0  0  0  0  0  0
   -8.2140    3.2187  -10.3908 N   0  0  0  0  0  0  0  0  0  0  0  0
   -8.6670    4.9580   -9.0771 N   0  0  0  0  0  0  0  0  0  0  0  0
   -8.7563    5.7844  -13.1466 N   0  0  0  0  0  0  0  0  0  0  0  0
   -8.6872    7.3021  -14.9422 O   0  0  0  0  0  0  0  0  0  0  0  0
   -7.3134    1.8636  -13.7478 O   0  0  0  0  0  0  0  0  0  0  0  0
   -8.4801    5.0729  -15.3443 O   0  0  0  0  0  0  0  0  0  0  0  0
   -8.2993    3.0049   -8.2644 H   0  0  0  0  0  0  0  0  0  0  0  0
   -9.7148    7.2700  -10.1669 H   0  0  0  0  0  0  0  0  0  0  0  0
   -8.0776    7.3791  -10.8394 H   0  0  0  0  0  0  0  0  0  0  0  0
   -6.1403    4.7315  -12.4213 H   0  0  0  0  0  0  0  0  0  0  0  0
   -6.6161    4.4453  -14.0840 H   0  0  0  0  0  0  0  0  0  0  0  0
   -9.3550    3.5339  -14.3787 H   0  0  0  0  0  0  0  0  0  0  0  0
  -10.2180    3.3294  -12.8596 H   0  0  0  0  0  0  0  0  0  0  0  0
  -10.5633    6.1845  -12.1991 H   0  0  0  0  0  0  0  0  0  0  0  0
   -9.7008    7.6503  -12.6414 H   0  0  0  0  0  0  0  0  0  0  0  0
   -5.4164    2.5334  -13.3988 H   0  0  0  0  0  0  0  0  0  0  0  0
   -6.3817    2.2937  -11.9495 H   0  0  0  0  0  0  0  0  0  0  0  0
   -8.6590    1.5006  -12.2194 H   0  0  0  0  0  0  0  0  0  0  0  0
   -9.2509    1.2290  -13.8512 H   0  0  0  0  0  0  0  0  0  0  0  0
   -7.2606    7.2127  -16.4241 H   0  0  0  0  0  0  0  0  0  0  0  0
   -6.2172    5.7813  -16.5799 H   0  0  0  0  0  0  0  0  0  0  0  0
   -6.9979    6.4992  -18.0057 H   0  0  0  0  0  0  0  0  0  0  0  0
   -9.0433    3.3838  -17.3273 H   0  0  0  0  0  0  0  0  0  0  0  0
   -7.3103    3.4814  -17.0699 H   0  0  0  0  0  0  0  0  0  0  0  0
   -8.0187    4.1759  -18.5449 H   0  0  0  0  0  0  0  0  0  0  0  0
  -10.5033    5.4163  -17.0669 H   0  0  0  0  0  0  0  0  0  0  0  0
   -9.7952    6.9980  -16.6743 H   0  0  0  0  0  0  0  0  0  0  0  0
   -9.5794    6.2773  -18.2857 H   0  0  0  0  0  0  0  0  0  0  0  0
   -8.8404    5.4922   -8.2358 H   0  0  0  0  0  0  0  0  0  0  0  0
  1 16  2  0  0  0  0
  1 17  1  0  0  0  0
  2  3  2  0  0  0  0
  2 11  1  0  0  0  0
  2 16  1  0  0  0  0
  3  5  1  0  0  0  0
  3 17  1  0  0  0  0
  4 18  1  0  0  0  0
  4 19  2  0  0  0  0
  4 21  1  0  0  0  0
  5  8  1  0  0  0  0
  6  9  1  0  0  0  0
  6 11  1  0  0  0  0
  7 10  1  0  0  0  0
  7 11  1  0  0  0  0
  8 18  1  0  0  0  0
  9 20  1  0  0  0  0
 10 20  1  0  0  0  0
 11 18  1  0  0  0  0
 12 15  1  0  0  0  0
 13 15  1  0  0  0  0
 14 15  1  0  0  0  0
 15 21  1  0  0  0  0
  1 22  1  0  0  0  0
  5 23  1  0  0  0  0
  5 24  1  0  0  0  0
  6 25  1  0  0  0  0
  6 26  1  0  0  0  0
  7 27  1  0  0  0  0
  7 28  1  0  0  0  0
  8 29  1  0  0  0  0
  8 30  1  0  0  0  0
  9 31  1  0  0  0  0
  9 32  1  0  0  0  0
 10 33  1  0  0  0  0
 10 34  1  0  0  0  0
 12 35  1  0  0  0  0
 12 36  1  0  0  0  0
 12 37  1  0  0  0  0
 13 38  1  0  0  0  0
 13 39  1  0  0  0  0
 13 40  1  0  0  0  0
 14 41  1  0  0  0  0
 14 42  1  0  0  0  0
 14 43  1  0  0  0  0
 17 44  1  0  0  0  0
M  END
> <id>
EN300-262914

> <smiles>
CC(C)(C)OC(=O)N1CCC=2NC=NC2C31CCOCC3

> <MDLNUMBER>
MFCD29991358

> <IUPAC Name>
tert-butyl 1,5,6,7-tetrahydrospiro[imidazo[4,5-c]pyridine-4,4'-oxane]-5-carboxylate

> <CAS>
1955557-23-9

> <Purity>
95

> <URL>
https://www.enaminestore.com/catalog/EN300-262914

> <ROCS_ShapeQuery>
_x0404_0B

> <ROCS_TanimotoCombo>
0.372 

> <ROCS_ShapeTanimoto>
0.301 

> <ROCS_ColorTanimoto>
0.071 

> <ROCS_RefTversky>
0.275 

> <ROCS_RefColorTversky>
0.078 

> <ROCS_RefTverskyCombo>
0.353 

> <ROCS_FitTversky>
1.462 

> <ROCS_FitColorTversky>
0.455 

> <ROCS_FitTverskyCombo>
1.916 

> <ROCS_ColorScore>
-5.617

> <ROCS_Overlap>
1835.791

> <ROCS_Rank>
352                 

$$$$
untitled-dbase-30776_3
  -OEChem-08212314543D

 33 34  0     0  0  0  0  0  0999 V2000
   -7.8027    4.2537  -14.4771 C   0  0  0  0  0  0  0  0  0  0  0  0
   -7.7641    3.2959  -13.5349 C   0  0  0  0  0  0  0  0  0  0  0  0
   -8.2245    5.6317  -14.1131 C   0  0  0  0  0  0  0  0  0  0  0  0
   -8.4598    4.6761  -11.8859 C   0  0  0  0  0  0  0  0  0  0  0  0
   -8.8960    4.3463   -9.4406 C   0  0  0  0  0  0  0  0  0  0  0  0
   -8.9800    6.9532  -12.1101 C   0  0  0  0  0  0  0  0  0  0  0  0
   -9.1843    6.5370  -10.6610 C   0  0  0  0  0  0  0  0  0  0  0  0
  -10.3593    2.6651   -7.6504 C   0  0  0  0  0  0  0  0  0  0  0  0
   -9.5863    0.7631   -9.0975 C   0  0  0  0  0  0  0  0  0  0  0  0
   -7.9023    2.1656   -7.8706 C   0  0  0  0  0  0  0  0  0  0  0  0
   -9.2559    2.1612   -8.5796 C   0  0  0  0  0  0  0  0  0  0  0  0
   -8.0925    3.4789  -12.2078 N   0  0  0  0  0  0  0  0  0  0  0  0
   -8.5378    5.7484  -12.7774 N   0  0  0  0  0  0  0  0  0  0  0  0
   -8.8429    5.1186  -10.6027 N   0  0  0  0  0  0  0  0  0  0  0  0
   -8.2688    6.5241  -14.9520 O   0  0  0  0  0  0  0  0  0  0  0  0
   -8.7115    4.7832   -8.3070 O   0  0  0  0  0  0  0  0  0  0  0  0
   -7.3653    2.0252  -13.9127 O   0  0  0  0  0  0  0  0  0  0  0  0
   -9.1801    3.0341   -9.7123 O   0  0  0  0  0  0  0  0  0  0  0  0
   -7.5347    4.0606  -15.5094 H   0  0  0  0  0  0  0  0  0  0  0  0
   -9.9035    7.3022  -12.5826 H   0  0  0  0  0  0  0  0  0  0  0  0
   -8.2122    7.7250  -12.2235 H   0  0  0  0  0  0  0  0  0  0  0  0
   -8.5308    7.0881   -9.9767 H   0  0  0  0  0  0  0  0  0  0  0  0
  -10.2224    6.6655  -10.3369 H   0  0  0  0  0  0  0  0  0  0  0  0
  -10.1258    3.6685   -7.2765 H   0  0  0  0  0  0  0  0  0  0  0  0
  -11.3290    2.6999   -8.1575 H   0  0  0  0  0  0  0  0  0  0  0  0
  -10.4527    2.0207   -6.7688 H   0  0  0  0  0  0  0  0  0  0  0  0
   -8.7973    0.3976   -9.7646 H   0  0  0  0  0  0  0  0  0  0  0  0
  -10.5095    0.7738   -9.6882 H   0  0  0  0  0  0  0  0  0  0  0  0
   -9.7071    0.0469   -8.2784 H   0  0  0  0  0  0  0  0  0  0  0  0
   -7.1107    1.8042   -8.5369 H   0  0  0  0  0  0  0  0  0  0  0  0
   -7.6316    3.1684   -7.5244 H   0  0  0  0  0  0  0  0  0  0  0  0
   -7.9123    1.4902   -7.0075 H   0  0  0  0  0  0  0  0  0  0  0  0
   -7.3823    1.4418  -13.1491 H   0  0  0  0  0  0  0  0  0  0  0  0
  1  2  2  0  0  0  0
  1  3  1  0  0  0  0
  2 12  1  0  0  0  0
  2 17  1  0  0  0  0
  3 13  1  0  0  0  0
  3 15  2  0  0  0  0
  4 12  2  0  0  0  0
  4 13  1  0  0  0  0
  4 14  1  0  0  0  0
  5 14  1  0  0  0  0
  5 16  2  0  0  0  0
  5 18  1  0  0  0  0
  6  7  1  0  0  0  0
  6 13  1  0  0  0  0
  7 14  1  0  0  0  0
  8 11  1  0  0  0  0
  9 11  1  0  0  0  0
 10 11  1  0  0  0  0
 11 18  1  0  0  0  0
  1 19  1  0  0  0  0
  6 20  1  0  0  0  0
  6 21  1  0  0  0  0
  7 22  1  0  0  0  0
  7 23  1  0  0  0  0
  8 24  1  0  0  0  0
  8 25  1  0  0  0  0
  8 26  1  0  0  0  0
  9 27  1  0  0  0  0
  9 28  1  0  0  0  0
  9 29  1  0  0  0  0
 10 30  1  0  0  0  0
 10 31  1  0  0  0  0
 10 32  1  0  0  0  0
 17 33  1  0  0  0  0
M  END
> <id>
EN300-26665369

> <smiles>
CC(C)(C)OC(=O)N1CCN2C1=NC(O)=CC2=O

> <IUPAC Name>
tert-butyl 7-hydroxy-5-oxo-1H,2H,3H,5H-imidazo[1,2-a]pyrimidine-1-carboxylate

> <CAS>
2413866-84-7

> <URL>
https://www.enaminestore.com/catalog/EN300-26665369

> <ROCS_ShapeQuery>
_x0404_0B

> <ROCS_TanimotoCombo>
0.372 

> <ROCS_ShapeTanimoto>
0.254 

> <ROCS_ColorTanimoto>
0.118 

> <ROCS_RefTversky>
0.237 

> <ROCS_RefColorTversky>
0.122 

> <ROCS_RefTverskyCombo>
0.359 

> <ROCS_FitTversky>
1.392 

> <ROCS_FitColorTversky>
0.775 

> <ROCS_FitTverskyCombo>
2.167 

> <ROCS_ColorScore>
-8.842

> <ROCS_Overlap>
1579.022

> <ROCS_Rank>
353                 

$$$$
untitled-dbase-14547_7
  -OEChem-08212314543D

 49 52  0     1  0  0  0  0  0999 V2000
   -9.1897    2.4396   -7.2008 C   0  0  0  0  0  0  0  0  0  0  0  0
   -9.1803    3.7695   -6.8347 C   0  0  0  0  0  0  0  0  0  0  0  0
   -9.0372    2.4254   -8.6035 C   0  0  0  0  0  0  0  0  0  0  0  0
   -8.9344    3.7424   -8.9901 C   0  0  0  0  0  0  0  0  0  0  0  0
   -9.8273    4.6337  -14.1078 C   0  0  0  0  0  0  0  0  0  0  0  0
   -8.9745    1.3294   -9.5983 C   0  0  0  0  0  0  0  0  0  0  0  0
   -8.9616    7.0623  -11.5315 C   0  0  0  0  0  0  0  0  0  0  0  0
   -7.5873    5.2831  -10.4537 C   0  0  0  0  0  0  0  0  0  0  0  0
  -10.1125    4.9649  -10.8372 C   0  0  0  0  0  0  0  0  0  0  0  0
   -9.2425    1.8931  -11.0108 C   0  0  0  0  0  0  0  0  0  0  0  0
   -7.7782    5.6320  -12.9989 C   0  0  0  0  0  0  0  0  0  0  0  0
   -7.6414    6.2931  -11.6232 C   0  0  1  0  0  0  0  0  0  0  0  0
   -9.9298    5.9745  -11.9883 C   0  0  2  0  0  0  0  0  0  0  0  0
   -8.7853    4.2765  -10.3844 C   0  0  2  0  0  0  0  0  0  0  0  0
   -9.7510    5.9708  -16.3582 C   0  0  0  0  0  0  0  0  0  0  0  0
   -7.7377    4.6299  -17.0348 C   0  0  0  0  0  0  0  0  0  0  0  0
  -10.0161    3.5740  -17.0791 C   0  0  0  0  0  0  0  0  0  0  0  0
   -9.1124    4.5827  -16.3715 C   0  0  0  0  0  0  0  0  0  0  0  0
   -8.4731    3.1242  -11.2936 N   0  0  0  0  0  0  0  0  0  0  0  0
   -9.2130    5.3681  -13.1103 N   0  0  0  0  0  0  0  0  0  0  0  0
  -11.0375    4.4308  -14.1717 O   0  0  0  0  0  0  0  0  0  0  0  0
   -9.0310    4.5750   -7.9238 O   0  0  0  0  0  0  0  0  0  0  0  0
   -8.9239    4.1549  -15.0182 O   0  0  0  0  0  0  0  0  0  0  0  0
   -9.2976    1.5952   -6.5354 H   0  0  0  0  0  0  0  0  0  0  0  0
   -9.2670    4.2819   -5.8877 H   0  0  0  0  0  0  0  0  0  0  0  0
   -7.9784    0.8718   -9.5660 H   0  0  0  0  0  0  0  0  0  0  0  0
   -9.7088    0.5508   -9.3651 H   0  0  0  0  0  0  0  0  0  0  0  0
   -9.1719    7.4415  -10.5263 H   0  0  0  0  0  0  0  0  0  0  0  0
   -8.9688    7.9095  -12.2282 H   0  0  0  0  0  0  0  0  0  0  0  0
   -6.6316    4.7424  -10.4853 H   0  0  0  0  0  0  0  0  0  0  0  0
   -7.5470    5.8705   -9.5255 H   0  0  0  0  0  0  0  0  0  0  0  0
  -10.5535    5.5057   -9.9878 H   0  0  0  0  0  0  0  0  0  0  0  0
  -10.8678    4.2222  -11.1215 H   0  0  0  0  0  0  0  0  0  0  0  0
   -8.9737    1.1346  -11.7549 H   0  0  0  0  0  0  0  0  0  0  0  0
  -10.3137    2.0823  -11.1443 H   0  0  0  0  0  0  0  0  0  0  0  0
   -7.5119    6.3273  -13.8032 H   0  0  0  0  0  0  0  0  0  0  0  0
   -7.1910    4.7177  -13.1212 H   0  0  0  0  0  0  0  0  0  0  0  0
   -6.7773    6.9636  -11.5812 H   0  0  0  0  0  0  0  0  0  0  0  0
  -10.8963    6.3734  -12.3119 H   0  0  0  0  0  0  0  0  0  0  0  0
  -10.7380    5.9411  -15.8829 H   0  0  0  0  0  0  0  0  0  0  0  0
   -9.1290    6.6958  -15.8232 H   0  0  0  0  0  0  0  0  0  0  0  0
   -9.9102    6.3377  -17.3786 H   0  0  0  0  0  0  0  0  0  0  0  0
   -7.2758    3.6360  -17.0465 H   0  0  0  0  0  0  0  0  0  0  0  0
   -7.0562    5.2803  -16.4747 H   0  0  0  0  0  0  0  0  0  0  0  0
   -7.7984    4.9961  -18.0647 H   0  0  0  0  0  0  0  0  0  0  0  0
   -9.5583    2.5782  -17.0888 H   0  0  0  0  0  0  0  0  0  0  0  0
  -10.9949    3.4996  -16.5942 H   0  0  0  0  0  0  0  0  0  0  0  0
  -10.1675    3.8549  -18.1277 H   0  0  0  0  0  0  0  0  0  0  0  0
   -7.4819    2.8953  -11.2104 H   0  0  0  0  0  0  0  0  0  0  0  0
  1  2  2  0  0  0  0
  1  3  1  0  0  0  0
  2 22  1  0  0  0  0
  3  4  2  0  0  0  0
  3  6  1  0  0  0  0
  4 14  1  0  0  0  0
  4 22  1  0  0  0  0
  5 20  1  0  0  0  0
  5 21  2  0  0  0  0
  5 23  1  0  0  0  0
  6 10  1  0  0  0  0
  7 12  1  0  0  0  0
  7 13  1  0  0  0  0
  8 12  1  0  0  0  0
  8 14  1  0  0  0  0
  9 13  1  0  0  0  0
  9 14  1  0  0  0  0
 10 19  1  0  0  0  0
 11 12  1  0  0  0  0
 11 20  1  0  0  0  0
 13 20  1  0  0  0  0
 14 19  1  0  0  0  0
 15 18  1  0  0  0  0
 16 18  1  0  0  0  0
 17 18  1  0  0  0  0
 18 23  1  0  0  0  0
  1 24  1  0  0  0  0
  2 25  1  0  0  0  0
  6 26  1  0  0  0  0
  6 27  1  0  0  0  0
  7 28  1  0  0  0  0
  7 29  1  0  0  0  0
  8 30  1  0  0  0  0
  8 31  1  0  0  0  0
  9 32  1  0  0  0  0
  9 33  1  0  0  0  0
 10 34  1  0  0  0  0
 10 35  1  0  0  0  0
 11 36  1  0  0  0  0
 11 37  1  0  0  0  0
 12 38  1  0  0  0  0
 13 39  1  0  0  0  0
 15 40  1  0  0  0  0
 15 41  1  0  0  0  0
 15 42  1  0  0  0  0
 16 43  1  0  0  0  0
 16 44  1  0  0  0  0
 16 45  1  0  0  0  0
 17 46  1  0  0  0  0
 17 47  1  0  0  0  0
 17 48  1  0  0  0  0
 19 49  1  0  0  0  0
M  END
> <id>
EN300-1074736

> <smiles>
CC(C)(C)OC(=O)N1CC2CC1CC3(C2)NCCC=4C=COC43

> <IUPAC Name>
tert-butyl 5',6'-dihydro-4'H-6-azaspiro[bicyclo[3.2.1]octane-3,7'-furo[2,3-c]pyridine]-6-carboxylate

> <URL>
https://www.enaminestore.com/catalog/EN300-1074736

> <ROCS_ShapeQuery>
_x0404_0B

> <ROCS_TanimotoCombo>
0.372 

> <ROCS_ShapeTanimoto>
0.299 

> <ROCS_ColorTanimoto>
0.073 

> <ROCS_RefTversky>
0.277 

> <ROCS_RefColorTversky>
0.083 

> <ROCS_RefTverskyCombo>
0.360 

> <ROCS_FitTversky>
1.365 

> <ROCS_FitColorTversky>
0.375 

> <ROCS_FitTverskyCombo>
1.740 

> <ROCS_ColorScore>
-5.979

> <ROCS_Overlap>
1851.183

> <ROCS_Rank>
354                 

$$$$
untitled-dbase-25882_43
  -OEChem-08212314543D

 55 56  0     1  0  0  0  0  0999 V2000
   -9.7891    1.9928  -11.4970 C   0  0  0  0  0  0  0  0  0  0  0  0
   -8.5001    1.8606  -11.8416 C   0  0  0  0  0  0  0  0  0  0  0  0
   -7.6373    5.2277  -14.5611 C   0  0  0  0  0  0  0  0  0  0  0  0
   -8.5673    4.5668   -9.7227 C   0  0  0  0  0  0  0  0  0  0  0  0
  -10.3871    2.6645  -10.2907 C   0  0  0  0  0  0  0  0  0  0  0  0
   -8.0533    1.1958  -13.1078 C   0  0  0  0  0  0  0  0  0  0  0  0
   -8.2066    6.2531  -11.5419 C   0  0  0  0  0  0  0  0  0  0  0  0
   -8.5624    2.1838   -8.5008 C   0  0  0  0  0  0  0  0  0  0  0  0
  -10.1013    3.4505   -7.8903 C   0  0  0  0  0  0  0  0  0  0  0  0
   -8.3162    2.8046  -14.8439 C   0  0  0  0  0  0  0  0  0  0  0  0
   -7.6038    4.0028  -15.4862 C   0  0  1  0  0  0  0  0  0  0  0  0
   -6.8909    6.0150  -12.3013 C   0  0  1  0  0  0  0  0  0  0  0  0
   -9.3891    3.2629   -9.2793 C   0  0  0  0  0  0  0  0  0  0  0  0
   -5.7310    5.6583  -11.3752 C   0  0  0  0  0  0  0  0  0  0  0  0
   -8.1677    3.1223  -17.7655 C   0  0  0  0  0  0  0  0  0  0  0  0
   -7.5125    5.5251  -17.4766 C   0  0  0  0  0  0  0  0  0  0  0  0
   -9.7248    4.7170  -16.6172 C   0  0  0  0  0  0  0  0  0  0  0  0
   -8.2492    4.3403  -16.8302 C   0  0  0  0  0  0  0  0  0  0  0  0
   -8.8178    5.0470  -11.0042 N   0  0  0  0  0  0  0  0  0  0  0  0
   -7.0270    4.9959  -13.3376 N   0  0  0  0  0  0  0  0  0  0  0  0
   -8.9230    2.8532   -7.2399 N   0  0  0  0  0  0  0  0  0  0  0  0
   -8.1261    6.3042  -14.8992 O   0  0  0  0  0  0  0  0  0  0  0  0
   -7.7642    5.1321   -8.9662 O   0  0  0  0  0  0  0  0  0  0  0  0
   -7.4109    2.1577  -13.9432 O   0  0  0  0  0  0  0  0  0  0  0  0
  -10.5414    1.5353  -12.2051 H   0  0  0  0  0  0  0  0  0  0  0  0
   -7.7247    2.2275  -11.1799 H   0  0  0  0  0  0  0  0  0  0  0  0
  -11.1028    3.4679  -10.6147 H   0  0  0  0  0  0  0  0  0  0  0  0
  -11.0579    1.9162   -9.7899 H   0  0  0  0  0  0  0  0  0  0  0  0
   -7.4011    0.3315  -12.9378 H   0  0  0  0  0  0  0  0  0  0  0  0
   -8.9392    0.8406  -13.6441 H   0  0  0  0  0  0  0  0  0  0  0  0
   -8.0574    6.9746  -10.7240 H   0  0  0  0  0  0  0  0  0  0  0  0
   -8.9534    6.6913  -12.2199 H   0  0  0  0  0  0  0  0  0  0  0  0
   -8.9075    1.1479   -8.5785 H   0  0  0  0  0  0  0  0  0  0  0  0
   -7.4836    2.1969   -8.7015 H   0  0  0  0  0  0  0  0  0  0  0  0
  -10.2715    4.4931   -7.6001 H   0  0  0  0  0  0  0  0  0  0  0  0
  -11.0330    2.8969   -7.7481 H   0  0  0  0  0  0  0  0  0  0  0  0
   -9.1864    3.1420  -14.2752 H   0  0  0  0  0  0  0  0  0  0  0  0
   -8.6556    2.1094  -15.6153 H   0  0  0  0  0  0  0  0  0  0  0  0
   -6.5625    3.7409  -15.6696 H   0  0  0  0  0  0  0  0  0  0  0  0
   -6.6110    6.9630  -12.8301 H   0  0  0  0  0  0  0  0  0  0  0  0
   -5.9597    4.7401  -10.8386 H   0  0  0  0  0  0  0  0  0  0  0  0
   -5.5732    6.4623  -10.6596 H   0  0  0  0  0  0  0  0  0  0  0  0
   -4.8252    5.5159  -11.9606 H   0  0  0  0  0  0  0  0  0  0  0  0
   -8.6233    3.3340  -18.7393 H   0  0  0  0  0  0  0  0  0  0  0  0
   -8.6878    2.2593  -17.3346 H   0  0  0  0  0  0  0  0  0  0  0  0
   -7.1263    2.8300  -17.9412 H   0  0  0  0  0  0  0  0  0  0  0  0
   -7.9581    5.7859  -18.4432 H   0  0  0  0  0  0  0  0  0  0  0  0
   -7.5593    6.4139  -16.8375 H   0  0  0  0  0  0  0  0  0  0  0  0
   -6.4554    5.2935  -17.6486 H   0  0  0  0  0  0  0  0  0  0  0  0
  -10.2096    4.9635  -17.5685 H   0  0  0  0  0  0  0  0  0  0  0  0
   -9.8248    5.5860  -15.9572 H   0  0  0  0  0  0  0  0  0  0  0  0
  -10.2813    3.8886  -16.1644 H   0  0  0  0  0  0  0  0  0  0  0  0
   -9.4591    4.5300  -11.5934 H   0  0  0  0  0  0  0  0  0  0  0  0
   -6.6537    4.0652  -13.1515 H   0  0  0  0  0  0  0  0  0  0  0  0
   -9.1645    2.2004   -6.4924 H   0  0  0  0  0  0  0  0  0  0  0  0
  1  2  2  0  0  0  0
  1  5  1  0  0  0  0
  2  6  1  0  0  0  0
  3 11  1  0  0  0  0
  3 20  1  0  0  0  0
  3 22  2  0  0  0  0
  4 13  1  0  0  0  0
  4 19  1  0  0  0  0
  4 23  2  0  0  0  0
  5 13  1  0  0  0  0
  6 24  1  0  0  0  0
  7 12  1  0  0  0  0
  7 19  1  0  0  0  0
  8 13  1  0  0  0  0
  8 21  1  0  0  0  0
  9 13  1  0  0  0  0
  9 21  1  0  0  0  0
 10 11  1  0  0  0  0
 10 24  1  0  0  0  0
 11 18  1  0  0  0  0
 12 14  1  1  0  0  0
 12 20  1  0  0  0  0
 15 18  1  0  0  0  0
 16 18  1  0  0  0  0
 17 18  1  0  0  0  0
  1 25  1  0  0  0  0
  2 26  1  0  0  0  0
  5 27  1  0  0  0  0
  5 28  1  0  0  0  0
  6 29  1  0  0  0  0
  6 30  1  0  0  0  0
  7 31  1  0  0  0  0
  7 32  1  0  0  0  0
  8 33  1  0  0  0  0
  8 34  1  0  0  0  0
  9 35  1  0  0  0  0
  9 36  1  0  0  0  0
 10 37  1  0  0  0  0
 10 38  1  0  0  0  0
 11 39  1  0  0  0  0
 12 40  1  0  0  0  0
 14 41  1  0  0  0  0
 14 42  1  0  0  0  0
 14 43  1  0  0  0  0
 15 44  1  0  0  0  0
 15 45  1  0  0  0  0
 15 46  1  0  0  0  0
 16 47  1  0  0  0  0
 16 48  1  0  0  0  0
 16 49  1  0  0  0  0
 17 50  1  0  0  0  0
 17 51  1  0  0  0  0
 17 52  1  0  0  0  0
 19 53  1  0  0  0  0
 20 54  1  0  0  0  0
 21 55  1  0  0  0  0
M  END
> <id>
EN300-6735317

> <smiles>
C[C@@H]1CNC(=O)C2(CNC2)C/C=C/COCC(C(=O)N1)C(C)(C)C.OC(=O)C(F)(F)F

> <MDLNUMBER>
MFCD31746015

> <IUPAC Name>
(8R,15E)-11-tert-butyl-8-methyl-13-oxa-2,6,9-triazaspiro[3.13]heptadec-15-ene-5,10-dione; trifluoroacetic acid

> <CAS>
2287255-29-0

> <URL>
https://www.enaminestore.com/catalog/EN300-6735317

> <Saltdate>
OC(=O)C(F)(F)F

> <ROCS_ShapeQuery>
_x0404_0B

> <ROCS_TanimotoCombo>
0.372 

> <ROCS_ShapeTanimoto>
0.277 

> <ROCS_ColorTanimoto>
0.095 

> <ROCS_RefTversky>
0.260 

> <ROCS_RefColorTversky>
0.101 

> <ROCS_RefTverskyCombo>
0.361 

> <ROCS_FitTversky>
1.314 

> <ROCS_FitColorTversky>
0.594 

> <ROCS_FitTverskyCombo>
1.909 

> <ROCS_ColorScore>
-7.328

> <ROCS_Overlap>
1734.931

> <ROCS_Rank>
355                 

$$$$
untitled-dbase-30440_738
  -OEChem-08212314543D

 40 41  0     0  0  0  0  0  0999 V2000
   -8.5329    5.6886  -14.3781 C   0  0  0  0  0  0  0  0  0  0  0  0
   -8.6122    5.9796  -10.6892 C   0  0  0  0  0  0  0  0  0  0  0  0
   -9.1013    3.5410  -11.3372 C   0  0  0  0  0  0  0  0  0  0  0  0
  -10.0074    4.4551   -9.1009 C   0  0  0  0  0  0  0  0  0  0  0  0
   -7.8918    4.0935   -9.0956 C   0  0  0  0  0  0  0  0  0  0  0  0
   -9.2353    6.2136  -12.0588 C   0  0  0  0  0  0  0  0  0  0  0  0
   -8.3098    3.9460  -12.5749 C   0  0  0  0  0  0  0  0  0  0  0  0
   -9.0744    3.5540   -8.2683 C   0  0  0  0  0  0  0  0  0  0  0  0
   -8.8980    4.5534  -10.1942 C   0  0  0  0  0  0  0  0  0  0  0  0
   -7.1012    5.5648  -16.8519 C   0  0  0  0  0  0  0  0  0  0  0  0
   -8.6593    3.6867  -17.4471 C   0  0  0  0  0  0  0  0  0  0  0  0
   -9.5757    5.9880  -17.0320 C   0  0  0  0  0  0  0  0  0  0  0  0
   -8.4967    4.9770  -16.6467 C   0  0  0  0  0  0  0  0  0  0  0  0
   -8.6916    5.2820  -13.0499 N   0  0  0  0  0  0  0  0  0  0  0  0
   -8.3039    6.8456  -14.7255 O   0  0  0  0  0  0  0  0  0  0  0  0
   -9.3122    2.1365   -8.3607 O   0  0  0  0  0  0  0  0  0  0  0  0
   -8.6535    4.6483  -15.2617 O   0  0  0  0  0  0  0  0  0  0  0  0
   -7.5314    6.1704  -10.7444 H   0  0  0  0  0  0  0  0  0  0  0  0
   -9.0205    6.7087   -9.9739 H   0  0  0  0  0  0  0  0  0  0  0  0
  -10.1711    3.4756  -11.5884 H   0  0  0  0  0  0  0  0  0  0  0  0
   -8.7959    2.5325  -11.0213 H   0  0  0  0  0  0  0  0  0  0  0  0
  -10.9263    3.9506   -9.4275 H   0  0  0  0  0  0  0  0  0  0  0  0
  -10.2911    5.3996   -8.6240 H   0  0  0  0  0  0  0  0  0  0  0  0
   -7.3120    4.8866   -8.6089 H   0  0  0  0  0  0  0  0  0  0  0  0
   -7.1890    3.3118   -9.4167 H   0  0  0  0  0  0  0  0  0  0  0  0
  -10.3236    6.1301  -11.9851 H   0  0  0  0  0  0  0  0  0  0  0  0
   -9.0121    7.2249  -12.4197 H   0  0  0  0  0  0  0  0  0  0  0  0
   -7.2340    3.9835  -12.3538 H   0  0  0  0  0  0  0  0  0  0  0  0
   -8.4505    3.2012  -13.3681 H   0  0  0  0  0  0  0  0  0  0  0  0
   -9.0259    3.8583   -7.2120 H   0  0  0  0  0  0  0  0  0  0  0  0
   -6.9805    6.4912  -16.2790 H   0  0  0  0  0  0  0  0  0  0  0  0
   -6.3188    4.8625  -16.5464 H   0  0  0  0  0  0  0  0  0  0  0  0
   -6.9386    5.8282  -17.9033 H   0  0  0  0  0  0  0  0  0  0  0  0
   -9.6591    3.2615  -17.3028 H   0  0  0  0  0  0  0  0  0  0  0  0
   -7.9481    2.9248  -17.1082 H   0  0  0  0  0  0  0  0  0  0  0  0
   -8.5047    3.8533  -18.5181 H   0  0  0  0  0  0  0  0  0  0  0  0
  -10.5768    5.5666  -16.8849 H   0  0  0  0  0  0  0  0  0  0  0  0
   -9.4972    6.9065  -16.4414 H   0  0  0  0  0  0  0  0  0  0  0  0
   -9.5034    6.2495  -18.0939 H   0  0  0  0  0  0  0  0  0  0  0  0
   -9.1964    1.9096   -9.2929 H   0  0  0  0  0  0  0  0  0  0  0  0
  1 14  1  0  0  0  0
  1 15  2  0  0  0  0
  1 17  1  0  0  0  0
  2  6  1  0  0  0  0
  2  9  1  0  0  0  0
  3  7  1  0  0  0  0
  3  9  1  0  0  0  0
  4  8  1  0  0  0  0
  4  9  1  0  0  0  0
  5  8  1  0  0  0  0
  5  9  1  0  0  0  0
  6 14  1  0  0  0  0
  7 14  1  0  0  0  0
  8 16  1  0  0  0  0
 10 13  1  0  0  0  0
 11 13  1  0  0  0  0
 12 13  1  0  0  0  0
 13 17  1  0  0  0  0
  2 18  1  0  0  0  0
  2 19  1  0  0  0  0
  3 20  1  0  0  0  0
  3 21  1  0  0  0  0
  4 22  1  0  0  0  0
  4 23  1  0  0  0  0
  5 24  1  0  0  0  0
  5 25  1  0  0  0  0
  6 26  1  0  0  0  0
  6 27  1  0  0  0  0
  7 28  1  0  0  0  0
  7 29  1  0  0  0  0
  8 30  1  0  0  0  0
 10 31  1  0  0  0  0
 10 32  1  0  0  0  0
 10 33  1  0  0  0  0
 11 34  1  0  0  0  0
 11 35  1  0  0  0  0
 11 36  1  0  0  0  0
 12 37  1  0  0  0  0
 12 38  1  0  0  0  0
 12 39  1  0  0  0  0
 16 40  1  0  0  0  0
M  END
> <id>
EN300-153673

> <smiles>
CC(C)(C)OC(=O)N1CCC2(CC(O)C2)CC1

> <MDLNUMBER>
MFCD14584466

> <IUPAC Name>
tert-butyl 2-hydroxy-7-azaspiro[3.5]nonane-7-carboxylate

> <CAS>
240401-28-9

> <Purity>
95

> <URL>
https://www.enaminestore.com/catalog/EN300-153673

> <ROCS_ShapeQuery>
_x0404_0B

> <ROCS_TanimotoCombo>
0.372 

> <ROCS_ShapeTanimoto>
0.291 

> <ROCS_ColorTanimoto>
0.081 

> <ROCS_RefTversky>
0.261 

> <ROCS_RefColorTversky>
0.085 

> <ROCS_RefTverskyCombo>
0.346 

> <ROCS_FitTversky>
1.659 

> <ROCS_FitColorTversky>
0.645 

> <ROCS_FitTverskyCombo>
2.304 

> <ROCS_ColorScore>
-6.120

> <ROCS_Overlap>
1736.834

> <ROCS_Rank>
356                 

$$$$
untitled-dbase-52083_117
  -OEChem-08212314543D

 40 41  0     1  0  0  0  0  0999 V2000
   -8.8464    5.9728  -12.4335 C   0  0  0  0  0  0  0  0  0  0  0  0
   -8.5044    6.0844  -11.0873 C   0  0  0  0  0  0  0  0  0  0  0  0
   -8.2793    3.6891  -10.9595 C   0  0  0  0  0  0  0  0  0  0  0  0
   -8.6203    3.5510  -12.3191 C   0  0  0  0  0  0  0  0  0  0  0  0
   -8.9184    4.7137  -13.0581 C   0  0  0  0  0  0  0  0  0  0  0  0
   -8.2271    4.9418  -10.3482 C   0  0  0  0  0  0  0  0  0  0  0  0
   -8.7752    5.4382  -15.4352 C   0  0  0  0  0  0  0  0  0  0  0  0
  -10.1693    2.3419  -14.8977 C   0  0  0  0  0  0  0  0  0  0  0  0
   -9.7937    1.6517  -13.5900 C   0  0  0  0  0  0  0  0  0  0  0  0
  -10.5076    3.8115  -14.7087 C   0  0  0  0  0  0  0  0  0  0  0  0
   -8.5142    2.1736  -12.9365 C   0  0  1  0  0  0  0  0  0  0  0  0
   -6.6390    4.7390  -17.2089 C   0  0  0  0  0  0  0  0  0  0  0  0
   -8.4080    4.5908  -18.9859 C   0  0  0  0  0  0  0  0  0  0  0  0
   -7.9680    6.7814  -17.8389 C   0  0  0  0  0  0  0  0  0  0  0  0
   -7.9959    5.2622  -17.6776 C   0  0  0  0  0  0  0  0  0  0  0  0
   -9.3389    4.6465  -14.4199 N   0  0  0  0  0  0  0  0  0  0  0  0
   -8.1975    6.5059  -15.2361 O   0  0  0  0  0  0  0  0  0  0  0  0
   -7.4329    2.1764  -13.8675 O   0  0  0  0  0  0  0  0  0  0  0  0
   -8.9791    4.9263  -16.6919 O   0  0  0  0  0  0  0  0  0  0  0  0
   -7.8236    5.0713   -8.6799 Cl  0  0  0  0  0  0  0  0  0  0  0  0
   -8.9975    6.8906  -12.9884 H   0  0  0  0  0  0  0  0  0  0  0  0
   -8.4405    7.0699  -10.6347 H   0  0  0  0  0  0  0  0  0  0  0  0
   -8.0688    2.8022  -10.3669 H   0  0  0  0  0  0  0  0  0  0  0  0
   -9.3401    2.2630  -15.6072 H   0  0  0  0  0  0  0  0  0  0  0  0
  -11.0165    1.8147  -15.3461 H   0  0  0  0  0  0  0  0  0  0  0  0
  -10.6299    1.7156  -12.8792 H   0  0  0  0  0  0  0  0  0  0  0  0
   -9.6686    0.5828  -13.8153 H   0  0  0  0  0  0  0  0  0  0  0  0
  -11.0240    4.2196  -15.5929 H   0  0  0  0  0  0  0  0  0  0  0  0
  -11.2453    3.9055  -13.8969 H   0  0  0  0  0  0  0  0  0  0  0  0
   -8.2620    1.4715  -12.1455 H   0  0  0  0  0  0  0  0  0  0  0  0
   -6.3396    5.2185  -16.2701 H   0  0  0  0  0  0  0  0  0  0  0  0
   -6.6556    3.6550  -17.0559 H   0  0  0  0  0  0  0  0  0  0  0  0
   -5.8560    4.9734  -17.9391 H   0  0  0  0  0  0  0  0  0  0  0  0
   -9.3811    4.9633  -19.3259 H   0  0  0  0  0  0  0  0  0  0  0  0
   -8.5217    3.5091  -18.8506 H   0  0  0  0  0  0  0  0  0  0  0  0
   -7.6736    4.7658  -19.7787 H   0  0  0  0  0  0  0  0  0  0  0  0
   -8.9412    7.1570  -18.1751 H   0  0  0  0  0  0  0  0  0  0  0  0
   -7.7100    7.2820  -16.8999 H   0  0  0  0  0  0  0  0  0  0  0  0
   -7.2409    7.0788  -18.6032 H   0  0  0  0  0  0  0  0  0  0  0  0
   -7.3905    1.2840  -14.2448 H   0  0  0  0  0  0  0  0  0  0  0  0
  1  2  1  0  0  0  0
  1  5  2  0  0  0  0
  2  6  2  0  0  0  0
  3  4  2  0  0  0  0
  3  6  1  0  0  0  0
  4  5  1  0  0  0  0
  4 11  1  0  0  0  0
  5 16  1  0  0  0  0
  6 20  1  0  0  0  0
  7 16  1  0  0  0  0
  7 17  2  0  0  0  0
  7 19  1  0  0  0  0
  8  9  1  0  0  0  0
  8 10  1  0  0  0  0
  9 11  1  0  0  0  0
 10 16  1  0  0  0  0
 11 18  1  0  0  0  0
 12 15  1  0  0  0  0
 13 15  1  0  0  0  0
 14 15  1  0  0  0  0
 15 19  1  0  0  0  0
  1 21  1  0  0  0  0
  2 22  1  0  0  0  0
  3 23  1  0  0  0  0
  8 24  1  0  0  0  0
  8 25  1  0  0  0  0
  9 26  1  0  0  0  0
  9 27  1  0  0  0  0
 10 28  1  0  0  0  0
 10 29  1  0  0  0  0
 11 30  1  0  0  0  0
 12 31  1  0  0  0  0
 12 32  1  0  0  0  0
 12 33  1  0  0  0  0
 13 34  1  0  0  0  0
 13 35  1  0  0  0  0
 13 36  1  0  0  0  0
 14 37  1  0  0  0  0
 14 38  1  0  0  0  0
 14 39  1  0  0  0  0
 18 40  1  0  0  0  0
M  END
> <id>
EN300-34666809

> <smiles>
CC(C)(C)OC(=O)N1CCCC(O)C=2C=C(Cl)C=CC12

> <IUPAC Name>
tert-butyl 7-chloro-5-hydroxy-2,3,4,5-tetrahydro-1H-1-benzazepine-1-carboxylate

> <URL>
https://www.enaminestore.com/catalog/EN300-34666809

> <ROCS_ShapeQuery>
_x0404_0B

> <ROCS_TanimotoCombo>
0.372 

> <ROCS_ShapeTanimoto>
0.266 

> <ROCS_ColorTanimoto>
0.106 

> <ROCS_RefTversky>
0.248 

> <ROCS_RefColorTversky>
0.108 

> <ROCS_RefTverskyCombo>
0.356 

> <ROCS_FitTversky>
1.395 

> <ROCS_FitColorTversky>
0.823 

> <ROCS_FitTverskyCombo>
2.218 

> <ROCS_ColorScore>
-7.804

> <ROCS_Overlap>
1650.643

> <ROCS_Rank>
357                 

$$$$
untitled-dbase-37682_0
  -OEChem-08212314543D

 35 37  0     0  0  0  0  0  0999 V2000
   -8.4369    3.5974  -11.2061 C   0  0  0  0  0  0  0  0  0  0  0  0
   -8.2662    4.2580  -12.4239 C   0  0  0  0  0  0  0  0  0  0  0  0
   -8.8235    4.3183  -10.0750 C   0  0  0  0  0  0  0  0  0  0  0  0
   -8.4863    5.6208  -12.4793 C   0  0  0  0  0  0  0  0  0  0  0  0
   -9.0297    5.6796  -10.1908 C   0  0  0  0  0  0  0  0  0  0  0  0
   -7.8588    3.5108  -13.6234 C   0  0  0  0  0  0  0  0  0  0  0  0
   -9.0064    3.6352   -8.7854 C   0  0  0  0  0  0  0  0  0  0  0  0
   -7.9305    5.6675  -14.8945 C   0  0  0  0  0  0  0  0  0  0  0  0
   -9.6167    5.8501   -7.7885 C   0  0  0  0  0  0  0  0  0  0  0  0
   -8.5646    7.7502  -13.7048 C   0  0  0  0  0  0  0  0  0  0  0  0
   -9.6260    7.8653   -9.2366 C   0  0  0  0  0  0  0  0  0  0  0  0
   -7.3097    3.5680  -16.0027 C   0  0  0  0  0  0  0  0  0  0  0  0
   -9.5790    3.7877   -6.4317 C   0  0  0  0  0  0  0  0  0  0  0  0
   -8.8631    6.3205  -11.3772 N   0  0  0  0  0  0  0  0  0  0  0  0
   -8.3165    6.3095  -13.7112 N   0  0  0  0  0  0  0  0  0  0  0  0
   -9.4236    6.4292   -9.0489 N   0  0  0  0  0  0  0  0  0  0  0  0
   -7.7156    4.2732  -14.7903 N   0  0  0  0  0  0  0  0  0  0  0  0
   -9.3944    4.4548   -7.7173 N   0  0  0  0  0  0  0  0  0  0  0  0
   -7.6710    2.2991  -13.5481 O   0  0  0  0  0  0  0  0  0  0  0  0
   -8.8177    2.4237   -8.7091 O   0  0  0  0  0  0  0  0  0  0  0  0
   -7.7879    6.2797  -15.9586 O   0  0  0  0  0  0  0  0  0  0  0  0
   -9.9588    6.5151   -6.8045 O   0  0  0  0  0  0  0  0  0  0  0  0
   -8.2689    2.5256  -11.1387 H   0  0  0  0  0  0  0  0  0  0  0  0
   -7.6310    8.2826  -13.4706 H   0  0  0  0  0  0  0  0  0  0  0  0
   -8.9271    8.0641  -14.6948 H   0  0  0  0  0  0  0  0  0  0  0  0
   -9.3229    7.9882  -12.9443 H   0  0  0  0  0  0  0  0  0  0  0  0
  -10.6730    8.0552   -9.5154 H   0  0  0  0  0  0  0  0  0  0  0  0
   -9.3945    8.3936   -8.3000 H   0  0  0  0  0  0  0  0  0  0  0  0
   -8.9624    8.2276  -10.0356 H   0  0  0  0  0  0  0  0  0  0  0  0
   -8.2032    3.2197  -16.5415 H   0  0  0  0  0  0  0  0  0  0  0  0
   -6.7349    4.2488  -16.6477 H   0  0  0  0  0  0  0  0  0  0  0  0
   -6.6847    2.7041  -15.7324 H   0  0  0  0  0  0  0  0  0  0  0  0
   -8.6291    3.7901   -5.8770 H   0  0  0  0  0  0  0  0  0  0  0  0
  -10.3450    4.3204   -5.8490 H   0  0  0  0  0  0  0  0  0  0  0  0
   -9.9023    2.7500   -6.6003 H   0  0  0  0  0  0  0  0  0  0  0  0
  1  2  2  0  0  0  0
  1  3  1  0  0  0  0
  2  4  1  0  0  0  0
  2  6  1  0  0  0  0
  3  5  2  0  0  0  0
  3  7  1  0  0  0  0
  4 14  2  0  0  0  0
  4 15  1  0  0  0  0
  5 14  1  0  0  0  0
  5 16  1  0  0  0  0
  6 17  1  0  0  0  0
  6 19  2  0  0  0  0
  7 18  1  0  0  0  0
  7 20  2  0  0  0  0
  8 15  1  0  0  0  0
  8 17  1  0  0  0  0
  8 21  2  0  0  0  0
  9 16  1  0  0  0  0
  9 18  1  0  0  0  0
  9 22  2  0  0  0  0
 10 15  1  0  0  0  0
 11 16  1  0  0  0  0
 12 17  1  0  0  0  0
 13 18  1  0  0  0  0
  1 23  1  0  0  0  0
 10 24  1  0  0  0  0
 10 25  1  0  0  0  0
 10 26  1  0  0  0  0
 11 27  1  0  0  0  0
 11 28  1  0  0  0  0
 11 29  1  0  0  0  0
 12 30  1  0  0  0  0
 12 31  1  0  0  0  0
 12 32  1  0  0  0  0
 13 33  1  0  0  0  0
 13 34  1  0  0  0  0
 13 35  1  0  0  0  0
M  END
> <id>
EN300-7549512

> <smiles>
CN1C(=O)N(C)C=2N=C3N(C)C(=O)N(C)C(=O)C3=CC2C1=O

> <MDLNUMBER>
MFCD22201301

> <IUPAC Name>
4,6,12,14-tetramethyl-2,4,6,12,14-pentaazatricyclo[8.4.0.0,3,8]tetradeca-1,3(8),9-triene-5,7,11,13-tetrone

> <CAS>
796-39-4

> <Purity>
95

> <URL>
https://www.enaminestore.com/catalog/EN300-7549512

> <ROCS_ShapeQuery>
_x0404_0B

> <ROCS_TanimotoCombo>
0.372 

> <ROCS_ShapeTanimoto>
0.285 

> <ROCS_ColorTanimoto>
0.087 

> <ROCS_RefTversky>
0.266 

> <ROCS_RefColorTversky>
0.092 

> <ROCS_RefTverskyCombo>
0.359 

> <ROCS_FitTversky>
1.328 

> <ROCS_FitColorTversky>
0.585 

> <ROCS_FitTverskyCombo>
1.913 

> <ROCS_ColorScore>
-6.667

> <ROCS_Overlap>
1779.309

> <ROCS_Rank>
358                 

$$$$
untitled-dbase-30719_0
  -OEChem-08212314543D

 33 34  0     0  0  0  0  0  0999 V2000
   -8.8901    5.6000   -9.4298 C   0  0  0  0  0  0  0  0  0  0  0  0
   -9.0614    4.5270   -8.5577 C   0  0  0  0  0  0  0  0  0  0  0  0
   -8.8128    5.3266  -10.7791 C   0  0  0  0  0  0  0  0  0  0  0  0
   -8.9079    4.0061  -11.2098 C   0  0  0  0  0  0  0  0  0  0  0  0
   -9.1459    3.2384   -9.0878 C   0  0  0  0  0  0  0  0  0  0  0  0
   -8.4938    5.8042  -14.3911 C   0  0  0  0  0  0  0  0  0  0  0  0
   -8.6347    6.2495  -11.9328 C   0  0  0  0  0  0  0  0  0  0  0  0
   -8.8000    3.9391  -12.7031 C   0  0  0  0  0  0  0  0  0  0  0  0
   -7.0417    5.8598  -16.8519 C   0  0  0  0  0  0  0  0  0  0  0  0
   -8.4394    3.8786  -17.5081 C   0  0  0  0  0  0  0  0  0  0  0  0
   -9.5411    6.0870  -17.0417 C   0  0  0  0  0  0  0  0  0  0  0  0
   -8.3864    5.1564  -16.6735 C   0  0  0  0  0  0  0  0  0  0  0  0
   -9.0732    2.9424  -10.4080 N   0  0  0  0  0  0  0  0  0  0  0  0
   -8.6349    5.3476  -13.0911 N   0  0  0  0  0  0  0  0  0  0  0  0
   -8.3573    6.9868  -14.6959 O   0  0  0  0  0  0  0  0  0  0  0  0
   -9.3152    2.1846   -8.2263 O   0  0  0  0  0  0  0  0  0  0  0  0
   -8.5249    4.7799  -15.2989 O   0  0  0  0  0  0  0  0  0  0  0  0
   -8.8208    6.6148   -9.0543 H   0  0  0  0  0  0  0  0  0  0  0  0
   -9.1275    4.6955   -7.4877 H   0  0  0  0  0  0  0  0  0  0  0  0
   -9.4634    6.9565  -12.0344 H   0  0  0  0  0  0  0  0  0  0  0  0
   -7.6793    6.7817  -11.8987 H   0  0  0  0  0  0  0  0  0  0  0  0
   -7.9229    3.3710  -13.0263 H   0  0  0  0  0  0  0  0  0  0  0  0
   -9.7098    3.5430  -13.1630 H   0  0  0  0  0  0  0  0  0  0  0  0
   -6.9997    6.7775  -16.2544 H   0  0  0  0  0  0  0  0  0  0  0  0
   -6.2071    5.2150  -16.5580 H   0  0  0  0  0  0  0  0  0  0  0  0
   -6.8943    6.1629  -17.8948 H   0  0  0  0  0  0  0  0  0  0  0  0
   -9.4026    3.3707  -17.3832 H   0  0  0  0  0  0  0  0  0  0  0  0
   -7.6711    3.1679  -17.1829 H   0  0  0  0  0  0  0  0  0  0  0  0
   -8.2921    4.0853  -18.5731 H   0  0  0  0  0  0  0  0  0  0  0  0
  -10.5058    5.5827  -16.9138 H   0  0  0  0  0  0  0  0  0  0  0  0
   -9.5406    6.9930  -16.4270 H   0  0  0  0  0  0  0  0  0  0  0  0
   -9.4834    6.3813  -18.0958 H   0  0  0  0  0  0  0  0  0  0  0  0
   -9.3570    1.3583   -8.7267 H   0  0  0  0  0  0  0  0  0  0  0  0
  1  2  1  0  0  0  0
  1  3  2  0  0  0  0
  2  5  2  0  0  0  0
  3  4  1  0  0  0  0
  3  7  1  0  0  0  0
  4  8  1  0  0  0  0
  4 13  2  0  0  0  0
  5 13  1  0  0  0  0
  5 16  1  0  0  0  0
  6 14  1  0  0  0  0
  6 15  2  0  0  0  0
  6 17  1  0  0  0  0
  7 14  1  0  0  0  0
  8 14  1  0  0  0  0
  9 12  1  0  0  0  0
 10 12  1  0  0  0  0
 11 12  1  0  0  0  0
 12 17  1  0  0  0  0
  1 18  1  0  0  0  0
  2 19  1  0  0  0  0
  7 20  1  0  0  0  0
  7 21  1  0  0  0  0
  8 22  1  0  0  0  0
  8 23  1  0  0  0  0
  9 24  1  0  0  0  0
  9 25  1  0  0  0  0
  9 26  1  0  0  0  0
 10 27  1  0  0  0  0
 10 28  1  0  0  0  0
 10 29  1  0  0  0  0
 11 30  1  0  0  0  0
 11 31  1  0  0  0  0
 11 32  1  0  0  0  0
 16 33  1  0  0  0  0
M  END
> <id>
EN300-26665150

> <smiles>
CC(C)(C)OC(=O)N1CC=2C=CC(O)=NC2C1

> <IUPAC Name>
tert-butyl 2-hydroxy-5H,6H,7H-pyrrolo[3,4-b]pyridine-6-carboxylate

> <CAS>
2383899-95-2

> <URL>
https://www.enaminestore.com/catalog/EN300-26665150

> <ROCS_ShapeQuery>
_x0404_0B

> <ROCS_TanimotoCombo>
0.372 

> <ROCS_ShapeTanimoto>
0.303 

> <ROCS_ColorTanimoto>
0.069 

> <ROCS_RefTversky>
0.270 

> <ROCS_RefColorTversky>
0.074 

> <ROCS_RefTverskyCombo>
0.344 

> <ROCS_FitTversky>
1.666 

> <ROCS_FitColorTversky>
0.512 

> <ROCS_FitTverskyCombo>
2.179 

> <ROCS_ColorScore>
-5.356

> <ROCS_Overlap>
1798.484

> <ROCS_Rank>
359                 

$$$$
untitled-dbase-34431_109
  -OEChem-08212314543D

 42 43  0     0  0  0  0  0  0999 V2000
   -8.2788    5.6080  -14.2173 C   0  0  0  0  0  0  0  0  0  0  0  0
  -10.0848    5.0643  -11.0368 C   0  0  0  0  0  0  0  0  0  0  0  0
   -7.7576    4.0369  -10.8259 C   0  0  0  0  0  0  0  0  0  0  0  0
   -9.3376    5.9742  -12.0062 C   0  0  0  0  0  0  0  0  0  0  0  0
   -7.8649    3.9817  -12.3454 C   0  0  0  0  0  0  0  0  0  0  0  0
   -8.9396    3.0746   -7.5179 C   0  0  0  0  0  0  0  0  0  0  0  0
   -9.8214    2.9326   -9.7386 C   0  0  0  0  0  0  0  0  0  0  0  0
   -8.2275    4.3627   -7.9022 C   0  0  0  0  0  0  0  0  0  0  0  0
   -9.1251    4.2557  -10.1301 C   0  0  0  0  0  0  0  0  0  0  0  0
   -6.6312    5.8023  -16.5481 C   0  0  0  0  0  0  0  0  0  0  0  0
   -7.6089    3.5820  -17.1989 C   0  0  0  0  0  0  0  0  0  0  0  0
   -9.1042    5.5862  -16.9629 C   0  0  0  0  0  0  0  0  0  0  0  0
   -7.8497    4.8864  -16.4421 C   0  0  0  0  0  0  0  0  0  0  0  0
   -9.0908    2.2156   -8.6910 N   0  0  0  0  0  0  0  0  0  0  0  0
   -8.4733    5.1973  -12.8951 N   0  0  0  0  0  0  0  0  0  0  0  0
   -8.3125    6.7788  -14.5915 O   0  0  0  0  0  0  0  0  0  0  0  0
   -8.9347    5.0469   -8.9377 O   0  0  0  0  0  0  0  0  0  0  0  0
   -8.0517    4.5545  -15.0636 O   0  0  0  0  0  0  0  0  0  0  0  0
  -10.7411    5.6886  -10.4181 H   0  0  0  0  0  0  0  0  0  0  0  0
  -10.7264    4.3796  -11.6059 H   0  0  0  0  0  0  0  0  0  0  0  0
   -7.3092    3.0966  -10.4642 H   0  0  0  0  0  0  0  0  0  0  0  0
   -7.0409    4.8293  -10.5681 H   0  0  0  0  0  0  0  0  0  0  0  0
  -10.0574    6.5718  -12.5711 H   0  0  0  0  0  0  0  0  0  0  0  0
   -8.6930    6.6740  -11.4625 H   0  0  0  0  0  0  0  0  0  0  0  0
   -6.8713    3.8820  -12.8044 H   0  0  0  0  0  0  0  0  0  0  0  0
   -8.4424    3.0976  -12.6447 H   0  0  0  0  0  0  0  0  0  0  0  0
   -8.3732    2.5462   -6.7456 H   0  0  0  0  0  0  0  0  0  0  0  0
   -9.9290    3.2973   -7.1033 H   0  0  0  0  0  0  0  0  0  0  0  0
  -10.8417    3.1305   -9.3785 H   0  0  0  0  0  0  0  0  0  0  0  0
   -9.9240    2.2783  -10.6152 H   0  0  0  0  0  0  0  0  0  0  0  0
   -8.1896    5.0322   -7.0383 H   0  0  0  0  0  0  0  0  0  0  0  0
   -7.1938    4.1817   -8.2096 H   0  0  0  0  0  0  0  0  0  0  0  0
   -6.8000    6.7398  -16.0062 H   0  0  0  0  0  0  0  0  0  0  0  0
   -5.7317    5.3252  -16.1457 H   0  0  0  0  0  0  0  0  0  0  0  0
   -6.4393    6.0786  -17.5912 H   0  0  0  0  0  0  0  0  0  0  0  0
   -8.4807    2.9218  -17.1255 H   0  0  0  0  0  0  0  0  0  0  0  0
   -6.7664    3.0300  -16.7670 H   0  0  0  0  0  0  0  0  0  0  0  0
   -7.3988    3.7623  -18.2581 H   0  0  0  0  0  0  0  0  0  0  0  0
   -9.9784    4.9294  -16.8869 H   0  0  0  0  0  0  0  0  0  0  0  0
   -9.3135    6.5057  -16.4067 H   0  0  0  0  0  0  0  0  0  0  0  0
   -8.9978    5.8378  -18.0243 H   0  0  0  0  0  0  0  0  0  0  0  0
   -8.1693    1.9487   -9.0373 H   0  0  0  0  0  0  0  0  0  0  0  0
  1 15  1  0  0  0  0
  1 16  2  0  0  0  0
  1 18  1  0  0  0  0
  2  4  1  0  0  0  0
  2  9  1  0  0  0  0
  3  5  1  0  0  0  0
  3  9  1  0  0  0  0
  4 15  1  0  0  0  0
  5 15  1  0  0  0  0
  6  8  1  0  0  0  0
  6 14  1  0  0  0  0
  7  9  1  0  0  0  0
  7 14  1  0  0  0  0
  8 17  1  0  0  0  0
  9 17  1  0  0  0  0
 10 13  1  0  0  0  0
 11 13  1  0  0  0  0
 12 13  1  0  0  0  0
 13 18  1  0  0  0  0
  2 19  1  0  0  0  0
  2 20  1  0  0  0  0
  3 21  1  0  0  0  0
  3 22  1  0  0  0  0
  4 23  1  0  0  0  0
  4 24  1  0  0  0  0
  5 25  1  0  0  0  0
  5 26  1  0  0  0  0
  6 27  1  0  0  0  0
  6 28  1  0  0  0  0
  7 29  1  0  0  0  0
  7 30  1  0  0  0  0
  8 31  1  0  0  0  0
  8 32  1  0  0  0  0
 10 33  1  0  0  0  0
 10 34  1  0  0  0  0
 10 35  1  0  0  0  0
 11 36  1  0  0  0  0
 11 37  1  0  0  0  0
 11 38  1  0  0  0  0
 12 39  1  0  0  0  0
 12 40  1  0  0  0  0
 12 41  1  0  0  0  0
 14 42  1  0  0  0  0
M  END
> <id>
EN300-113744

> <smiles>
CC(C)(C)OC(=O)N1CCC2(CC1)CNCCO2

> <MDLNUMBER>
MFCD11227065

> <IUPAC Name>
tert-butyl 1-oxa-4,9-diazaspiro[5.5]undecane-9-carboxylate

> <CAS>
930785-40-3

> <Purity>
95

> <URL>
https://www.enaminestore.com/catalog/EN300-113744

> <ROCS_ShapeQuery>
_x0404_0B

> <ROCS_TanimotoCombo>
0.372 

> <ROCS_ShapeTanimoto>
0.285 

> <ROCS_ColorTanimoto>
0.087 

> <ROCS_RefTversky>
0.258 

> <ROCS_RefColorTversky>
0.092 

> <ROCS_RefTverskyCombo>
0.350 

> <ROCS_FitTversky>
1.568 

> <ROCS_FitColorTversky>
0.634 

> <ROCS_FitTverskyCombo>
2.202 

> <ROCS_ColorScore>
-6.612

> <ROCS_Overlap>
1720.653

> <ROCS_Rank>
360                 

$$$$
untitled-dbase-14555_95
  -OEChem-08212314543D

 48 50  0     1  0  0  0  0  0999 V2000
   -8.8851    3.0716   -7.1472 C   0  0  0  0  0  0  0  0  0  0  0  0
   -9.1644    2.1937   -8.1740 C   0  0  0  0  0  0  0  0  0  0  0  0
   -8.7883    4.3456   -7.7457 C   0  0  0  0  0  0  0  0  0  0  0  0
   -9.0249    4.1554   -9.0881 C   0  0  0  0  0  0  0  0  0  0  0  0
   -8.8981    5.8448  -14.4596 C   0  0  0  0  0  0  0  0  0  0  0  0
   -8.5095    5.6963   -7.2036 C   0  0  0  0  0  0  0  0  0  0  0  0
   -7.7689    5.0066  -11.0669 C   0  0  0  0  0  0  0  0  0  0  0  0
  -10.2728    5.0688  -11.0559 C   0  0  0  0  0  0  0  0  0  0  0  0
   -8.1047    6.6477   -8.3521 C   0  0  0  0  0  0  0  0  0  0  0  0
   -7.7619    5.9505  -12.2653 C   0  0  0  0  0  0  0  0  0  0  0  0
  -10.2736    5.9243  -12.3386 C   0  0  1  0  0  0  0  0  0  0  0  0
   -9.0099    5.1945  -10.1688 C   0  0  1  0  0  0  0  0  0  0  0  0
  -10.6740    7.3834  -12.1074 C   0  0  0  0  0  0  0  0  0  0  0  0
   -8.4211    3.5479  -16.0999 C   0  0  0  0  0  0  0  0  0  0  0  0
  -10.8268    3.7693  -16.7877 C   0  0  0  0  0  0  0  0  0  0  0  0
   -9.2038    5.6156  -17.3027 C   0  0  0  0  0  0  0  0  0  0  0  0
   -9.5835    4.5170  -16.3109 C   0  0  0  0  0  0  0  0  0  0  0  0
   -8.9961    6.5438   -9.5277 N   0  0  0  0  0  0  0  0  0  0  0  0
   -8.9872    5.8429  -13.0591 N   0  0  0  0  0  0  0  0  0  0  0  0
   -8.0226    6.4262  -15.0982 O   0  0  0  0  0  0  0  0  0  0  0  0
   -9.2465    2.8472   -9.3673 O   0  0  0  0  0  0  0  0  0  0  0  0
   -9.9021    5.1268  -15.0548 O   0  0  0  0  0  0  0  0  0  0  0  0
   -8.7696    2.8168   -6.1037 H   0  0  0  0  0  0  0  0  0  0  0  0
   -9.3268    1.1267   -8.2184 H   0  0  0  0  0  0  0  0  0  0  0  0
   -9.3872    6.0952   -6.6844 H   0  0  0  0  0  0  0  0  0  0  0  0
   -7.6910    5.6278   -6.4770 H   0  0  0  0  0  0  0  0  0  0  0  0
   -7.7227    3.9741  -11.4402 H   0  0  0  0  0  0  0  0  0  0  0  0
   -6.8492    5.1557  -10.4853 H   0  0  0  0  0  0  0  0  0  0  0  0
  -11.1846    5.2687  -10.4780 H   0  0  0  0  0  0  0  0  0  0  0  0
  -10.3677    4.0181  -11.3711 H   0  0  0  0  0  0  0  0  0  0  0  0
   -8.0770    7.6835   -7.9936 H   0  0  0  0  0  0  0  0  0  0  0  0
   -7.0839    6.4005   -8.6650 H   0  0  0  0  0  0  0  0  0  0  0  0
   -7.6660    6.9950  -11.9494 H   0  0  0  0  0  0  0  0  0  0  0  0
   -6.8884    5.7320  -12.8888 H   0  0  0  0  0  0  0  0  0  0  0  0
  -11.0471    5.5073  -12.9622 H   0  0  0  0  0  0  0  0  0  0  0  0
   -9.9319    7.8723  -11.4798 H   0  0  0  0  0  0  0  0  0  0  0  0
  -11.6430    7.4240  -11.6145 H   0  0  0  0  0  0  0  0  0  0  0  0
  -10.7349    7.9026  -13.0616 H   0  0  0  0  0  0  0  0  0  0  0  0
   -7.5268    4.0807  -15.7576 H   0  0  0  0  0  0  0  0  0  0  0  0
   -8.6684    2.7753  -15.3645 H   0  0  0  0  0  0  0  0  0  0  0  0
   -8.1468    3.0557  -17.0400 H   0  0  0  0  0  0  0  0  0  0  0  0
  -11.6633    4.4607  -16.9404 H   0  0  0  0  0  0  0  0  0  0  0  0
  -11.1588    3.0444  -16.0356 H   0  0  0  0  0  0  0  0  0  0  0  0
  -10.6424    3.2357  -17.7258 H   0  0  0  0  0  0  0  0  0  0  0  0
  -10.0374    6.3109  -17.4542 H   0  0  0  0  0  0  0  0  0  0  0  0
   -8.3355    6.1869  -16.9588 H   0  0  0  0  0  0  0  0  0  0  0  0
   -8.9734    5.1901  -18.2861 H   0  0  0  0  0  0  0  0  0  0  0  0
   -9.9320    6.8441   -9.2788 H   0  0  0  0  0  0  0  0  0  0  0  0
  1  2  2  0  0  0  0
  1  3  1  0  0  0  0
  2 21  1  0  0  0  0
  3  4  2  0  0  0  0
  3  6  1  0  0  0  0
  4 12  1  0  0  0  0
  4 21  1  0  0  0  0
  5 19  1  0  0  0  0
  5 20  2  0  0  0  0
  5 22  1  0  0  0  0
  6  9  1  0  0  0  0
  7 10  1  0  0  0  0
  7 12  1  0  0  0  0
  8 11  1  0  0  0  0
  8 12  1  0  0  0  0
  9 18  1  0  0  0  0
 10 19  1  0  0  0  0
 11 13  1  0  0  0  0
 11 19  1  0  0  0  0
 12 18  1  0  0  0  0
 14 17  1  0  0  0  0
 15 17  1  0  0  0  0
 16 17  1  0  0  0  0
 17 22  1  0  0  0  0
  1 23  1  0  0  0  0
  2 24  1  0  0  0  0
  6 25  1  0  0  0  0
  6 26  1  0  0  0  0
  7 27  1  0  0  0  0
  7 28  1  0  0  0  0
  8 29  1  0  0  0  0
  8 30  1  0  0  0  0
  9 31  1  0  0  0  0
  9 32  1  0  0  0  0
 10 33  1  0  0  0  0
 10 34  1  0  0  0  0
 11 35  1  0  0  0  0
 13 36  1  0  0  0  0
 13 37  1  0  0  0  0
 13 38  1  0  0  0  0
 14 39  1  0  0  0  0
 14 40  1  0  0  0  0
 14 41  1  0  0  0  0
 15 42  1  0  0  0  0
 15 43  1  0  0  0  0
 15 44  1  0  0  0  0
 16 45  1  0  0  0  0
 16 46  1  0  0  0  0
 16 47  1  0  0  0  0
 18 48  1  0  0  0  0
M  END
> <id>
EN300-1076846

> <smiles>
CC1CC2(CCN1C(=O)OC(C)(C)C)NCCC=3C=COC32

> <IUPAC Name>
tert-butyl 6'-methyl-5,6-dihydro-4H-spiro[furo[2,3-c]pyridine-7,4'-piperidine]-1'-carboxylate

> <CAS>
2137446-84-3

> <URL>
https://www.enaminestore.com/catalog/EN300-1076846

> <ROCS_ShapeQuery>
_x0404_0B

> <ROCS_TanimotoCombo>
0.372 

> <ROCS_ShapeTanimoto>
0.296 

> <ROCS_ColorTanimoto>
0.075 

> <ROCS_RefTversky>
0.273 

> <ROCS_RefColorTversky>
0.081 

> <ROCS_RefTverskyCombo>
0.354 

> <ROCS_FitTversky>
1.411 

> <ROCS_FitColorTversky>
0.514 

> <ROCS_FitTverskyCombo>
1.925 

> <ROCS_ColorScore>
-5.855

> <ROCS_Overlap>
1820.914

> <ROCS_Rank>
361                 

$$$$
untitled-dbase-41009_596
  -OEChem-08212314543D

 48 48  0     0  0  0  0  0  0999 V2000
   -7.8214    3.0342  -13.4063 C   0  0  0  0  0  0  0  0  0  0  0  0
   -8.2879    3.8322  -10.2264 C   0  0  0  0  0  0  0  0  0  0  0  0
   -8.8815    5.7089  -15.0507 C   0  0  0  0  0  0  0  0  0  0  0  0
   -7.0173    3.8277  -12.3932 C   0  0  0  0  0  0  0  0  0  0  0  0
   -9.1858    3.5174  -13.8614 C   0  0  0  0  0  0  0  0  0  0  0  0
   -8.4218    5.7883  -11.7373 C   0  0  0  0  0  0  0  0  0  0  0  0
   -9.6094    5.6816  -12.6851 C   0  0  0  0  0  0  0  0  0  0  0  0
   -7.8102    3.1462   -7.4897 C   0  0  0  0  0  0  0  0  0  0  0  0
   -9.0329    5.2694   -6.9363 C   0  0  0  0  0  0  0  0  0  0  0  0
  -10.2232    3.4209   -8.1506 C   0  0  0  0  0  0  0  0  0  0  0  0
   -6.7455    5.0023  -16.8188 C   0  0  0  0  0  0  0  0  0  0  0  0
   -8.5490    4.4231  -18.4684 C   0  0  0  0  0  0  0  0  0  0  0  0
   -8.3165    6.7855  -17.6478 C   0  0  0  0  0  0  0  0  0  0  0  0
   -8.8862    4.1314   -7.9441 C   0  0  0  0  0  0  0  0  0  0  0  0
   -8.1684    5.3088  -17.2840 C   0  0  0  0  0  0  0  0  0  0  0  0
   -7.8784    4.4731  -11.4038 N   0  0  0  0  0  0  0  0  0  0  0  0
   -9.2554    4.9765  -13.9155 N   0  0  0  0  0  0  0  0  0  0  0  0
   -7.3606    1.9843  -13.8651 O   0  0  0  0  0  0  0  0  0  0  0  0
   -8.4496    2.6179  -10.1186 O   0  0  0  0  0  0  0  0  0  0  0  0
   -8.4207    6.8486  -15.0192 O   0  0  0  0  0  0  0  0  0  0  0  0
   -8.4791    4.7082   -9.1900 O   0  0  0  0  0  0  0  0  0  0  0  0
   -9.0720    5.0100  -16.2139 O   0  0  0  0  0  0  0  0  0  0  0  0
   -6.3235    3.1464  -11.8907 H   0  0  0  0  0  0  0  0  0  0  0  0
   -6.4283    4.5864  -12.9183 H   0  0  0  0  0  0  0  0  0  0  0  0
   -9.3869    3.1013  -14.8536 H   0  0  0  0  0  0  0  0  0  0  0  0
   -9.9482    3.1388  -13.1730 H   0  0  0  0  0  0  0  0  0  0  0  0
   -7.6217    6.3986  -12.1716 H   0  0  0  0  0  0  0  0  0  0  0  0
   -8.7456    6.2926  -10.8200 H   0  0  0  0  0  0  0  0  0  0  0  0
  -10.4487    5.1599  -12.2110 H   0  0  0  0  0  0  0  0  0  0  0  0
   -9.9585    6.6908  -12.9305 H   0  0  0  0  0  0  0  0  0  0  0  0
   -7.7019    2.3278   -8.2104 H   0  0  0  0  0  0  0  0  0  0  0  0
   -6.8384    3.6365   -7.3716 H   0  0  0  0  0  0  0  0  0  0  0  0
   -8.0825    2.6829   -6.5345 H   0  0  0  0  0  0  0  0  0  0  0  0
   -9.8039    5.9787   -7.2583 H   0  0  0  0  0  0  0  0  0  0  0  0
   -8.1016    5.8416   -6.8555 H   0  0  0  0  0  0  0  0  0  0  0  0
   -9.2983    4.8967   -5.9418 H   0  0  0  0  0  0  0  0  0  0  0  0
  -10.9951    4.1274   -8.4765 H   0  0  0  0  0  0  0  0  0  0  0  0
  -10.1456    2.6248   -8.8981 H   0  0  0  0  0  0  0  0  0  0  0  0
  -10.5810    2.9833   -7.2116 H   0  0  0  0  0  0  0  0  0  0  0  0
   -6.4685    5.6360  -15.9687 H   0  0  0  0  0  0  0  0  0  0  0  0
   -6.6352    3.9543  -16.5218 H   0  0  0  0  0  0  0  0  0  0  0  0
   -6.0202    5.2154  -17.6124 H   0  0  0  0  0  0  0  0  0  0  0  0
   -9.5691    4.6396  -18.8055 H   0  0  0  0  0  0  0  0  0  0  0  0
   -8.5359    3.3646  -18.1844 H   0  0  0  0  0  0  0  0  0  0  0  0
   -7.8674    4.5638  -19.3136 H   0  0  0  0  0  0  0  0  0  0  0  0
   -9.3370    7.0055  -17.9815 H   0  0  0  0  0  0  0  0  0  0  0  0
   -8.0829    7.4355  -16.7983 H   0  0  0  0  0  0  0  0  0  0  0  0
   -7.6550    7.0498  -18.4807 H   0  0  0  0  0  0  0  0  0  0  0  0
  1  4  1  0  0  0  0
  1  5  1  0  0  0  0
  1 18  2  0  0  0  0
  2 16  1  0  0  0  0
  2 19  2  0  0  0  0
  2 21  1  0  0  0  0
  3 17  1  0  0  0  0
  3 20  2  0  0  0  0
  3 22  1  0  0  0  0
  4 16  1  0  0  0  0
  5 17  1  0  0  0  0
  6  7  1  0  0  0  0
  6 16  1  0  0  0  0
  7 17  1  0  0  0  0
  8 14  1  0  0  0  0
  9 14  1  0  0  0  0
 10 14  1  0  0  0  0
 11 15  1  0  0  0  0
 12 15  1  0  0  0  0
 13 15  1  0  0  0  0
 14 21  1  0  0  0  0
 15 22  1  0  0  0  0
  4 23  1  0  0  0  0
  4 24  1  0  0  0  0
  5 25  1  0  0  0  0
  5 26  1  0  0  0  0
  6 27  1  0  0  0  0
  6 28  1  0  0  0  0
  7 29  1  0  0  0  0
  7 30  1  0  0  0  0
  8 31  1  0  0  0  0
  8 32  1  0  0  0  0
  8 33  1  0  0  0  0
  9 34  1  0  0  0  0
  9 35  1  0  0  0  0
  9 36  1  0  0  0  0
 10 37  1  0  0  0  0
 10 38  1  0  0  0  0
 10 39  1  0  0  0  0
 11 40  1  0  0  0  0
 11 41  1  0  0  0  0
 11 42  1  0  0  0  0
 12 43  1  0  0  0  0
 12 44  1  0  0  0  0
 12 45  1  0  0  0  0
 13 46  1  0  0  0  0
 13 47  1  0  0  0  0
 13 48  1  0  0  0  0
M  END
> <id>
EN300-268982

> <smiles>
CC(C)(C)OC(=O)N1CCN(CC(=O)C1)C(=O)OC(C)(C)C

> <MDLNUMBER>
MFCD21362344

> <IUPAC Name>
1,4-di-tert-butyl 6-oxo-1,4-diazepane-1,4-dicarboxylate

> <CAS>
459417-40-4

> <Purity>
95

> <URL>
https://www.enaminestore.com/catalog/EN300-268982

> <ROCS_ShapeQuery>
_x0404_0B

> <ROCS_TanimotoCombo>
0.371 

> <ROCS_ShapeTanimoto>
0.316 

> <ROCS_ColorTanimoto>
0.056 

> <ROCS_RefTversky>
0.285 

> <ROCS_RefColorTversky>
0.060 

> <ROCS_RefTverskyCombo>
0.345 

> <ROCS_FitTversky>
1.509 

> <ROCS_FitColorTversky>
0.455 

> <ROCS_FitTverskyCombo>
1.964 

> <ROCS_ColorScore>
-4.314

> <ROCS_Overlap>
1903.065

> <ROCS_Rank>
362                 

$$$$
untitled-dbase-10572_1276
  -OEChem-08212314543D

 38 39  0     0  0  0  0  0  0999 V2000
   -8.6571    4.5970  -11.0155 C   0  0  0  0  0  0  0  0  0  0  0  0
   -8.0509    3.5669  -14.2354 C   0  0  0  0  0  0  0  0  0  0  0  0
   -9.3580    2.8709   -7.2116 C   0  0  0  0  0  0  0  0  0  0  0  0
   -8.0269    5.4465  -18.1683 C   0  0  0  0  0  0  0  0  0  0  0  0
   -9.2467    4.3798   -7.4146 C   0  0  0  0  0  0  0  0  0  0  0  0
   -9.6617    2.1587   -8.5271 C   0  0  0  0  0  0  0  0  0  0  0  0
   -8.9837    4.3021  -17.8419 C   0  0  0  0  0  0  0  0  0  0  0  0
   -7.2648    5.9661  -16.9494 C   0  0  0  0  0  0  0  0  0  0  0  0
   -8.2493    4.7255   -8.5169 C   0  0  0  0  0  0  0  0  0  0  0  0
   -8.6573    2.5364   -9.6116 C   0  0  0  0  0  0  0  0  0  0  0  0
   -8.4656    3.4184  -16.7149 C   0  0  0  0  0  0  0  0  0  0  0  0
   -7.9566    5.6237  -15.6369 C   0  0  0  0  0  0  0  0  0  0  0  0
   -8.2979    3.7885  -12.0788 N   0  0  0  0  0  0  0  0  0  0  0  0
   -8.4130    4.3764  -13.1729 N   0  0  0  0  0  0  0  0  0  0  0  0
   -8.5487    3.9897   -9.7510 N   0  0  0  0  0  0  0  0  0  0  0  0
   -8.1613    4.1800  -15.4974 N   0  0  0  0  0  0  0  0  0  0  0  0
   -9.0445    5.7619  -11.1416 O   0  0  0  0  0  0  0  0  0  0  0  0
   -7.6646    2.4013  -14.1139 O   0  0  0  0  0  0  0  0  0  0  0  0
   -8.4268    2.4829   -6.7843 H   0  0  0  0  0  0  0  0  0  0  0  0
  -10.1557    2.6581   -6.4893 H   0  0  0  0  0  0  0  0  0  0  0  0
   -7.3015    5.1072  -18.9317 H   0  0  0  0  0  0  0  0  0  0  0  0
   -8.5869    6.2765  -18.6361 H   0  0  0  0  0  0  0  0  0  0  0  0
  -10.2312    4.7913   -7.6652 H   0  0  0  0  0  0  0  0  0  0  0  0
   -8.9313    4.8534   -6.4763 H   0  0  0  0  0  0  0  0  0  0  0  0
   -9.6374    1.0736   -8.3698 H   0  0  0  0  0  0  0  0  0  0  0  0
  -10.6749    2.4127   -8.8572 H   0  0  0  0  0  0  0  0  0  0  0  0
   -9.9642    4.7156  -17.5606 H   0  0  0  0  0  0  0  0  0  0  0  0
   -9.1484    3.6942  -18.7432 H   0  0  0  0  0  0  0  0  0  0  0  0
   -6.2455    5.5501  -16.9507 H   0  0  0  0  0  0  0  0  0  0  0  0
   -7.1524    7.0596  -17.0294 H   0  0  0  0  0  0  0  0  0  0  0  0
   -8.3026    5.7927   -8.7587 H   0  0  0  0  0  0  0  0  0  0  0  0
   -7.2319    4.5164   -8.1754 H   0  0  0  0  0  0  0  0  0  0  0  0
   -7.6893    2.0781   -9.3873 H   0  0  0  0  0  0  0  0  0  0  0  0
   -8.9832    2.1439  -10.5833 H   0  0  0  0  0  0  0  0  0  0  0  0
   -9.1921    2.6171  -16.5151 H   0  0  0  0  0  0  0  0  0  0  0  0
   -7.5303    2.9205  -17.0203 H   0  0  0  0  0  0  0  0  0  0  0  0
   -7.3418    5.9445  -14.7855 H   0  0  0  0  0  0  0  0  0  0  0  0
   -8.9092    6.1611  -15.5678 H   0  0  0  0  0  0  0  0  0  0  0  0
  1 13  1  0  0  0  0
  1 15  1  0  0  0  0
  1 17  2  0  0  0  0
  2 14  1  0  0  0  0
  2 16  1  0  0  0  0
  2 18  2  0  0  0  0
  3  5  1  0  0  0  0
  3  6  1  0  0  0  0
  4  7  1  0  0  0  0
  4  8  1  0  0  0  0
  5  9  1  0  0  0  0
  6 10  1  0  0  0  0
  7 11  1  0  0  0  0
  8 12  1  0  0  0  0
  9 15  1  0  0  0  0
 10 15  1  0  0  0  0
 11 16  1  0  0  0  0
 12 16  1  0  0  0  0
 13 14  2  3  0  0  0
  3 19  1  0  0  0  0
  3 20  1  0  0  0  0
  4 21  1  0  0  0  0
  4 22  1  0  0  0  0
  5 23  1  0  0  0  0
  5 24  1  0  0  0  0
  6 25  1  0  0  0  0
  6 26  1  0  0  0  0
  7 27  1  0  0  0  0
  7 28  1  0  0  0  0
  8 29  1  0  0  0  0
  8 30  1  0  0  0  0
  9 31  1  0  0  0  0
  9 32  1  0  0  0  0
 10 33  1  0  0  0  0
 10 34  1  0  0  0  0
 11 35  1  0  0  0  0
 11 36  1  0  0  0  0
 12 37  1  0  0  0  0
 12 38  1  0  0  0  0
M  END
> <id>
EN300-346030

> <smiles>
O=C(N=NC(=O)N1CCCCC1)N2CCCCC2

> <IUPAC Name>
N-[(piperidine-1-carbonyl)imino]piperidine-1-carboxamide

> <CAS>
10465-81-3

> <Purity>
95

> <URL>
https://www.enaminestore.com/catalog/EN300-346030

> <MP>
134-136

> <ROCS_ShapeQuery>
_x0404_0B

> <ROCS_TanimotoCombo>
0.371 

> <ROCS_ShapeTanimoto>
0.294 

> <ROCS_ColorTanimoto>
0.077 

> <ROCS_RefTversky>
0.265 

> <ROCS_RefColorTversky>
0.081 

> <ROCS_RefTverskyCombo>
0.346 

> <ROCS_FitTversky>
1.609 

> <ROCS_FitColorTversky>
0.595 

> <ROCS_FitTverskyCombo>
2.204 

> <ROCS_ColorScore>
-5.877

> <ROCS_Overlap>
1763.830

> <ROCS_Rank>
363                 

$$$$
untitled-dbase-45935_1
  -OEChem-08212314543D

 34 35  0     0  0  0  0  0  0999 V2000
   -8.8908    5.6018   -9.4570 C   0  0  0  0  0  0  0  0  0  0  0  0
   -9.0614    4.5263   -8.5880 C   0  0  0  0  0  0  0  0  0  0  0  0
   -8.8133    5.3323  -10.8070 C   0  0  0  0  0  0  0  0  0  0  0  0
   -8.9075    4.0130  -11.2415 C   0  0  0  0  0  0  0  0  0  0  0  0
   -9.1450    3.2391   -9.1217 C   0  0  0  0  0  0  0  0  0  0  0  0
   -8.4945    5.8205  -14.4176 C   0  0  0  0  0  0  0  0  0  0  0  0
   -8.6357    6.2587  -11.9581 C   0  0  0  0  0  0  0  0  0  0  0  0
   -8.7995    3.9504  -12.7351 C   0  0  0  0  0  0  0  0  0  0  0  0
   -7.0424    5.8842  -16.8782 C   0  0  0  0  0  0  0  0  0  0  0  0
   -8.4387    3.9040  -17.5402 C   0  0  0  0  0  0  0  0  0  0  0  0
   -9.5419    6.1103  -17.0674 C   0  0  0  0  0  0  0  0  0  0  0  0
   -8.3866    5.1794  -16.7019 C   0  0  0  0  0  0  0  0  0  0  0  0
   -9.0721    2.9469  -10.4428 N   0  0  0  0  0  0  0  0  0  0  0  0
   -8.6353    5.3601  -13.1190 N   0  0  0  0  0  0  0  0  0  0  0  0
   -9.3183    2.1740   -8.2013 N   0  0  0  0  0  0  0  0  0  0  0  0
   -8.3588    7.0041  -14.7191 O   0  0  0  0  0  0  0  0  0  0  0  0
   -8.5248    4.7988  -15.3284 O   0  0  0  0  0  0  0  0  0  0  0  0
   -8.8219    6.6155   -9.0787 H   0  0  0  0  0  0  0  0  0  0  0  0
   -9.1267    4.7002   -7.5181 H   0  0  0  0  0  0  0  0  0  0  0  0
   -9.4648    6.9655  -12.0579 H   0  0  0  0  0  0  0  0  0  0  0  0
   -7.6810    6.7915  -11.9219 H   0  0  0  0  0  0  0  0  0  0  0  0
   -7.9217    3.3845  -13.0597 H   0  0  0  0  0  0  0  0  0  0  0  0
   -9.7089    3.5548  -13.1962 H   0  0  0  0  0  0  0  0  0  0  0  0
   -7.0010    6.8002  -16.2781 H   0  0  0  0  0  0  0  0  0  0  0  0
   -6.2073    5.2391  -16.5862 H   0  0  0  0  0  0  0  0  0  0  0  0
   -6.8951    6.1904  -17.9202 H   0  0  0  0  0  0  0  0  0  0  0  0
   -9.4015    3.3951  -17.4168 H   0  0  0  0  0  0  0  0  0  0  0  0
   -7.6700    3.1928  -17.2170 H   0  0  0  0  0  0  0  0  0  0  0  0
   -8.2915    4.1138  -18.6046 H   0  0  0  0  0  0  0  0  0  0  0  0
  -10.5062    5.6050  -16.9411 H   0  0  0  0  0  0  0  0  0  0  0  0
   -9.5420    7.0145  -16.4502 H   0  0  0  0  0  0  0  0  0  0  0  0
   -9.4844    6.4077  -18.1208 H   0  0  0  0  0  0  0  0  0  0  0  0
   -9.4288    1.2487   -8.5533 H   0  0  0  0  0  0  0  0  0  0  0  0
   -9.4195    2.3878   -7.2337 H   0  0  0  0  0  0  0  0  0  0  0  0
  1  2  1  0  0  0  0
  1  3  2  0  0  0  0
  2  5  2  0  0  0  0
  3  4  1  0  0  0  0
  3  7  1  0  0  0  0
  4  8  1  0  0  0  0
  4 13  2  0  0  0  0
  5 13  1  0  0  0  0
  5 15  1  0  0  0  0
  6 14  1  0  0  0  0
  6 16  2  0  0  0  0
  6 17  1  0  0  0  0
  7 14  1  0  0  0  0
  8 14  1  0  0  0  0
  9 12  1  0  0  0  0
 10 12  1  0  0  0  0
 11 12  1  0  0  0  0
 12 17  1  0  0  0  0
  1 18  1  0  0  0  0
  2 19  1  0  0  0  0
  7 20  1  0  0  0  0
  7 21  1  0  0  0  0
  8 22  1  0  0  0  0
  8 23  1  0  0  0  0
  9 24  1  0  0  0  0
  9 25  1  0  0  0  0
  9 26  1  0  0  0  0
 10 27  1  0  0  0  0
 10 28  1  0  0  0  0
 10 29  1  0  0  0  0
 11 30  1  0  0  0  0
 11 31  1  0  0  0  0
 11 32  1  0  0  0  0
 15 33  1  0  0  0  0
 15 34  1  0  0  0  0
M  END
> <id>
EN300-12707729

> <smiles>
CC(C)(C)OC(=O)N1CC=2C=CC(N)=NC2C1

> <MDLNUMBER>
MFCD27635029

> <IUPAC Name>
tert-butyl 2-amino-5H,6H,7H-pyrrolo[3,4-b]pyridine-6-carboxylate

> <CAS>
1174020-37-1

> <Purity>
95

> <URL>
https://www.enaminestore.com/catalog/EN300-12707729

> <ROCS_ShapeQuery>
_x0404_0B

> <ROCS_TanimotoCombo>
0.371 

> <ROCS_ShapeTanimoto>
0.302 

> <ROCS_ColorTanimoto>
0.069 

> <ROCS_RefTversky>
0.270 

> <ROCS_RefColorTversky>
0.074 

> <ROCS_RefTverskyCombo>
0.343 

> <ROCS_FitTversky>
1.668 

> <ROCS_FitColorTversky>
0.508 

> <ROCS_FitTverskyCombo>
2.177 

> <ROCS_ColorScore>
-5.316

> <ROCS_Overlap>
1797.777

> <ROCS_Rank>
364                 

$$$$
untitled-dbase-50611_47
  -OEChem-08212314543D

 37 38  0     0  0  0  0  0  0999 V2000
   -8.8924    4.1665   -8.0701 C   0  0  0  0  0  0  0  0  0  0  0  0
   -9.0298    5.3836  -10.1797 C   0  0  0  0  0  0  0  0  0  0  0  0
   -8.8234    5.3249   -8.7422 C   0  0  0  0  0  0  0  0  0  0  0  0
   -9.2770    4.2411  -10.8509 C   0  0  0  0  0  0  0  0  0  0  0  0
   -9.1813    2.9068   -8.8076 C   0  0  0  0  0  0  0  0  0  0  0  0
   -8.5988    5.5334  -14.2763 C   0  0  0  0  0  0  0  0  0  0  0  0
   -8.9732    6.7134  -10.8855 C   0  0  0  0  0  0  0  0  0  0  0  0
   -9.4691    4.1682  -12.3408 C   0  0  0  0  0  0  0  0  0  0  0  0
   -9.5688    6.6550  -12.2910 C   0  0  0  0  0  0  0  0  0  0  0  0
   -7.6962    5.2380  -16.9761 C   0  0  0  0  0  0  0  0  0  0  0  0
   -9.5035    3.5075  -17.1957 C   0  0  0  0  0  0  0  0  0  0  0  0
  -10.1096    5.8913  -16.6878 C   0  0  0  0  0  0  0  0  0  0  0  0
   -9.0716    4.7885  -16.4853 C   0  0  0  0  0  0  0  0  0  0  0  0
   -9.3501    3.0407  -10.1738 N   0  0  0  0  0  0  0  0  0  0  0  0
   -9.1480    5.4449  -12.9920 N   0  0  0  0  0  0  0  0  0  0  0  0
   -9.2527    1.8382   -8.2062 O   0  0  0  0  0  0  0  0  0  0  0  0
   -7.8557    6.4380  -14.6525 O   0  0  0  0  0  0  0  0  0  0  0  0
   -8.5476    6.5239   -8.1204 O   0  0  0  0  0  0  0  0  0  0  0  0
   -8.9832    4.4970  -15.0858 O   0  0  0  0  0  0  0  0  0  0  0  0
   -8.7322    4.1062   -6.9998 H   0  0  0  0  0  0  0  0  0  0  0  0
   -9.5328    7.4730  -10.3264 H   0  0  0  0  0  0  0  0  0  0  0  0
   -7.9284    7.0429  -10.9458 H   0  0  0  0  0  0  0  0  0  0  0  0
   -8.8449    3.3712  -12.7574 H   0  0  0  0  0  0  0  0  0  0  0  0
  -10.5146    3.9377  -12.5761 H   0  0  0  0  0  0  0  0  0  0  0  0
  -10.6648    6.6304  -12.2414 H   0  0  0  0  0  0  0  0  0  0  0  0
   -9.2914    7.5534  -12.8519 H   0  0  0  0  0  0  0  0  0  0  0  0
   -7.3826    6.1572  -16.4686 H   0  0  0  0  0  0  0  0  0  0  0  0
   -6.9356    4.4693  -16.8046 H   0  0  0  0  0  0  0  0  0  0  0  0
   -7.7195    5.4689  -18.0473 H   0  0  0  0  0  0  0  0  0  0  0  0
  -10.4899    3.1813  -16.8466 H   0  0  0  0  0  0  0  0  0  0  0  0
   -8.8112    2.6867  -16.9756 H   0  0  0  0  0  0  0  0  0  0  0  0
   -9.5472    3.6425  -18.2812 H   0  0  0  0  0  0  0  0  0  0  0  0
  -11.0963    5.5692  -16.3358 H   0  0  0  0  0  0  0  0  0  0  0  0
   -9.8345    6.8070  -16.1545 H   0  0  0  0  0  0  0  0  0  0  0  0
  -10.2233    6.1288  -17.7518 H   0  0  0  0  0  0  0  0  0  0  0  0
   -9.5416    2.2040  -10.7177 H   0  0  0  0  0  0  0  0  0  0  0  0
   -8.4232    6.3788   -7.1780 H   0  0  0  0  0  0  0  0  0  0  0  0
  1  3  2  0  0  0  0
  1  5  1  0  0  0  0
  2  3  1  0  0  0  0
  2  4  2  0  0  0  0
  2  7  1  0  0  0  0
  3 18  1  0  0  0  0
  4  8  1  0  0  0  0
  4 14  1  0  0  0  0
  5 14  1  0  0  0  0
  5 16  2  0  0  0  0
  6 15  1  0  0  0  0
  6 17  2  0  0  0  0
  6 19  1  0  0  0  0
  7  9  1  0  0  0  0
  8 15  1  0  0  0  0
  9 15  1  0  0  0  0
 10 13  1  0  0  0  0
 11 13  1  0  0  0  0
 12 13  1  0  0  0  0
 13 19  1  0  0  0  0
  1 20  1  0  0  0  0
  7 21  1  0  0  0  0
  7 22  1  0  0  0  0
  8 23  1  0  0  0  0
  8 24  1  0  0  0  0
  9 25  1  0  0  0  0
  9 26  1  0  0  0  0
 10 27  1  0  0  0  0
 10 28  1  0  0  0  0
 10 29  1  0  0  0  0
 11 30  1  0  0  0  0
 11 31  1  0  0  0  0
 11 32  1  0  0  0  0
 12 33  1  0  0  0  0
 12 34  1  0  0  0  0
 12 35  1  0  0  0  0
 14 36  1  0  0  0  0
 18 37  1  0  0  0  0
M  END
> <id>
EN300-37398037

> <smiles>
CC(C)(C)OC(=O)N1CCC=2C(O)=CC(=O)NC2C1

> <IUPAC Name>
tert-butyl 4-hydroxy-2-oxo-1,2,5,6,7,8-hexahydro-1,7-naphthyridine-7-carboxylate

> <CAS>
2770534-07-9

> <URL>
https://www.enaminestore.com/catalog/EN300-37398037

> <ROCS_ShapeQuery>
_x0404_0B

> <ROCS_TanimotoCombo>
0.371 

> <ROCS_ShapeTanimoto>
0.307 

> <ROCS_ColorTanimoto>
0.064 

> <ROCS_RefTversky>
0.276 

> <ROCS_RefColorTversky>
0.070 

> <ROCS_RefTverskyCombo>
0.346 

> <ROCS_FitTversky>
1.587 

> <ROCS_FitColorTversky>
0.443 

> <ROCS_FitTverskyCombo>
2.029 

> <ROCS_ColorScore>
-5.040

> <ROCS_Overlap>
1838.593

> <ROCS_Rank>
365                 

$$$$
untitled-dbase-38008_122
  -OEChem-08212314543D

 45 46  0     1  0  0  0  0  0999 V2000
   -8.6547    5.5904  -14.2416 C   0  0  0  0  0  0  0  0  0  0  0  0
   -8.6242    4.9356   -7.6104 C   0  0  0  0  0  0  0  0  0  0  0  0
   -9.9267    4.1866   -7.8999 C   0  0  0  0  0  0  0  0  0  0  0  0
   -7.7989    4.8894   -8.9015 C   0  0  0  0  0  0  0  0  0  0  0  0
   -7.9625    3.7035  -11.1482 C   0  0  0  0  0  0  0  0  0  0  0  0
   -9.6134    5.5524  -10.5576 C   0  0  0  0  0  0  0  0  0  0  0  0
   -8.6639    3.8361  -12.4948 C   0  0  0  0  0  0  0  0  0  0  0  0
   -9.0137    6.2065  -11.8003 C   0  0  0  0  0  0  0  0  0  0  0  0
   -9.6698    3.4036   -9.1941 C   0  0  1  0  0  0  0  0  0  0  0  0
   -8.7552    4.3746  -10.0021 C   0  0  0  0  0  0  0  0  0  0  0  0
   -9.5609    3.5489  -17.2679 C   0  0  0  0  0  0  0  0  0  0  0  0
   -9.8911    6.0135  -16.9438 C   0  0  0  0  0  0  0  0  0  0  0  0
   -7.5756    5.0522  -16.9969 C   0  0  0  0  0  0  0  0  0  0  0  0
   -9.0270    4.8048  -16.5695 C   0  0  0  0  0  0  0  0  0  0  0  0
   -8.7819    5.2427  -12.8839 N   0  0  0  0  0  0  0  0  0  0  0  0
   -9.0393    2.1221   -8.8620 N   0  0  0  0  0  0  0  0  0  0  0  0
   -9.0773    4.6132  -15.1379 N   0  0  0  0  0  0  0  0  0  0  0  0
   -8.2113    6.6799  -14.6169 O   0  0  0  0  0  0  0  0  0  0  0  0
   -8.8146    5.9714   -7.3097 H   0  0  0  0  0  0  0  0  0  0  0  0
   -8.0867    4.4502   -6.7882 H   0  0  0  0  0  0  0  0  0  0  0  0
  -10.1596    3.5166   -7.0616 H   0  0  0  0  0  0  0  0  0  0  0  0
  -10.7747    4.8740   -8.0054 H   0  0  0  0  0  0  0  0  0  0  0  0
   -7.4612    5.9087   -9.1381 H   0  0  0  0  0  0  0  0  0  0  0  0
   -6.8965    4.2827   -8.7733 H   0  0  0  0  0  0  0  0  0  0  0  0
   -7.8419    2.6344  -10.9410 H   0  0  0  0  0  0  0  0  0  0  0  0
   -6.9551    4.1212  -11.2338 H   0  0  0  0  0  0  0  0  0  0  0  0
   -9.7490    6.3128   -9.7794 H   0  0  0  0  0  0  0  0  0  0  0  0
  -10.6164    5.1830  -10.8050 H   0  0  0  0  0  0  0  0  0  0  0  0
   -8.1028    3.3334  -13.2807 H   0  0  0  0  0  0  0  0  0  0  0  0
   -9.6423    3.3644  -12.4408 H   0  0  0  0  0  0  0  0  0  0  0  0
   -9.6926    7.0066  -12.1096 H   0  0  0  0  0  0  0  0  0  0  0  0
   -8.0464    6.6731  -11.5698 H   0  0  0  0  0  0  0  0  0  0  0  0
  -10.5722    3.2256   -9.6976 H   0  0  0  0  0  0  0  0  0  0  0  0
   -8.9582    2.6687  -17.0156 H   0  0  0  0  0  0  0  0  0  0  0  0
  -10.5970    3.3414  -16.9782 H   0  0  0  0  0  0  0  0  0  0  0  0
   -9.5309    3.6602  -18.3581 H   0  0  0  0  0  0  0  0  0  0  0  0
   -9.5281    6.9254  -16.4554 H   0  0  0  0  0  0  0  0  0  0  0  0
  -10.9308    5.8691  -16.6278 H   0  0  0  0  0  0  0  0  0  0  0  0
   -9.8883    6.1864  -18.0257 H   0  0  0  0  0  0  0  0  0  0  0  0
   -7.1678    5.9463  -16.5113 H   0  0  0  0  0  0  0  0  0  0  0  0
   -6.9330    4.2039  -16.7367 H   0  0  0  0  0  0  0  0  0  0  0  0
   -7.5029    5.2098  -18.0793 H   0  0  0  0  0  0  0  0  0  0  0  0
   -9.6588    1.6069   -8.2798 H   0  0  0  0  0  0  0  0  0  0  0  0
   -8.8658    1.6279   -9.7070 H   0  0  0  0  0  0  0  0  0  0  0  0
   -9.4324    3.7375  -14.7732 H   0  0  0  0  0  0  0  0  0  0  0  0
  1 15  1  0  0  0  0
  1 17  1  0  0  0  0
  1 18  2  0  0  0  0
  2  3  1  0  0  0  0
  2  4  1  0  0  0  0
  3  9  1  0  0  0  0
  4 10  1  0  0  0  0
  5  7  1  0  0  0  0
  5 10  1  0  0  0  0
  6  8  1  0  0  0  0
  6 10  1  0  0  0  0
  7 15  1  0  0  0  0
  8 15  1  0  0  0  0
  9 10  1  0  0  0  0
  9 16  1  0  0  0  0
 11 14  1  0  0  0  0
 12 14  1  0  0  0  0
 13 14  1  0  0  0  0
 14 17  1  0  0  0  0
  2 19  1  0  0  0  0
  2 20  1  0  0  0  0
  3 21  1  0  0  0  0
  3 22  1  0  0  0  0
  4 23  1  0  0  0  0
  4 24  1  0  0  0  0
  5 25  1  0  0  0  0
  5 26  1  0  0  0  0
  6 27  1  0  0  0  0
  6 28  1  0  0  0  0
  7 29  1  0  0  0  0
  7 30  1  0  0  0  0
  8 31  1  0  0  0  0
  8 32  1  0  0  0  0
  9 33  1  0  0  0  0
 11 34  1  0  0  0  0
 11 35  1  0  0  0  0
 11 36  1  0  0  0  0
 12 37  1  0  0  0  0
 12 38  1  0  0  0  0
 12 39  1  0  0  0  0
 13 40  1  0  0  0  0
 13 41  1  0  0  0  0
 13 42  1  0  0  0  0
 16 43  1  0  0  0  0
 16 44  1  0  0  0  0
 17 45  1  0  0  0  0
M  END
> <id>
EN300-764800

> <smiles>
CC(C)(C)NC(=O)N1CCC2(CCCC2N)CC1

> <IUPAC Name>
1-amino-N-tert-butyl-8-azaspiro[4.5]decane-8-carboxamide

> <CAS>
2138250-60-7

> <URL>
https://www.enaminestore.com/catalog/EN300-764800

> <ROCS_ShapeQuery>
_x0404_0B

> <ROCS_TanimotoCombo>
0.371 

> <ROCS_ShapeTanimoto>
0.289 

> <ROCS_ColorTanimoto>
0.082 

> <ROCS_RefTversky>
0.260 

> <ROCS_RefColorTversky>
0.087 

> <ROCS_RefTverskyCombo>
0.347 

> <ROCS_FitTversky>
1.605 

> <ROCS_FitColorTversky>
0.601 

> <ROCS_FitTverskyCombo>
2.206 

> <ROCS_ColorScore>
-6.272

> <ROCS_Overlap>
1735.226

> <ROCS_Rank>
366                 

$$$$
untitled-dbase-8789_0
  -OEChem-08212314543D

 34 37  0     0  0  0  0  0  0999 V2000
   -9.1756    5.9353   -8.1193 C   0  0  0  0  0  0  0  0  0  0  0  0
   -9.0390    6.3794   -9.4353 C   0  0  0  0  0  0  0  0  0  0  0  0
   -8.9242    3.1642  -11.2754 C   0  0  0  0  0  0  0  0  0  0  0  0
   -8.7890    3.5919  -12.6007 C   0  0  0  0  0  0  0  0  0  0  0  0
   -9.2296    4.5733   -7.8484 C   0  0  0  0  0  0  0  0  0  0  0  0
   -8.9547    5.4668  -10.5091 C   0  0  0  0  0  0  0  0  0  0  0  0
   -9.0100    4.0856  -10.2227 C   0  0  0  0  0  0  0  0  0  0  0  0
   -8.7390    4.9534  -12.9189 C   0  0  0  0  0  0  0  0  0  0  0  0
   -8.8161    5.8614  -11.8618 C   0  0  0  0  0  0  0  0  0  0  0  0
   -9.1470    3.6537   -8.8926 C   0  0  0  0  0  0  0  0  0  0  0  0
   -8.5998    5.4628  -14.2952 C   0  0  0  0  0  0  0  0  0  0  0  0
   -8.5005    6.7881  -14.5120 C   0  0  0  0  0  0  0  0  0  0  0  0
   -8.5792    7.7665  -13.3994 C   0  0  0  0  0  0  0  0  0  0  0  0
   -8.5723    4.4701  -15.4384 C   0  0  0  0  0  0  0  0  0  0  0  0
   -8.2969    7.3825  -15.8854 C   0  0  0  0  0  0  0  0  0  0  0  0
   -8.7163    5.1015  -16.8248 C   0  0  0  0  0  0  0  0  0  0  0  0
   -7.8731    6.3604  -16.9378 C   0  0  0  0  0  0  0  0  0  0  0  0
   -8.5089    8.9767  -13.5863 O   0  0  0  0  0  0  0  0  0  0  0  0
   -8.7481    7.2482  -12.1260 O   0  0  0  0  0  0  0  0  0  0  0  0
   -9.2040    2.3252   -8.5780 O   0  0  0  0  0  0  0  0  0  0  0  0
   -9.2392    6.6545   -7.3079 H   0  0  0  0  0  0  0  0  0  0  0  0
   -9.0000    7.4519   -9.6133 H   0  0  0  0  0  0  0  0  0  0  0  0
   -8.9590    2.0927  -11.0882 H   0  0  0  0  0  0  0  0  0  0  0  0
   -8.7202    2.8264  -13.3689 H   0  0  0  0  0  0  0  0  0  0  0  0
   -9.3353    4.2328   -6.8220 H   0  0  0  0  0  0  0  0  0  0  0  0
   -7.6249    3.9171  -15.3980 H   0  0  0  0  0  0  0  0  0  0  0  0
   -9.3840    3.7401  -15.3328 H   0  0  0  0  0  0  0  0  0  0  0  0
   -9.2348    7.8580  -16.1991 H   0  0  0  0  0  0  0  0  0  0  0  0
   -7.5330    8.1684  -15.8505 H   0  0  0  0  0  0  0  0  0  0  0  0
   -8.4202    4.3775  -17.5922 H   0  0  0  0  0  0  0  0  0  0  0  0
   -9.7696    5.3485  -17.0094 H   0  0  0  0  0  0  0  0  0  0  0  0
   -7.9743    6.7961  -17.9383 H   0  0  0  0  0  0  0  0  0  0  0  0
   -6.8136    6.1071  -16.8048 H   0  0  0  0  0  0  0  0  0  0  0  0
   -9.2988    2.2156   -7.6202 H   0  0  0  0  0  0  0  0  0  0  0  0
  1  2  2  0  0  0  0
  1  5  1  0  0  0  0
  2  6  1  0  0  0  0
  3  4  2  0  0  0  0
  3  7  1  0  0  0  0
  4  8  1  0  0  0  0
  5 10  2  0  0  0  0
  6  7  2  0  0  0  0
  6  9  1  0  0  0  0
  7 10  1  0  0  0  0
  8  9  2  0  0  0  0
  8 11  1  0  0  0  0
  9 19  1  0  0  0  0
 10 20  1  0  0  0  0
 11 12  2  0  0  0  0
 11 14  1  0  0  0  0
 12 13  1  0  0  0  0
 12 15  1  0  0  0  0
 13 18  2  0  0  0  0
 13 19  1  0  0  0  0
 14 16  1  0  0  0  0
 15 17  1  0  0  0  0
 16 17  1  0  0  0  0
  1 21  1  0  0  0  0
  2 22  1  0  0  0  0
  3 23  1  0  0  0  0
  4 24  1  0  0  0  0
  5 25  1  0  0  0  0
 14 26  1  0  0  0  0
 14 27  1  0  0  0  0
 15 28  1  0  0  0  0
 15 29  1  0  0  0  0
 16 30  1  0  0  0  0
 16 31  1  0  0  0  0
 17 32  1  0  0  0  0
 17 33  1  0  0  0  0
 20 34  1  0  0  0  0
M  END
> <id>
EN300-303112

> <smiles>
OC1=CC=CC=2C1=CC=C3C=4CCCCC4C(=O)OC32

> <MDLNUMBER>
MFCD06623747

> <IUPAC Name>
15-hydroxy-9-oxatetracyclo[8.8.0.0^{2,7}.0^{11,16}]octadeca-1(10),2(7),11,13,15,17-hexaen-8-one

> <CAS>
5408-46-8

> <URL>
https://www.enaminestore.com/catalog/EN300-303112

> <ROCS_ShapeQuery>
_x0404_0B

> <ROCS_TanimotoCombo>
0.371 

> <ROCS_ShapeTanimoto>
0.304 

> <ROCS_ColorTanimoto>
0.067 

> <ROCS_RefTversky>
0.276 

> <ROCS_RefColorTversky>
0.072 

> <ROCS_RefTverskyCombo>
0.348 

> <ROCS_FitTversky>
1.490 

> <ROCS_FitColorTversky>
0.495 

> <ROCS_FitTverskyCombo>
1.986 

> <ROCS_ColorScore>
-5.174

> <ROCS_Overlap>
1844.161

> <ROCS_Rank>
367                 

$$$$
untitled-dbase-38769_79
  -OEChem-08212314543D

 39 41  0     0  0  0  0  0  0999 V2000
  -10.1174    2.8825   -8.3002 C   0  0  0  0  0  0  0  0  0  0  0  0
   -8.3489    4.1512   -8.4676 C   0  0  0  0  0  0  0  0  0  0  0  0
   -8.2651    5.7970  -14.2808 C   0  0  0  0  0  0  0  0  0  0  0  0
   -7.4176    5.1608   -9.0335 C   0  0  0  0  0  0  0  0  0  0  0  0
   -8.1299    6.1119  -10.0032 C   0  0  0  0  0  0  0  0  0  0  0  0
  -10.0997    4.5307  -10.2112 C   0  0  0  0  0  0  0  0  0  0  0  0
   -9.6058    6.1712  -12.1274 C   0  0  0  0  0  0  0  0  0  0  0  0
   -8.2515    4.5026  -12.0484 C   0  0  0  0  0  0  0  0  0  0  0  0
   -9.0247    5.3157  -10.9734 C   0  0  0  0  0  0  0  0  0  0  0  0
   -7.3177    5.8003  -16.9746 C   0  0  0  0  0  0  0  0  0  0  0  0
   -7.5838    3.3046  -16.8758 C   0  0  0  0  0  0  0  0  0  0  0  0
   -9.5925    4.7881  -16.6067 C   0  0  0  0  0  0  0  0  0  0  0  0
   -8.0937    4.6434  -16.3469 C   0  0  0  0  0  0  0  0  0  0  0  0
   -9.3124    2.5779   -7.3058 N   0  0  0  0  0  0  0  0  0  0  0  0
   -8.1906    3.3811   -7.4112 N   0  0  0  0  0  0  0  0  0  0  0  0
   -9.5488    3.8568   -9.0518 N   0  0  0  0  0  0  0  0  0  0  0  0
   -8.6419    5.5273  -12.9945 N   0  0  0  0  0  0  0  0  0  0  0  0
   -8.2787    6.9168  -14.7842 O   0  0  0  0  0  0  0  0  0  0  0  0
   -7.8725    4.6608  -14.9323 O   0  0  0  0  0  0  0  0  0  0  0  0
  -11.0840    2.4453   -8.5049 H   0  0  0  0  0  0  0  0  0  0  0  0
   -6.9528    5.7378   -8.2261 H   0  0  0  0  0  0  0  0  0  0  0  0
   -6.6123    4.6321   -9.5582 H   0  0  0  0  0  0  0  0  0  0  0  0
   -8.7481    6.8238   -9.4397 H   0  0  0  0  0  0  0  0  0  0  0  0
   -7.3836    6.7027  -10.5487 H   0  0  0  0  0  0  0  0  0  0  0  0
  -10.8739    5.2072   -9.8270 H   0  0  0  0  0  0  0  0  0  0  0  0
  -10.5828    3.7739  -10.8410 H   0  0  0  0  0  0  0  0  0  0  0  0
  -10.6466    5.9710  -12.4004 H   0  0  0  0  0  0  0  0  0  0  0  0
   -9.4437    7.2524  -12.0579 H   0  0  0  0  0  0  0  0  0  0  0  0
   -7.1647    4.4469  -11.9261 H   0  0  0  0  0  0  0  0  0  0  0  0
   -8.6491    3.5098  -12.2787 H   0  0  0  0  0  0  0  0  0  0  0  0
   -7.6807    6.7631  -16.5975 H   0  0  0  0  0  0  0  0  0  0  0  0
   -6.2454    5.7271  -16.7659 H   0  0  0  0  0  0  0  0  0  0  0  0
   -7.4581    5.8212  -18.0614 H   0  0  0  0  0  0  0  0  0  0  0  0
   -8.1378    2.4716  -16.4281 H   0  0  0  0  0  0  0  0  0  0  0  0
   -6.5315    3.1545  -16.6085 H   0  0  0  0  0  0  0  0  0  0  0  0
   -7.6778    3.2380  -17.9645 H   0  0  0  0  0  0  0  0  0  0  0  0
  -10.1493    3.9583  -16.1565 H   0  0  0  0  0  0  0  0  0  0  0  0
   -9.9833    5.7269  -16.2011 H   0  0  0  0  0  0  0  0  0  0  0  0
   -9.8064    4.7571  -17.6812 H   0  0  0  0  0  0  0  0  0  0  0  0
  1 14  2  0  0  0  0
  1 16  1  0  0  0  0
  2  4  1  0  0  0  0
  2 15  2  0  0  0  0
  2 16  1  0  0  0  0
  3 17  1  0  0  0  0
  3 18  2  0  0  0  0
  3 19  1  0  0  0  0
  4  5  1  0  0  0  0
  5  9  1  0  0  0  0
  6  9  1  0  0  0  0
  6 16  1  0  0  0  0
  7  9  1  0  0  0  0
  7 17  1  0  0  0  0
  8  9  1  0  0  0  0
  8 17  1  0  0  0  0
 10 13  1  0  0  0  0
 11 13  1  0  0  0  0
 12 13  1  0  0  0  0
 13 19  1  0  0  0  0
 14 15  1  0  0  0  0
  1 20  1  0  0  0  0
  4 21  1  0  0  0  0
  4 22  1  0  0  0  0
  5 23  1  0  0  0  0
  5 24  1  0  0  0  0
  6 25  1  0  0  0  0
  6 26  1  0  0  0  0
  7 27  1  0  0  0  0
  7 28  1  0  0  0  0
  8 29  1  0  0  0  0
  8 30  1  0  0  0  0
 10 31  1  0  0  0  0
 10 32  1  0  0  0  0
 10 33  1  0  0  0  0
 11 34  1  0  0  0  0
 11 35  1  0  0  0  0
 11 36  1  0  0  0  0
 12 37  1  0  0  0  0
 12 38  1  0  0  0  0
 12 39  1  0  0  0  0
M  END
> <id>
EN300-380236

> <smiles>
CC(C)(C)OC(=O)N1CC2(C1)CCC3=NN=CN3C2

> <MDLNUMBER>
MFCD30750251

> <IUPAC Name>
tert-butyl 7,8-dihydro-5H-spiro[[1,2,4]triazolo[4,3-a]pyridine-6,3'-azetidine]-1'-carboxylate

> <CAS>
2138137-75-2

> <Purity>
95

> <URL>
https://www.enaminestore.com/catalog/EN300-380236

> <ROCS_ShapeQuery>
_x0404_0B

> <ROCS_TanimotoCombo>
0.371 

> <ROCS_ShapeTanimoto>
0.301 

> <ROCS_ColorTanimoto>
0.070 

> <ROCS_RefTversky>
0.272 

> <ROCS_RefColorTversky>
0.075 

> <ROCS_RefTverskyCombo>
0.347 

> <ROCS_FitTversky>
1.542 

> <ROCS_FitColorTversky>
0.506 

> <ROCS_FitTverskyCombo>
2.048 

> <ROCS_ColorScore>
-5.434

> <ROCS_Overlap>
1812.654

> <ROCS_Rank>
368                 

$$$$
untitled-dbase-14597_129
  -OEChem-08212314543D

 45 47  0     0  0  0  0  0  0999 V2000
   -8.9765    2.8676   -7.4864 C   0  0  0  0  0  0  0  0  0  0  0  0
   -9.1387    2.2081   -8.6871 C   0  0  0  0  0  0  0  0  0  0  0  0
   -8.8947    4.2388   -7.8084 C   0  0  0  0  0  0  0  0  0  0  0  0
   -9.0174    4.3171   -9.1768 C   0  0  0  0  0  0  0  0  0  0  0  0
   -8.6361    5.4849  -14.3992 C   0  0  0  0  0  0  0  0  0  0  0  0
   -8.7292    5.4597   -6.9856 C   0  0  0  0  0  0  0  0  0  0  0  0
  -10.2152    5.6084  -10.9637 C   0  0  0  0  0  0  0  0  0  0  0  0
   -7.6600    5.5982  -10.8400 C   0  0  0  0  0  0  0  0  0  0  0  0
   -8.2843    6.6372   -7.8816 C   0  0  0  0  0  0  0  0  0  0  0  0
   -9.9598    4.9686  -12.3269 C   0  0  0  0  0  0  0  0  0  0  0  0
   -7.8318    6.2809  -12.1931 C   0  0  0  0  0  0  0  0  0  0  0  0
   -8.9788    5.5531  -10.0248 C   0  0  0  0  0  0  0  0  0  0  0  0
   -7.5153    4.1475  -16.6662 C   0  0  0  0  0  0  0  0  0  0  0  0
   -9.6381    2.8049  -16.6920 C   0  0  0  0  0  0  0  0  0  0  0  0
   -9.7258    5.2901  -17.0438 C   0  0  0  0  0  0  0  0  0  0  0  0
   -9.0059    4.1470  -16.3299 C   0  0  0  0  0  0  0  0  0  0  0  0
   -9.0766    6.7495   -9.1273 N   0  0  0  0  0  0  0  0  0  0  0  0
   -8.8168    5.5775  -13.0157 N   0  0  0  0  0  0  0  0  0  0  0  0
   -8.0723    6.3366  -15.0836 O   0  0  0  0  0  0  0  0  0  0  0  0
   -9.1615    3.0872   -9.7282 O   0  0  0  0  0  0  0  0  0  0  0  0
   -9.1542    4.3266  -14.9169 O   0  0  0  0  0  0  0  0  0  0  0  0
   -8.9243    2.4099   -6.5089 H   0  0  0  0  0  0  0  0  0  0  0  0
   -9.2480    1.1677   -8.9567 H   0  0  0  0  0  0  0  0  0  0  0  0
   -9.6635    5.7150   -6.4771 H   0  0  0  0  0  0  0  0  0  0  0  0
   -7.9680    5.2732   -6.2204 H   0  0  0  0  0  0  0  0  0  0  0  0
  -10.5002    6.6545  -11.1341 H   0  0  0  0  0  0  0  0  0  0  0  0
  -11.0802    5.1195  -10.5014 H   0  0  0  0  0  0  0  0  0  0  0  0
   -7.2651    4.5925  -10.9898 H   0  0  0  0  0  0  0  0  0  0  0  0
   -6.9079    6.1623  -10.2826 H   0  0  0  0  0  0  0  0  0  0  0  0
   -8.3367    7.5809   -7.3214 H   0  0  0  0  0  0  0  0  0  0  0  0
   -7.2287    6.4961   -8.1480 H   0  0  0  0  0  0  0  0  0  0  0  0
   -9.7473    3.8955  -12.2303 H   0  0  0  0  0  0  0  0  0  0  0  0
  -10.8639    5.0514  -12.9443 H   0  0  0  0  0  0  0  0  0  0  0  0
   -8.1203    7.3230  -12.0341 H   0  0  0  0  0  0  0  0  0  0  0  0
   -6.8939    6.2983  -12.7557 H   0  0  0  0  0  0  0  0  0  0  0  0
   -7.0578    5.1092  -16.4078 H   0  0  0  0  0  0  0  0  0  0  0  0
   -6.9813    3.3540  -16.1333 H   0  0  0  0  0  0  0  0  0  0  0  0
   -7.3572    4.0090  -17.7419 H   0  0  0  0  0  0  0  0  0  0  0  0
  -10.7075    2.8001  -16.4523 H   0  0  0  0  0  0  0  0  0  0  0  0
   -9.1879    1.9919  -16.1108 H   0  0  0  0  0  0  0  0  0  0  0  0
   -9.5202    2.5768  -17.7562 H   0  0  0  0  0  0  0  0  0  0  0  0
  -10.7950    5.2901  -16.8027 H   0  0  0  0  0  0  0  0  0  0  0  0
   -9.3093    6.2642  -16.7674 H   0  0  0  0  0  0  0  0  0  0  0  0
   -9.6541    5.1768  -18.1316 H   0  0  0  0  0  0  0  0  0  0  0  0
  -10.0508    6.9216   -8.8926 H   0  0  0  0  0  0  0  0  0  0  0  0
  1  2  2  0  0  0  0
  1  3  1  0  0  0  0
  2 20  1  0  0  0  0
  3  4  2  0  0  0  0
  3  6  1  0  0  0  0
  4 12  1  0  0  0  0
  4 20  1  0  0  0  0
  5 18  1  0  0  0  0
  5 19  2  0  0  0  0
  5 21  1  0  0  0  0
  6  9  1  0  0  0  0
  7 10  1  0  0  0  0
  7 12  1  0  0  0  0
  8 11  1  0  0  0  0
  8 12  1  0  0  0  0
  9 17  1  0  0  0  0
 10 18  1  0  0  0  0
 11 18  1  0  0  0  0
 12 17  1  0  0  0  0
 13 16  1  0  0  0  0
 14 16  1  0  0  0  0
 15 16  1  0  0  0  0
 16 21  1  0  0  0  0
  1 22  1  0  0  0  0
  2 23  1  0  0  0  0
  6 24  1  0  0  0  0
  6 25  1  0  0  0  0
  7 26  1  0  0  0  0
  7 27  1  0  0  0  0
  8 28  1  0  0  0  0
  8 29  1  0  0  0  0
  9 30  1  0  0  0  0
  9 31  1  0  0  0  0
 10 32  1  0  0  0  0
 10 33  1  0  0  0  0
 11 34  1  0  0  0  0
 11 35  1  0  0  0  0
 13 36  1  0  0  0  0
 13 37  1  0  0  0  0
 13 38  1  0  0  0  0
 14 39  1  0  0  0  0
 14 40  1  0  0  0  0
 14 41  1  0  0  0  0
 15 42  1  0  0  0  0
 15 43  1  0  0  0  0
 15 44  1  0  0  0  0
 17 45  1  0  0  0  0
M  END
> <id>
EN300-1076783

> <smiles>
CC(C)(C)OC(=O)N1CCC2(CC1)NCCC=3C=COC32

> <IUPAC Name>
tert-butyl 5,6-dihydro-4H-spiro[furo[2,3-c]pyridine-7,4'-piperidine]-1'-carboxylate

> <CAS>
2107168-74-9

> <URL>
https://www.enaminestore.com/catalog/EN300-1076783

> <ROCS_ShapeQuery>
_x0404_0B

> <ROCS_TanimotoCombo>
0.371 

> <ROCS_ShapeTanimoto>
0.298 

> <ROCS_ColorTanimoto>
0.073 

> <ROCS_RefTversky>
0.272 

> <ROCS_RefColorTversky>
0.079 

> <ROCS_RefTverskyCombo>
0.351 

> <ROCS_FitTversky>
1.453 

> <ROCS_FitColorTversky>
0.499 

> <ROCS_FitTverskyCombo>
1.952 

> <ROCS_ColorScore>
-5.683

> <ROCS_Overlap>
1817.582

> <ROCS_Rank>
369                 

$$$$
untitled-dbase-26110_132
  -OEChem-08212314543D

 45 46  0     1  0  0  0  0  0999 V2000
   -8.5652    5.5889  -14.3358 C   0  0  0  0  0  0  0  0  0  0  0  0
   -8.6757    4.5940   -7.1771 C   0  0  0  0  0  0  0  0  0  0  0  0
   -7.6047    3.8861   -7.9991 C   0  0  0  0  0  0  0  0  0  0  0  0
   -7.9051    5.4523  -10.6340 C   0  0  0  0  0  0  0  0  0  0  0  0
   -9.7694    3.8586  -11.2944 C   0  0  0  0  0  0  0  0  0  0  0  0
   -8.3754    6.1730  -11.8952 C   0  0  0  0  0  0  0  0  0  0  0  0
   -9.0030    3.8657  -12.6100 C   0  0  0  0  0  0  0  0  0  0  0  0
   -9.4372    5.6036   -8.0210 C   0  0  0  0  0  0  0  0  0  0  0  0
   -8.1935    3.3016   -9.2935 C   0  0  2  0  0  0  0  0  0  0  0  0
   -8.9409    4.4135  -10.0990 C   0  0  0  0  0  0  0  0  0  0  0  0
   -7.3717    5.2957  -16.9191 C   0  0  0  0  0  0  0  0  0  0  0  0
   -9.1076    3.5243  -17.3167 C   0  0  0  0  0  0  0  0  0  0  0  0
   -9.8156    5.8973  -16.8971 C   0  0  0  0  0  0  0  0  0  0  0  0
   -8.7820    4.8189  -16.5749 C   0  0  0  0  0  0  0  0  0  0  0  0
   -8.6338    5.2294  -12.9869 N   0  0  0  0  0  0  0  0  0  0  0  0
   -9.0650    2.1771   -8.9223 N   0  0  0  0  0  0  0  0  0  0  0  0
   -8.2854    6.7164  -14.7385 O   0  0  0  0  0  0  0  0  0  0  0  0
   -9.9157    5.0493   -9.2435 O   0  0  0  0  0  0  0  0  0  0  0  0
   -8.8384    4.5381  -15.1717 O   0  0  0  0  0  0  0  0  0  0  0  0
   -9.3665    3.8637   -6.7413 H   0  0  0  0  0  0  0  0  0  0  0  0
   -8.1877    5.1192   -6.3460 H   0  0  0  0  0  0  0  0  0  0  0  0
   -6.8004    4.6006   -8.2343 H   0  0  0  0  0  0  0  0  0  0  0  0
   -7.1412    3.0928   -7.3920 H   0  0  0  0  0  0  0  0  0  0  0  0
   -6.9468    4.9618  -10.8508 H   0  0  0  0  0  0  0  0  0  0  0  0
   -7.7128    6.2079   -9.8595 H   0  0  0  0  0  0  0  0  0  0  0  0
  -10.6971    4.4330  -11.4326 H   0  0  0  0  0  0  0  0  0  0  0  0
  -10.0887    2.8253  -11.0789 H   0  0  0  0  0  0  0  0  0  0  0  0
   -9.3133    6.7106  -11.7092 H   0  0  0  0  0  0  0  0  0  0  0  0
   -7.6313    6.9211  -12.1844 H   0  0  0  0  0  0  0  0  0  0  0  0
   -8.1118    3.2379  -12.5228 H   0  0  0  0  0  0  0  0  0  0  0  0
   -9.6115    3.4568  -13.4233 H   0  0  0  0  0  0  0  0  0  0  0  0
  -10.2694    6.0493   -7.4571 H   0  0  0  0  0  0  0  0  0  0  0  0
   -8.7691    6.4372   -8.2818 H   0  0  0  0  0  0  0  0  0  0  0  0
   -7.3755    2.9282   -9.8856 H   0  0  0  0  0  0  0  0  0  0  0  0
   -7.1342    6.2248  -16.3886 H   0  0  0  0  0  0  0  0  0  0  0  0
   -6.6178    4.5451  -16.6603 H   0  0  0  0  0  0  0  0  0  0  0  0
   -7.2847    5.5195  -17.9884 H   0  0  0  0  0  0  0  0  0  0  0  0
  -10.1186    3.1785  -17.0727 H   0  0  0  0  0  0  0  0  0  0  0  0
   -8.4256    2.7205  -17.0166 H   0  0  0  0  0  0  0  0  0  0  0  0
   -9.0371    3.6517  -18.4017 H   0  0  0  0  0  0  0  0  0  0  0  0
  -10.8273    5.5555  -16.6504 H   0  0  0  0  0  0  0  0  0  0  0  0
   -9.6190    6.8221  -16.3451 H   0  0  0  0  0  0  0  0  0  0  0  0
   -9.8192    6.1256  -17.9691 H   0  0  0  0  0  0  0  0  0  0  0  0
   -9.4026    1.7610   -9.7566 H   0  0  0  0  0  0  0  0  0  0  0  0
   -8.5257    1.5305   -8.3985 H   0  0  0  0  0  0  0  0  0  0  0  0
  1 15  1  0  0  0  0
  1 17  2  0  0  0  0
  1 19  1  0  0  0  0
  2  3  1  0  0  0  0
  2  8  1  0  0  0  0
  3  9  1  0  0  0  0
  4  6  1  0  0  0  0
  4 10  1  0  0  0  0
  5  7  1  0  0  0  0
  5 10  1  0  0  0  0
  6 15  1  0  0  0  0
  7 15  1  0  0  0  0
  8 18  1  0  0  0  0
  9 10  1  0  0  0  0
  9 16  1  0  0  0  0
 10 18  1  0  0  0  0
 11 14  1  0  0  0  0
 12 14  1  0  0  0  0
 13 14  1  0  0  0  0
 14 19  1  0  0  0  0
  2 20  1  0  0  0  0
  2 21  1  0  0  0  0
  3 22  1  0  0  0  0
  3 23  1  0  0  0  0
  4 24  1  0  0  0  0
  4 25  1  0  0  0  0
  5 26  1  0  0  0  0
  5 27  1  0  0  0  0
  6 28  1  0  0  0  0
  6 29  1  0  0  0  0
  7 30  1  0  0  0  0
  7 31  1  0  0  0  0
  8 32  1  0  0  0  0
  8 33  1  0  0  0  0
  9 34  1  0  0  0  0
 11 35  1  0  0  0  0
 11 36  1  0  0  0  0
 11 37  1  0  0  0  0
 12 38  1  0  0  0  0
 12 39  1  0  0  0  0
 12 40  1  0  0  0  0
 13 41  1  0  0  0  0
 13 42  1  0  0  0  0
 13 43  1  0  0  0  0
 16 44  1  0  0  0  0
 16 45  1  0  0  0  0
M  END
> <id>
EN300-6736680

> <smiles>
CC(C)(C)OC(=O)N1CCC2(CC1)OCCCC2N

> <MDLNUMBER>
MFCD22395522

> <IUPAC Name>
tert-butyl 5-amino-1-oxa-9-azaspiro[5.5]undecane-9-carboxylate

> <CAS>
1822548-34-4

> <Purity>
95

> <URL>
https://www.enaminestore.com/catalog/EN300-6736680

> <ROCS_ShapeQuery>
_x0404_0B

> <ROCS_TanimotoCombo>
0.370 

> <ROCS_ShapeTanimoto>
0.292 

> <ROCS_ColorTanimoto>
0.078 

> <ROCS_RefTversky>
0.264 

> <ROCS_RefColorTversky>
0.083 

> <ROCS_RefTverskyCombo>
0.347 

> <ROCS_FitTversky>
1.554 

> <ROCS_FitColorTversky>
0.574 

> <ROCS_FitTverskyCombo>
2.129 

> <ROCS_ColorScore>
-5.990

> <ROCS_Overlap>
1763.194

> <ROCS_Rank>
370                 

$$$$
untitled-dbase-26741_14
  -OEChem-08212314543D

 41 42  0     0  0  0  0  0  0999 V2000
   -8.4343    5.6962  -14.4371 C   0  0  0  0  0  0  0  0  0  0  0  0
   -8.2414    4.0834  -11.0356 C   0  0  0  0  0  0  0  0  0  0  0  0
   -9.5138    6.2979  -10.9419 C   0  0  0  0  0  0  0  0  0  0  0  0
   -8.7012    4.1264  -12.4896 C   0  0  0  0  0  0  0  0  0  0  0  0
   -8.6216    6.6021  -12.1392 C   0  0  0  0  0  0  0  0  0  0  0  0
   -8.1179    5.5336   -8.9546 C   0  0  0  0  0  0  0  0  0  0  0  0
  -10.2155    4.3851   -9.4471 C   0  0  0  0  0  0  0  0  0  0  0  0
   -9.0167    5.0801  -10.1297 C   0  0  0  0  0  0  0  0  0  0  0  0
   -6.9834    5.3710  -16.8810 C   0  0  0  0  0  0  0  0  0  0  0  0
   -8.3341    3.2758  -17.1890 C   0  0  0  0  0  0  0  0  0  0  0  0
   -9.4874    5.5050  -17.0967 C   0  0  0  0  0  0  0  0  0  0  0  0
   -8.3112    4.6767  -16.5816 C   0  0  0  0  0  0  0  0  0  0  0  0
   -8.0377    4.3589   -8.0384 N   0  0  0  0  0  0  0  0  0  0  0  0
   -8.5730    5.4696  -13.0642 N   0  0  0  0  0  0  0  0  0  0  0  0
   -8.3250    6.8095  -14.9476 O   0  0  0  0  0  0  0  0  0  0  0  0
  -10.3265    4.0906   -6.8290 O   0  0  0  0  0  0  0  0  0  0  0  0
   -9.4288    2.1675   -8.2148 O   0  0  0  0  0  0  0  0  0  0  0  0
   -8.4409    4.5339  -15.1625 O   0  0  0  0  0  0  0  0  0  0  0  0
   -9.5927    3.5851   -7.9713 S   0  0  0  0  0  0  0  0  0  0  0  0
   -8.3484    3.0618  -10.6510 H   0  0  0  0  0  0  0  0  0  0  0  0
   -7.1692    4.3173  -10.9946 H   0  0  0  0  0  0  0  0  0  0  0  0
   -9.5307    7.1813  -10.2940 H   0  0  0  0  0  0  0  0  0  0  0  0
  -10.5386    6.1477  -11.2914 H   0  0  0  0  0  0  0  0  0  0  0  0
   -8.1251    3.4022  -13.0797 H   0  0  0  0  0  0  0  0  0  0  0  0
   -9.7576    3.8369  -12.5758 H   0  0  0  0  0  0  0  0  0  0  0  0
   -8.9976    7.4618  -12.7034 H   0  0  0  0  0  0  0  0  0  0  0  0
   -7.6222    6.8678  -11.7850 H   0  0  0  0  0  0  0  0  0  0  0  0
   -7.1066    5.7904   -9.2857 H   0  0  0  0  0  0  0  0  0  0  0  0
   -8.5378    6.3880   -8.4180 H   0  0  0  0  0  0  0  0  0  0  0  0
  -11.0229    5.0636   -9.1630 H   0  0  0  0  0  0  0  0  0  0  0  0
  -10.6241    3.5904  -10.0817 H   0  0  0  0  0  0  0  0  0  0  0  0
   -6.9630    6.3769  -16.4466 H   0  0  0  0  0  0  0  0  0  0  0  0
   -6.1339    4.8044  -16.4859 H   0  0  0  0  0  0  0  0  0  0  0  0
   -6.8430    5.4975  -17.9605 H   0  0  0  0  0  0  0  0  0  0  0  0
   -9.2850    2.7740  -16.9766 H   0  0  0  0  0  0  0  0  0  0  0  0
   -7.5494    2.6479  -16.7517 H   0  0  0  0  0  0  0  0  0  0  0  0
   -8.1915    3.3035  -18.2741 H   0  0  0  0  0  0  0  0  0  0  0  0
  -10.4400    5.0073  -16.8820 H   0  0  0  0  0  0  0  0  0  0  0  0
   -9.5083    6.5014  -16.6433 H   0  0  0  0  0  0  0  0  0  0  0  0
   -9.4365    5.6189  -18.1856 H   0  0  0  0  0  0  0  0  0  0  0  0
   -7.2534    3.7427   -8.2853 H   0  0  0  0  0  0  0  0  0  0  0  0
  1 14  1  0  0  0  0
  1 15  2  0  0  0  0
  1 18  1  0  0  0  0
  2  4  1  0  0  0  0
  2  8  1  0  0  0  0
  3  5  1  0  0  0  0
  3  8  1  0  0  0  0
  4 14  1  0  0  0  0
  5 14  1  0  0  0  0
  6  8  1  0  0  0  0
  6 13  1  0  0  0  0
  7  8  1  0  0  0  0
  7 19  1  0  0  0  0
  9 12  1  0  0  0  0
 10 12  1  0  0  0  0
 11 12  1  0  0  0  0
 12 18  1  0  0  0  0
 13 19  1  0  0  0  0
 16 19  2  0  0  0  0
 17 19  2  0  0  0  0
  2 20  1  0  0  0  0
  2 21  1  0  0  0  0
  3 22  1  0  0  0  0
  3 23  1  0  0  0  0
  4 24  1  0  0  0  0
  4 25  1  0  0  0  0
  5 26  1  0  0  0  0
  5 27  1  0  0  0  0
  6 28  1  0  0  0  0
  6 29  1  0  0  0  0
  7 30  1  0  0  0  0
  7 31  1  0  0  0  0
  9 32  1  0  0  0  0
  9 33  1  0  0  0  0
  9 34  1  0  0  0  0
 10 35  1  0  0  0  0
 10 36  1  0  0  0  0
 10 37  1  0  0  0  0
 11 38  1  0  0  0  0
 11 39  1  0  0  0  0
 11 40  1  0  0  0  0
 13 41  1  0  0  0  0
M  END
> <id>
EN300-6498969

> <smiles>
CC(C)(C)OC(=O)N1CCC2(CNS(=O)(=O)C2)CC1

> <MDLNUMBER>
MFCD31924561

> <IUPAC Name>
tert-butyl 2,2-dioxo-2lambda6-thia-3,8-diazaspiro[4.5]decane-8-carboxylate

> <CAS>
2344681-17-8

> <Purity>
95

> <URL>
https://www.enaminestore.com/catalog/EN300-6498969

> <ROCS_ShapeQuery>
_x0404_0B

> <ROCS_TanimotoCombo>
0.370 

> <ROCS_ShapeTanimoto>
0.305 

> <ROCS_ColorTanimoto>
0.065 

> <ROCS_RefTversky>
0.273 

> <ROCS_RefColorTversky>
0.070 

> <ROCS_RefTverskyCombo>
0.343 

> <ROCS_FitTversky>
1.628 

> <ROCS_FitColorTversky>
0.482 

> <ROCS_FitTverskyCombo>
2.110 

> <ROCS_ColorScore>
-5.028

> <ROCS_Overlap>
1820.761

> <ROCS_Rank>
371                 

$$$$
untitled-dbase-46263_11
  -OEChem-08212314543D

 37 38  0     0  0  0  0  0  0999 V2000
   -9.3536    6.8589  -10.9959 C   0  0  0  0  0  0  0  0  0  0  0  0
   -9.2659    6.5941  -12.3667 C   0  0  0  0  0  0  0  0  0  0  0  0
   -8.3423    4.7316  -10.5162 C   0  0  0  0  0  0  0  0  0  0  0  0
   -8.8831    5.9333  -10.0714 C   0  0  0  0  0  0  0  0  0  0  0  0
   -8.6980    5.4006  -12.8378 C   0  0  0  0  0  0  0  0  0  0  0  0
   -8.2681    4.4614  -11.8887 C   0  0  0  0  0  0  0  0  0  0  0  0
   -7.7020    2.8087  -13.5931 C   0  0  0  0  0  0  0  0  0  0  0  0
   -8.5934    6.0207  -15.2866 C   0  0  0  0  0  0  0  0  0  0  0  0
   -8.4377    3.6802  -14.5839 C   0  0  0  0  0  0  0  0  0  0  0  0
   -6.3135    6.2238  -16.5780 C   0  0  0  0  0  0  0  0  0  0  0  0
   -7.2280    4.6806  -18.3363 C   0  0  0  0  0  0  0  0  0  0  0  0
   -8.0251    7.0596  -18.2232 C   0  0  0  0  0  0  0  0  0  0  0  0
   -8.9659    6.2238   -8.6109 C   0  0  0  0  0  0  0  0  0  0  0  0
   -7.5388    5.8578  -17.4145 C   0  0  0  0  0  0  0  0  0  0  0  0
   -7.7237    3.2341  -12.2889 N   0  0  0  0  0  0  0  0  0  0  0  0
   -8.5574    5.0913  -14.2278 N   0  0  0  0  0  0  0  0  0  0  0  0
   -7.2409    1.7171  -13.9290 O   0  0  0  0  0  0  0  0  0  0  0  0
   -8.6919    7.2370  -15.1200 O   0  0  0  0  0  0  0  0  0  0  0  0
   -8.5886    5.4481  -16.5302 O   0  0  0  0  0  0  0  0  0  0  0  0
   -9.5268    7.4362   -8.3236 F   0  0  0  0  0  0  0  0  0  0  0  0
   -9.7094    5.3144   -7.9130 F   0  0  0  0  0  0  0  0  0  0  0  0
   -7.7418    6.2354   -8.0063 F   0  0  0  0  0  0  0  0  0  0  0  0
   -9.7970    7.7930  -10.6611 H   0  0  0  0  0  0  0  0  0  0  0  0
   -9.6821    7.3457  -13.0224 H   0  0  0  0  0  0  0  0  0  0  0  0
   -7.9820    4.0051   -9.7926 H   0  0  0  0  0  0  0  0  0  0  0  0
   -7.9056    3.6012  -15.5249 H   0  0  0  0  0  0  0  0  0  0  0  0
   -9.4405    3.2841  -14.6951 H   0  0  0  0  0  0  0  0  0  0  0  0
   -6.5325    7.0684  -15.9150 H   0  0  0  0  0  0  0  0  0  0  0  0
   -5.9758    5.3804  -15.9669 H   0  0  0  0  0  0  0  0  0  0  0  0
   -5.4831    6.5411  -17.2190 H   0  0  0  0  0  0  0  0  0  0  0  0
   -8.1044    4.4146  -18.9384 H   0  0  0  0  0  0  0  0  0  0  0  0
   -6.9700    3.7876  -17.7555 H   0  0  0  0  0  0  0  0  0  0  0  0
   -6.3976    4.9057  -19.0133 H   0  0  0  0  0  0  0  0  0  0  0  0
   -8.9040    6.7974  -18.8233 H   0  0  0  0  0  0  0  0  0  0  0  0
   -8.2880    7.9020  -17.5752 H   0  0  0  0  0  0  0  0  0  0  0  0
   -7.2557    7.3908  -18.9300 H   0  0  0  0  0  0  0  0  0  0  0  0
   -7.3261    2.6298  -11.5811 H   0  0  0  0  0  0  0  0  0  0  0  0
  1  2  1  0  0  0  0
  1  4  2  0  0  0  0
  2  5  2  0  0  0  0
  3  4  1  0  0  0  0
  3  6  2  0  0  0  0
  4 13  1  0  0  0  0
  5  6  1  0  0  0  0
  5 16  1  0  0  0  0
  6 15  1  0  0  0  0
  7  9  1  0  0  0  0
  7 15  1  0  0  0  0
  7 17  2  0  0  0  0
  8 16  1  0  0  0  0
  8 18  2  0  0  0  0
  8 19  1  0  0  0  0
  9 16  1  0  0  0  0
 10 14  1  0  0  0  0
 11 14  1  0  0  0  0
 12 14  1  0  0  0  0
 13 20  1  0  0  0  0
 13 21  1  0  0  0  0
 13 22  1  0  0  0  0
 14 19  1  0  0  0  0
  1 23  1  0  0  0  0
  2 24  1  0  0  0  0
  3 25  1  0  0  0  0
  9 26  1  0  0  0  0
  9 27  1  0  0  0  0
 10 28  1  0  0  0  0
 10 29  1  0  0  0  0
 10 30  1  0  0  0  0
 11 31  1  0  0  0  0
 11 32  1  0  0  0  0
 11 33  1  0  0  0  0
 12 34  1  0  0  0  0
 12 35  1  0  0  0  0
 12 36  1  0  0  0  0
 15 37  1  0  0  0  0
M  END
> <id>
EN300-33050756

> <smiles>
CC(C)(C)OC(=O)N1CC(=O)NC=2C=C(C=CC12)C(F)(F)F

> <IUPAC Name>
tert-butyl 3-oxo-6-(trifluoromethyl)-1,2,3,4-tetrahydroquinoxaline-1-carboxylate

> <CAS>
2694722-66-0

> <URL>
https://www.enaminestore.com/catalog/EN300-33050756

> <ROCS_ShapeQuery>
_x0404_0B

> <ROCS_TanimotoCombo>
0.370 

> <ROCS_ShapeTanimoto>
0.298 

> <ROCS_ColorTanimoto>
0.072 

> <ROCS_RefTversky>
0.274 

> <ROCS_RefColorTversky>
0.076 

> <ROCS_RefTverskyCombo>
0.350 

> <ROCS_FitTversky>
1.405 

> <ROCS_FitColorTversky>
0.577 

> <ROCS_FitTverskyCombo>
1.982 

> <ROCS_ColorScore>
-5.470

> <ROCS_Overlap>
1832.194

> <ROCS_Rank>
372                 

$$$$
untitled-dbase-47311_3
  -OEChem-08212314543D

 38 39  0     1  0  0  0  0  0999 V2000
   -8.6781    3.5447   -8.0688 C   0  0  0  0  0  0  0  0  0  0  0  0
   -8.8596    4.9414   -8.6099 C   0  0  0  0  0  0  0  0  0  0  0  0
   -8.5730    5.4252  -14.2326 C   0  0  0  0  0  0  0  0  0  0  0  0
   -9.1692    6.3758  -10.5984 C   0  0  0  0  0  0  0  0  0  0  0  0
   -8.5137    6.4965  -11.9668 C   0  0  0  0  0  0  0  0  0  0  0  0
   -9.5835    2.7229  -10.2235 C   0  0  0  0  0  0  0  0  0  0  0  0
   -9.4400    4.1901  -12.2648 C   0  0  0  0  0  0  0  0  0  0  0  0
   -8.8752    3.9007  -10.8728 C   0  0  1  0  0  0  0  0  0  0  0  0
   -7.2356    4.4071  -16.5476 C   0  0  0  0  0  0  0  0  0  0  0  0
   -9.2145    2.8797  -16.7928 C   0  0  0  0  0  0  0  0  0  0  0  0
   -9.5296    5.3674  -16.9347 C   0  0  0  0  0  0  0  0  0  0  0  0
   -8.7315    4.2371  -16.2865 C   0  0  0  0  0  0  0  0  0  0  0  0
   -9.0557    2.5117   -8.8953 N   0  0  0  0  0  0  0  0  0  0  0  0
   -8.9553    5.0664   -9.9909 N   0  0  0  0  0  0  0  0  0  0  0  0
   -8.8309    5.3790  -12.8589 N   0  0  0  0  0  0  0  0  0  0  0  0
   -8.2245    3.4217   -6.9387 O   0  0  0  0  0  0  0  0  0  0  0  0
   -8.9171    5.8468   -7.7861 O   0  0  0  0  0  0  0  0  0  0  0  0
   -8.0675    6.3839  -14.8127 O   0  0  0  0  0  0  0  0  0  0  0  0
   -8.9544    4.2744  -14.8723 O   0  0  0  0  0  0  0  0  0  0  0  0
   -8.7429    7.1150   -9.9150 H   0  0  0  0  0  0  0  0  0  0  0  0
  -10.2379    6.5808  -10.6788 H   0  0  0  0  0  0  0  0  0  0  0  0
   -8.8546    7.4209  -12.4730 H   0  0  0  0  0  0  0  0  0  0  0  0
   -7.4210    6.6104  -11.8428 H   0  0  0  0  0  0  0  0  0  0  0  0
  -10.6547    2.9006  -10.1199 H   0  0  0  0  0  0  0  0  0  0  0  0
   -9.4298    1.8052  -10.7907 H   0  0  0  0  0  0  0  0  0  0  0  0
   -9.2966    3.3216  -12.9171 H   0  0  0  0  0  0  0  0  0  0  0  0
  -10.5199    4.3834  -12.2205 H   0  0  0  0  0  0  0  0  0  0  0  0
   -7.7985    3.6782  -10.9632 H   0  0  0  0  0  0  0  0  0  0  0  0
   -6.8849    5.3802  -16.1856 H   0  0  0  0  0  0  0  0  0  0  0  0
   -6.6491    3.6223  -16.0588 H   0  0  0  0  0  0  0  0  0  0  0  0
   -7.0208    4.3812  -17.6221 H   0  0  0  0  0  0  0  0  0  0  0  0
  -10.2874    2.7535  -16.6075 H   0  0  0  0  0  0  0  0  0  0  0  0
   -8.7115    2.0635  -16.2618 H   0  0  0  0  0  0  0  0  0  0  0  0
   -9.0316    2.7601  -17.8655 H   0  0  0  0  0  0  0  0  0  0  0  0
  -10.6026    5.2457  -16.7476 H   0  0  0  0  0  0  0  0  0  0  0  0
   -9.2217    6.3474  -16.5558 H   0  0  0  0  0  0  0  0  0  0  0  0
   -9.4027    5.3594  -18.0234 H   0  0  0  0  0  0  0  0  0  0  0  0
   -8.9599    1.5617   -8.5586 H   0  0  0  0  0  0  0  0  0  0  0  0
  1  2  1  0  0  0  0
  1 13  1  0  0  0  0
  1 16  2  0  0  0  0
  2 14  1  0  0  0  0
  2 17  2  0  0  0  0
  3 15  1  0  0  0  0
  3 18  2  0  0  0  0
  3 19  1  0  0  0  0
  4  5  1  0  0  0  0
  4 14  1  0  0  0  0
  5 15  1  0  0  0  0
  6  8  1  0  0  0  0
  6 13  1  0  0  0  0
  7  8  1  0  0  0  0
  7 15  1  0  0  0  0
  8 14  1  0  0  0  0
  9 12  1  0  0  0  0
 10 12  1  0  0  0  0
 11 12  1  0  0  0  0
 12 19  1  0  0  0  0
  4 20  1  0  0  0  0
  4 21  1  0  0  0  0
  5 22  1  0  0  0  0
  5 23  1  0  0  0  0
  6 24  1  0  0  0  0
  6 25  1  0  0  0  0
  7 26  1  0  0  0  0
  7 27  1  0  0  0  0
  8 28  1  0  0  0  0
  9 29  1  0  0  0  0
  9 30  1  0  0  0  0
  9 31  1  0  0  0  0
 10 32  1  0  0  0  0
 10 33  1  0  0  0  0
 10 34  1  0  0  0  0
 11 35  1  0  0  0  0
 11 36  1  0  0  0  0
 11 37  1  0  0  0  0
 13 38  1  0  0  0  0
M  END
> <id>
EN300-107140

> <smiles>
CC(C)(C)OC(=O)N1CCN2C(CNC(=O)C2=O)C1

> <MDLNUMBER>
MFCD22375325

> <IUPAC Name>
tert-butyl 6,7-dioxo-octahydro-1H-pyrazino[1,2-a]piperazine-2-carboxylate

> <CAS>
1384699-68-6

> <Purity>
95

> <URL>
https://www.enaminestore.com/catalog/EN300-107140

> <ROCS_ShapeQuery>
_x0404_0B

> <ROCS_TanimotoCombo>
0.370 

> <ROCS_ShapeTanimoto>
0.293 

> <ROCS_ColorTanimoto>
0.076 

> <ROCS_RefTversky>
0.266 

> <ROCS_RefColorTversky>
0.081 

> <ROCS_RefTverskyCombo>
0.348 

> <ROCS_FitTversky>
1.533 

> <ROCS_FitColorTversky>
0.561 

> <ROCS_FitTverskyCombo>
2.095 

> <ROCS_ColorScore>
-5.860

> <ROCS_Overlap>
1775.671

> <ROCS_Rank>
373                 

$$$$
untitled-dbase-34735_34
  -OEChem-08212314543D

 41 42  0     0  0  0  0  0  0999 V2000
   -8.6960    5.9809   -8.0327 C   0  0  0  0  0  0  0  0  0  0  0  0
   -8.8884    4.6148   -7.8432 C   0  0  0  0  0  0  0  0  0  0  0  0
   -8.7800    5.6671  -10.4399 C   0  0  0  0  0  0  0  0  0  0  0  0
   -8.9919    4.2905  -10.2457 C   0  0  0  0  0  0  0  0  0  0  0  0
   -8.6413    6.5051   -9.3240 C   0  0  0  0  0  0  0  0  0  0  0  0
   -9.0314    3.7715   -8.9444 C   0  0  0  0  0  0  0  0  0  0  0  0
   -8.2740    5.5229  -14.1878 C   0  0  0  0  0  0  0  0  0  0  0  0
   -9.1193    3.3654  -11.4273 C   0  0  0  0  0  0  0  0  0  0  0  0
   -8.7118    6.2686  -11.8222 C   0  0  0  0  0  0  0  0  0  0  0  0
   -9.6204    4.1070  -12.6604 C   0  0  0  0  0  0  0  0  0  0  0  0
   -7.0549    5.4803  -16.7763 C   0  0  0  0  0  0  0  0  0  0  0  0
   -7.4379    2.9986  -16.7126 C   0  0  0  0  0  0  0  0  0  0  0  0
   -9.3973    4.5686  -16.6477 C   0  0  0  0  0  0  0  0  0  0  0  0
   -8.4317    7.9780   -9.4769 C   0  0  0  0  0  0  0  0  0  0  0  0
   -7.9410    4.3592  -16.2352 C   0  0  0  0  0  0  0  0  0  0  0  0
   -8.8015    5.2898  -12.9130 N   0  0  0  0  0  0  0  0  0  0  0  0
   -9.2071    2.3879   -8.7107 N   0  0  0  0  0  0  0  0  0  0  0  0
   -8.1755    6.6332  -14.7067 O   0  0  0  0  0  0  0  0  0  0  0  0
   -7.8662    4.3693  -14.8050 O   0  0  0  0  0  0  0  0  0  0  0  0
   -8.3177    8.6369   -8.2877 F   0  0  0  0  0  0  0  0  0  0  0  0
   -7.3028    8.2959  -10.1739 F   0  0  0  0  0  0  0  0  0  0  0  0
   -9.4579    8.5843  -10.1386 F   0  0  0  0  0  0  0  0  0  0  0  0
   -8.5868    6.6296   -7.1675 H   0  0  0  0  0  0  0  0  0  0  0  0
   -8.9218    4.2173   -6.8319 H   0  0  0  0  0  0  0  0  0  0  0  0
   -8.1412    2.9129  -11.6316 H   0  0  0  0  0  0  0  0  0  0  0  0
   -9.8277    2.5566  -11.2144 H   0  0  0  0  0  0  0  0  0  0  0  0
   -9.5509    6.9609  -11.9614 H   0  0  0  0  0  0  0  0  0  0  0  0
   -7.7769    6.8296  -11.9275 H   0  0  0  0  0  0  0  0  0  0  0  0
   -9.6162    3.4369  -13.5261 H   0  0  0  0  0  0  0  0  0  0  0  0
  -10.6521    4.4522  -12.5181 H   0  0  0  0  0  0  0  0  0  0  0  0
   -7.4127    6.4585  -16.4359 H   0  0  0  0  0  0  0  0  0  0  0  0
   -6.0140    5.3608  -16.4584 H   0  0  0  0  0  0  0  0  0  0  0  0
   -7.0815    5.5055  -17.8717 H   0  0  0  0  0  0  0  0  0  0  0  0
   -8.0708    2.1913  -16.3267 H   0  0  0  0  0  0  0  0  0  0  0  0
   -6.4263    2.8034  -16.3387 H   0  0  0  0  0  0  0  0  0  0  0  0
   -7.4221    2.9345  -17.8054 H   0  0  0  0  0  0  0  0  0  0  0  0
  -10.0331    3.7646  -16.2596 H   0  0  0  0  0  0  0  0  0  0  0  0
   -9.7867    5.5242  -16.2818 H   0  0  0  0  0  0  0  0  0  0  0  0
   -9.5005    4.5452  -17.7386 H   0  0  0  0  0  0  0  0  0  0  0  0
   -9.3577    1.7808   -9.4886 H   0  0  0  0  0  0  0  0  0  0  0  0
   -9.2711    2.0603   -7.7700 H   0  0  0  0  0  0  0  0  0  0  0  0
  1  2  2  0  0  0  0
  1  5  1  0  0  0  0
  2  6  1  0  0  0  0
  3  4  1  0  0  0  0
  3  5  2  0  0  0  0
  3  9  1  0  0  0  0
  4  6  2  0  0  0  0
  4  8  1  0  0  0  0
  5 14  1  0  0  0  0
  6 17  1  0  0  0  0
  7 16  1  0  0  0  0
  7 18  2  0  0  0  0
  7 19  1  0  0  0  0
  8 10  1  0  0  0  0
  9 16  1  0  0  0  0
 10 16  1  0  0  0  0
 11 15  1  0  0  0  0
 12 15  1  0  0  0  0
 13 15  1  0  0  0  0
 14 20  1  0  0  0  0
 14 21  1  0  0  0  0
 14 22  1  0  0  0  0
 15 19  1  0  0  0  0
  1 23  1  0  0  0  0
  2 24  1  0  0  0  0
  8 25  1  0  0  0  0
  8 26  1  0  0  0  0
  9 27  1  0  0  0  0
  9 28  1  0  0  0  0
 10 29  1  0  0  0  0
 10 30  1  0  0  0  0
 11 31  1  0  0  0  0
 11 32  1  0  0  0  0
 11 33  1  0  0  0  0
 12 34  1  0  0  0  0
 12 35  1  0  0  0  0
 12 36  1  0  0  0  0
 13 37  1  0  0  0  0
 13 38  1  0  0  0  0
 13 39  1  0  0  0  0
 17 40  1  0  0  0  0
 17 41  1  0  0  0  0
M  END
> <id>
EN300-330420

> <smiles>
CC(C)(C)OC(=O)N1CCC=2C(N)=CC=C(C2C1)C(F)(F)F

> <MDLNUMBER>
MFCD30488124

> <IUPAC Name>
tert-butyl 5-amino-8-(trifluoromethyl)-1,2,3,4-tetrahydroisoquinoline-2-carboxylate

> <CAS>
2060007-95-4

> <URL>
https://www.enaminestore.com/catalog/EN300-330420

> <ROCS_ShapeQuery>
_x0404_0B

> <ROCS_TanimotoCombo>
0.370 

> <ROCS_ShapeTanimoto>
0.294 

> <ROCS_ColorTanimoto>
0.076 

> <ROCS_RefTversky>
0.271 

> <ROCS_RefColorTversky>
0.080 

> <ROCS_RefTverskyCombo>
0.351 

> <ROCS_FitTversky>
1.400 

> <ROCS_FitColorTversky>
0.607 

> <ROCS_FitTverskyCombo>
2.007 

> <ROCS_ColorScore>
-5.757

> <ROCS_Overlap>
1809.938

> <ROCS_Rank>
374                 

$$$$
untitled-dbase-6565_0
  -OEChem-08212314543D

 35 36  0     0  0  0  0  0  0999 V2000
   -8.8711    5.5895   -9.5180 C   0  0  0  0  0  0  0  0  0  0  0  0
   -9.0420    4.5296   -8.6246 C   0  0  0  0  0  0  0  0  0  0  0  0
   -9.0836    2.9262  -10.4567 C   0  0  0  0  0  0  0  0  0  0  0  0
   -8.8088    5.3004  -10.8695 C   0  0  0  0  0  0  0  0  0  0  0  0
   -8.9138    3.9824  -11.3340 C   0  0  0  0  0  0  0  0  0  0  0  0
   -9.1475    3.2084   -9.0903 C   0  0  0  0  0  0  0  0  0  0  0  0
   -8.5060    5.8405  -14.4786 C   0  0  0  0  0  0  0  0  0  0  0  0
   -8.6336    6.2421  -12.0138 C   0  0  0  0  0  0  0  0  0  0  0  0
   -8.8159    3.9470  -12.8230 C   0  0  0  0  0  0  0  0  0  0  0  0
   -7.0634    5.9336  -16.9433 C   0  0  0  0  0  0  0  0  0  0  0  0
   -8.4752    3.9732  -17.6311 C   0  0  0  0  0  0  0  0  0  0  0  0
   -9.5622    6.1786  -17.1188 C   0  0  0  0  0  0  0  0  0  0  0  0
   -8.4115    5.2347  -16.7728 C   0  0  0  0  0  0  0  0  0  0  0  0
   -8.6442    5.3611  -13.1865 N   0  0  0  0  0  0  0  0  0  0  0  0
   -9.3199    2.1551   -8.1654 N   0  0  0  0  0  0  0  0  0  0  0  0
   -8.3638    7.0277  -14.7625 O   0  0  0  0  0  0  0  0  0  0  0  0
   -8.5467    4.8332  -15.4050 O   0  0  0  0  0  0  0  0  0  0  0  0
   -8.7899    6.6088   -9.1567 H   0  0  0  0  0  0  0  0  0  0  0  0
   -9.0931    4.7391   -7.5586 H   0  0  0  0  0  0  0  0  0  0  0  0
   -9.1642    1.9084  -10.8252 H   0  0  0  0  0  0  0  0  0  0  0  0
   -9.4606    6.9535  -12.0977 H   0  0  0  0  0  0  0  0  0  0  0  0
   -7.6763    6.7703  -11.9758 H   0  0  0  0  0  0  0  0  0  0  0  0
   -7.9440    3.3831  -13.1675 H   0  0  0  0  0  0  0  0  0  0  0  0
   -9.7302    3.5688  -13.2899 H   0  0  0  0  0  0  0  0  0  0  0  0
   -7.0137    6.8396  -16.3289 H   0  0  0  0  0  0  0  0  0  0  0  0
   -6.2314    5.2786  -16.6650 H   0  0  0  0  0  0  0  0  0  0  0  0
   -6.9183    6.2554  -17.9809 H   0  0  0  0  0  0  0  0  0  0  0  0
   -9.4407    3.4685  -17.5118 H   0  0  0  0  0  0  0  0  0  0  0  0
   -7.7098    3.2520  -17.3223 H   0  0  0  0  0  0  0  0  0  0  0  0
   -8.3308    4.1989  -18.6925 H   0  0  0  0  0  0  0  0  0  0  0  0
  -10.5292    5.6776  -16.9965 H   0  0  0  0  0  0  0  0  0  0  0  0
   -9.5540    7.0729  -16.4872 H   0  0  0  0  0  0  0  0  0  0  0  0
   -9.5069    6.4924  -18.1674 H   0  0  0  0  0  0  0  0  0  0  0  0
   -9.4414    1.2239   -8.5064 H   0  0  0  0  0  0  0  0  0  0  0  0
   -9.4116    2.3714   -7.1944 H   0  0  0  0  0  0  0  0  0  0  0  0
  1  2  1  0  0  0  0
  1  4  2  0  0  0  0
  2  6  2  0  0  0  0
  3  5  2  0  0  0  0
  3  6  1  0  0  0  0
  4  5  1  0  0  0  0
  4  8  1  0  0  0  0
  5  9  1  0  0  0  0
  6 15  1  0  0  0  0
  7 14  1  0  0  0  0
  7 16  2  0  0  0  0
  7 17  1  0  0  0  0
  8 14  1  0  0  0  0
  9 14  1  0  0  0  0
 10 13  1  0  0  0  0
 11 13  1  0  0  0  0
 12 13  1  0  0  0  0
 13 17  1  0  0  0  0
  1 18  1  0  0  0  0
  2 19  1  0  0  0  0
  3 20  1  0  0  0  0
  8 21  1  0  0  0  0
  8 22  1  0  0  0  0
  9 23  1  0  0  0  0
  9 24  1  0  0  0  0
 10 25  1  0  0  0  0
 10 26  1  0  0  0  0
 10 27  1  0  0  0  0
 11 28  1  0  0  0  0
 11 29  1  0  0  0  0
 11 30  1  0  0  0  0
 12 31  1  0  0  0  0
 12 32  1  0  0  0  0
 12 33  1  0  0  0  0
 15 34  1  0  0  0  0
 15 35  1  0  0  0  0
M  END
> <id>
EN300-188167

> <smiles>
CC(C)(C)OC(=O)N1CC=2C=CC(N)=CC2C1

> <MDLNUMBER>
MFCD08234717

> <IUPAC Name>
tert-butyl 5-amino-2,3-dihydro-1H-isoindole-2-carboxylate

> <CAS>
264916-06-5

> <Purity>
95

> <URL>
https://www.enaminestore.com/catalog/EN300-188167

> <ROCS_ShapeQuery>
_x0404_0B

> <ROCS_TanimotoCombo>
0.370 

> <ROCS_ShapeTanimoto>
0.302 

> <ROCS_ColorTanimoto>
0.068 

> <ROCS_RefTversky>
0.269 

> <ROCS_RefColorTversky>
0.072 

> <ROCS_RefTverskyCombo>
0.341 

> <ROCS_FitTversky>
1.673 

> <ROCS_FitColorTversky>
0.546 

> <ROCS_FitTverskyCombo>
2.219 

> <ROCS_ColorScore>
-5.184

> <ROCS_Overlap>
1794.279

> <ROCS_Rank>
375                 

$$$$
untitled-dbase-30095_63
  -OEChem-08212314543D

 41 42  0     0  0  0  0  0  0999 V2000
   -8.6794    5.7763  -14.6120 C   0  0  0  0  0  0  0  0  0  0  0  0
   -6.8952    3.8698  -12.2005 C   0  0  0  0  0  0  0  0  0  0  0  0
   -8.3211    2.3929  -11.5670 C   0  0  0  0  0  0  0  0  0  0  0  0
   -9.2066    6.9067  -12.4498 C   0  0  0  0  0  0  0  0  0  0  0  0
   -9.4444    4.3884  -12.7076 C   0  0  0  0  0  0  0  0  0  0  0  0
   -9.4281    6.7085  -10.9594 C   0  0  0  0  0  0  0  0  0  0  0  0
   -8.5412    4.5990  -10.3225 C   0  0  0  0  0  0  0  0  0  0  0  0
   -7.1020    2.3755  -12.5102 C   0  0  0  0  0  0  0  0  0  0  0  0
   -8.3731    3.9487  -11.6983 C   0  0  0  0  0  0  0  0  0  0  0  0
   -6.8173    5.1542  -16.6941 C   0  0  0  0  0  0  0  0  0  0  0  0
   -8.1964    3.0866  -17.0581 C   0  0  0  0  0  0  0  0  0  0  0  0
   -9.2264    5.3523  -17.3952 C   0  0  0  0  0  0  0  0  0  0  0  0
   -8.2127    4.5403  -16.5904 C   0  0  0  0  0  0  0  0  0  0  0  0
   -9.0776    5.6929  -13.2649 N   0  0  0  0  0  0  0  0  0  0  0  0
   -8.4166    6.8249  -15.1980 O   0  0  0  0  0  0  0  0  0  0  0  0
   -8.3336    6.0087  -10.3806 O   0  0  0  0  0  0  0  0  0  0  0  0
   -7.3681    2.0514  -13.8881 O   0  0  0  0  0  0  0  0  0  0  0  0
   -8.6122    4.5466  -15.2152 O   0  0  0  0  0  0  0  0  0  0  0  0
   -6.1208    4.0859  -11.4558 H   0  0  0  0  0  0  0  0  0  0  0  0
   -6.6797    4.4717  -13.0935 H   0  0  0  0  0  0  0  0  0  0  0  0
   -9.1938    1.8661  -11.9755 H   0  0  0  0  0  0  0  0  0  0  0  0
   -8.1363    2.0043  -10.5594 H   0  0  0  0  0  0  0  0  0  0  0  0
  -10.0397    7.5094  -12.8802 H   0  0  0  0  0  0  0  0  0  0  0  0
   -8.3111    7.5519  -12.6043 H   0  0  0  0  0  0  0  0  0  0  0  0
   -9.5405    3.6571  -13.5182 H   0  0  0  0  0  0  0  0  0  0  0  0
  -10.4275    4.4745  -12.2305 H   0  0  0  0  0  0  0  0  0  0  0  0
   -9.4861    7.6656  -10.4651 H   0  0  0  0  0  0  0  0  0  0  0  0
  -10.3377    6.1584  -10.7805 H   0  0  0  0  0  0  0  0  0  0  0  0
   -9.5172    4.3541   -9.8596 H   0  0  0  0  0  0  0  0  0  0  0  0
   -7.7823    4.2138   -9.6179 H   0  0  0  0  0  0  0  0  0  0  0  0
   -6.2795    1.7491  -12.1313 H   0  0  0  0  0  0  0  0  0  0  0  0
   -6.8247    6.1976  -16.3593 H   0  0  0  0  0  0  0  0  0  0  0  0
   -6.0877    4.6014  -16.0933 H   0  0  0  0  0  0  0  0  0  0  0  0
   -6.4715    5.1657  -17.7341 H   0  0  0  0  0  0  0  0  0  0  0  0
   -9.1956    2.6421  -16.9853 H   0  0  0  0  0  0  0  0  0  0  0  0
   -7.5415    2.4795  -16.4227 H   0  0  0  0  0  0  0  0  0  0  0  0
   -7.8526    2.9992  -18.0938 H   0  0  0  0  0  0  0  0  0  0  0  0
  -10.2274    4.9122  -17.3210 H   0  0  0  0  0  0  0  0  0  0  0  0
   -9.2784    6.3896  -17.0488 H   0  0  0  0  0  0  0  0  0  0  0  0
   -8.9673    5.3534  -18.4602 H   0  0  0  0  0  0  0  0  0  0  0  0
   -7.4724    1.0912  -13.9177 H   0  0  0  0  0  0  0  0  0  0  0  0
  1 14  1  0  0  0  0
  1 15  2  0  0  0  0
  1 18  1  0  0  0  0
  2  8  1  0  0  0  0
  2  9  1  0  0  0  0
  3  8  1  0  0  0  0
  3  9  1  0  0  0  0
  4  6  1  0  0  0  0
  4 14  1  0  0  0  0
  5  9  1  0  0  0  0
  5 14  1  0  0  0  0
  6 16  1  0  0  0  0
  7  9  1  0  0  0  0
  7 16  1  0  0  0  0
  8 17  1  0  0  0  0
 10 13  1  0  0  0  0
 11 13  1  0  0  0  0
 12 13  1  0  0  0  0
 13 18  1  0  0  0  0
  2 19  1  0  0  0  0
  2 20  1  0  0  0  0
  3 21  1  0  0  0  0
  3 22  1  0  0  0  0
  4 23  1  0  0  0  0
  4 24  1  0  0  0  0
  5 25  1  0  0  0  0
  5 26  1  0  0  0  0
  6 27  1  0  0  0  0
  6 28  1  0  0  0  0
  7 29  1  0  0  0  0
  7 30  1  0  0  0  0
  8 31  1  0  0  0  0
 10 32  1  0  0  0  0
 10 33  1  0  0  0  0
 10 34  1  0  0  0  0
 11 35  1  0  0  0  0
 11 36  1  0  0  0  0
 11 37  1  0  0  0  0
 12 38  1  0  0  0  0
 12 39  1  0  0  0  0
 12 40  1  0  0  0  0
 17 41  1  0  0  0  0
M  END
> <id>
EN300-37430148

> <smiles>
CC(C)(C)OC(=O)N1CCOCC2(CC(O)C2)C1

> <IUPAC Name>
tert-butyl 2-hydroxy-6-oxa-9-azaspiro[3.6]decane-9-carboxylate

> <CAS>
2803863-99-0

> <Purity>
95

> <URL>
https://www.enaminestore.com/catalog/EN300-37430148

> <ROCS_ShapeQuery>
_x0404_0B

> <ROCS_TanimotoCombo>
0.370 

> <ROCS_ShapeTanimoto>
0.245 

> <ROCS_ColorTanimoto>
0.124 

> <ROCS_RefTversky>
0.229 

> <ROCS_RefColorTversky>
0.127 

> <ROCS_RefTverskyCombo>
0.356 

> <ROCS_FitTversky>
1.398 

> <ROCS_FitColorTversky>
0.876 

> <ROCS_FitTverskyCombo>
2.274 

> <ROCS_ColorScore>
-9.138

> <ROCS_Overlap>
1528.736

> <ROCS_Rank>
376                 

$$$$
untitled-dbase-10457_255
  -OEChem-08212314543D

 47 48  0     1  0  0  0  0  0999 V2000
   -8.6666    5.5733  -14.3184 C   0  0  0  0  0  0  0  0  0  0  0  0
   -9.4077    4.5224   -7.1176 C   0  0  0  0  0  0  0  0  0  0  0  0
   -8.4081    5.5043   -7.7163 C   0  0  0  0  0  0  0  0  0  0  0  0
  -10.3882    3.9899   -8.1610 C   0  0  0  0  0  0  0  0  0  0  0  0
   -7.7270    4.9690   -8.9785 C   0  0  0  0  0  0  0  0  0  0  0  0
   -7.8546    3.7606  -11.1868 C   0  0  0  0  0  0  0  0  0  0  0  0
   -9.5564    5.5820  -10.6632 C   0  0  0  0  0  0  0  0  0  0  0  0
   -8.5222    3.8411  -12.5544 C   0  0  0  0  0  0  0  0  0  0  0  0
   -8.9251    6.2164  -11.8993 C   0  0  0  0  0  0  0  0  0  0  0  0
   -9.6828    3.3832   -9.3894 C   0  0  1  0  0  0  0  0  0  0  0  0
   -8.7065    4.4171  -10.0547 C   0  0  0  0  0  0  0  0  0  0  0  0
   -7.6502    5.1521  -16.9593 C   0  0  0  0  0  0  0  0  0  0  0  0
   -9.5794    3.5700  -17.2503 C   0  0  0  0  0  0  0  0  0  0  0  0
  -10.0137    6.0047  -16.8122 C   0  0  0  0  0  0  0  0  0  0  0  0
   -9.0819    4.8254  -16.5370 C   0  0  0  0  0  0  0  0  0  0  0  0
   -8.7139    5.2314  -12.9637 N   0  0  0  0  0  0  0  0  0  0  0  0
   -9.0142    2.1365   -8.9912 N   0  0  0  0  0  0  0  0  0  0  0  0
   -8.2932    6.6647  -14.7441 O   0  0  0  0  0  0  0  0  0  0  0  0
   -9.0918    4.5550  -15.1307 O   0  0  0  0  0  0  0  0  0  0  0  0
   -8.8715    3.6856   -6.6543 H   0  0  0  0  0  0  0  0  0  0  0  0
   -9.9684    5.0199   -6.3155 H   0  0  0  0  0  0  0  0  0  0  0  0
   -8.9274    6.4453   -7.9578 H   0  0  0  0  0  0  0  0  0  0  0  0
   -7.6504    5.7685   -6.9624 H   0  0  0  0  0  0  0  0  0  0  0  0
  -11.0519    3.2481   -7.6899 H   0  0  0  0  0  0  0  0  0  0  0  0
  -11.0412    4.8192   -8.4769 H   0  0  0  0  0  0  0  0  0  0  0  0
   -7.1369    5.7883   -9.4178 H   0  0  0  0  0  0  0  0  0  0  0  0
   -6.9932    4.2128   -8.6730 H   0  0  0  0  0  0  0  0  0  0  0  0
   -7.6972    2.7008  -10.9642 H   0  0  0  0  0  0  0  0  0  0  0  0
   -6.8628    4.2132  -11.2480 H   0  0  0  0  0  0  0  0  0  0  0  0
   -9.7243    6.3553   -9.9042 H   0  0  0  0  0  0  0  0  0  0  0  0
  -10.5466    5.2139  -10.9531 H   0  0  0  0  0  0  0  0  0  0  0  0
   -7.9170    3.3539  -13.3231 H   0  0  0  0  0  0  0  0  0  0  0  0
   -9.4813    3.3182  -12.5237 H   0  0  0  0  0  0  0  0  0  0  0  0
   -9.5625    7.0377  -12.2439 H   0  0  0  0  0  0  0  0  0  0  0  0
   -7.9484    6.6575  -11.6664 H   0  0  0  0  0  0  0  0  0  0  0  0
  -10.4363    3.1210  -10.1219 H   0  0  0  0  0  0  0  0  0  0  0  0
   -7.2894    6.0525  -16.4494 H   0  0  0  0  0  0  0  0  0  0  0  0
   -6.9655    4.3276  -16.7352 H   0  0  0  0  0  0  0  0  0  0  0  0
   -7.5979    5.3631  -18.0335 H   0  0  0  0  0  0  0  0  0  0  0  0
  -10.6063    3.3319  -16.9503 H   0  0  0  0  0  0  0  0  0  0  0  0
   -8.9695    2.7003  -16.9806 H   0  0  0  0  0  0  0  0  0  0  0  0
   -9.5544    3.6870  -18.3386 H   0  0  0  0  0  0  0  0  0  0  0  0
  -11.0407    5.7706  -16.5094 H   0  0  0  0  0  0  0  0  0  0  0  0
   -9.6928    6.9053  -16.2787 H   0  0  0  0  0  0  0  0  0  0  0  0
  -10.0511    6.2298  -17.8842 H   0  0  0  0  0  0  0  0  0  0  0  0
   -9.6985    1.5328   -8.6050 H   0  0  0  0  0  0  0  0  0  0  0  0
   -8.6059    1.7375   -9.8012 H   0  0  0  0  0  0  0  0  0  0  0  0
  1 16  1  0  0  0  0
  1 18  2  0  0  0  0
  1 19  1  0  0  0  0
  2  3  1  0  0  0  0
  2  4  1  0  0  0  0
  3  5  1  0  0  0  0
  4 10  1  0  0  0  0
  5 11  1  0  0  0  0
  6  8  1  0  0  0  0
  6 11  1  0  0  0  0
  7  9  1  0  0  0  0
  7 11  1  0  0  0  0
  8 16  1  0  0  0  0
  9 16  1  0  0  0  0
 10 11  1  0  0  0  0
 10 17  1  0  0  0  0
 12 15  1  0  0  0  0
 13 15  1  0  0  0  0
 14 15  1  0  0  0  0
 15 19  1  0  0  0  0
  2 20  1  0  0  0  0
  2 21  1  0  0  0  0
  3 22  1  0  0  0  0
  3 23  1  0  0  0  0
  4 24  1  0  0  0  0
  4 25  1  0  0  0  0
  5 26  1  0  0  0  0
  5 27  1  0  0  0  0
  6 28  1  0  0  0  0
  6 29  1  0  0  0  0
  7 30  1  0  0  0  0
  7 31  1  0  0  0  0
  8 32  1  0  0  0  0
  8 33  1  0  0  0  0
  9 34  1  0  0  0  0
  9 35  1  0  0  0  0
 10 36  1  0  0  0  0
 12 37  1  0  0  0  0
 12 38  1  0  0  0  0
 12 39  1  0  0  0  0
 13 40  1  0  0  0  0
 13 41  1  0  0  0  0
 13 42  1  0  0  0  0
 14 43  1  0  0  0  0
 14 44  1  0  0  0  0
 14 45  1  0  0  0  0
 17 46  1  0  0  0  0
 17 47  1  0  0  0  0
M  END
> <id>
EN300-366198

> <smiles>
CC(C)(C)OC(=O)N1CCC2(CCCCC2N)CC1

> <MDLNUMBER>
MFCD26674224

> <IUPAC Name>
tert-butyl 7-amino-3-azaspiro[5.5]undecane-3-carboxylate

> <CAS>
1784017-39-5

> <Purity>
95

> <URL>
https://www.enaminestore.com/catalog/EN300-366198

> <ROCS_ShapeQuery>
_x0404_0B

> <ROCS_TanimotoCombo>
0.370 

> <ROCS_ShapeTanimoto>
0.291 

> <ROCS_ColorTanimoto>
0.079 

> <ROCS_RefTversky>
0.263 

> <ROCS_RefColorTversky>
0.083 

> <ROCS_RefTverskyCombo>
0.346 

> <ROCS_FitTversky>
1.562 

> <ROCS_FitColorTversky>
0.630 

> <ROCS_FitTverskyCombo>
2.192 

> <ROCS_ColorScore>
-5.974

> <ROCS_Overlap>
1754.695

> <ROCS_Rank>
377                 

$$$$
untitled-dbase-34732_76
  -OEChem-08212314543D

 45 46  0     1  0  0  0  0  0999 V2000
   -8.4954    5.6185  -14.2606 C   0  0  0  0  0  0  0  0  0  0  0  0
   -7.4460    5.0117  -10.7599 C   0  0  0  0  0  0  0  0  0  0  0  0
   -9.7412    3.9693  -11.1154 C   0  0  0  0  0  0  0  0  0  0  0  0
   -7.9499    5.9357  -11.8645 C   0  0  0  0  0  0  0  0  0  0  0  0
   -9.2614    3.9277  -12.5621 C   0  0  0  0  0  0  0  0  0  0  0  0
   -9.6022    3.0868   -7.6348 C   0  0  0  0  0  0  0  0  0  0  0  0
  -10.0923    4.4006   -8.2221 C   0  0  0  0  0  0  0  0  0  0  0  0
   -8.0481    2.8705   -9.4925 C   0  0  1  0  0  0  0  0  0  0  0  0
   -8.5905    4.2049  -10.0933 C   0  0  0  0  0  0  0  0  0  0  0  0
   -6.7582    3.0293   -8.6690 C   0  0  0  0  0  0  0  0  0  0  0  0
   -7.1040    5.7170  -16.7583 C   0  0  0  0  0  0  0  0  0  0  0  0
   -8.4350    3.6766  -17.3699 C   0  0  0  0  0  0  0  0  0  0  0  0
   -9.6143    5.8417  -16.8907 C   0  0  0  0  0  0  0  0  0  0  0  0
   -8.4145    4.9611  -16.5443 C   0  0  0  0  0  0  0  0  0  0  0  0
   -9.0858    2.2090   -8.6826 N   0  0  0  0  0  0  0  0  0  0  0  0
   -8.5800    5.1697  -12.9395 N   0  0  0  0  0  0  0  0  0  0  0  0
   -8.4136    6.8013  -14.5863 O   0  0  0  0  0  0  0  0  0  0  0  0
   -9.0810    5.0285   -9.0111 O   0  0  0  0  0  0  0  0  0  0  0  0
   -8.5057    4.5887  -15.1644 O   0  0  0  0  0  0  0  0  0  0  0  0
   -6.7056    4.3261  -11.1959 H   0  0  0  0  0  0  0  0  0  0  0  0
   -6.9035    5.6223  -10.0275 H   0  0  0  0  0  0  0  0  0  0  0  0
  -10.4844    4.7757  -11.0222 H   0  0  0  0  0  0  0  0  0  0  0  0
  -10.2629    3.0275  -10.8931 H   0  0  0  0  0  0  0  0  0  0  0  0
   -8.6995    6.6356  -11.4803 H   0  0  0  0  0  0  0  0  0  0  0  0
   -7.1193    6.5310  -12.2547 H   0  0  0  0  0  0  0  0  0  0  0  0
   -8.6093    3.0594  -12.7035 H   0  0  0  0  0  0  0  0  0  0  0  0
  -10.1066    3.8052  -13.2517 H   0  0  0  0  0  0  0  0  0  0  0  0
   -8.8155    3.2760   -6.8932 H   0  0  0  0  0  0  0  0  0  0  0  0
  -10.4210    2.5775   -7.1072 H   0  0  0  0  0  0  0  0  0  0  0  0
  -10.9468    4.2100   -8.8822 H   0  0  0  0  0  0  0  0  0  0  0  0
  -10.4464    5.0887   -7.4452 H   0  0  0  0  0  0  0  0  0  0  0  0
   -7.8056    2.1960  -10.3367 H   0  0  0  0  0  0  0  0  0  0  0  0
   -6.9428    3.6867   -7.8221 H   0  0  0  0  0  0  0  0  0  0  0  0
   -5.9762    3.4578   -9.2921 H   0  0  0  0  0  0  0  0  0  0  0  0
   -6.4343    2.0568   -8.3045 H   0  0  0  0  0  0  0  0  0  0  0  0
   -7.0854    6.6398  -16.1673 H   0  0  0  0  0  0  0  0  0  0  0  0
   -6.2373    5.1085  -16.4802 H   0  0  0  0  0  0  0  0  0  0  0  0
   -6.9932    6.0187  -17.8061 H   0  0  0  0  0  0  0  0  0  0  0  0
   -9.3736    3.1310  -17.2194 H   0  0  0  0  0  0  0  0  0  0  0  0
   -7.6312    2.9997  -17.0585 H   0  0  0  0  0  0  0  0  0  0  0  0
   -8.3209    3.8817  -18.4392 H   0  0  0  0  0  0  0  0  0  0  0  0
  -10.5544    5.2998  -16.7373 H   0  0  0  0  0  0  0  0  0  0  0  0
   -9.6363    6.7512  -16.2816 H   0  0  0  0  0  0  0  0  0  0  0  0
   -9.5930    6.1309  -17.9477 H   0  0  0  0  0  0  0  0  0  0  0  0
   -8.7007    1.3577   -8.2569 H   0  0  0  0  0  0  0  0  0  0  0  0
  1 16  1  0  0  0  0
  1 17  2  0  0  0  0
  1 19  1  0  0  0  0
  2  4  1  0  0  0  0
  2  9  1  0  0  0  0
  3  5  1  0  0  0  0
  3  9  1  0  0  0  0
  4 16  1  0  0  0  0
  5 16  1  0  0  0  0
  6  7  1  0  0  0  0
  6 15  1  0  0  0  0
  7 18  1  0  0  0  0
  8  9  1  0  0  0  0
  8 10  1  0  0  0  0
  8 15  1  0  0  0  0
  9 18  1  0  0  0  0
 11 14  1  0  0  0  0
 12 14  1  0  0  0  0
 13 14  1  0  0  0  0
 14 19  1  0  0  0  0
  2 20  1  0  0  0  0
  2 21  1  0  0  0  0
  3 22  1  0  0  0  0
  3 23  1  0  0  0  0
  4 24  1  0  0  0  0
  4 25  1  0  0  0  0
  5 26  1  0  0  0  0
  5 27  1  0  0  0  0
  6 28  1  0  0  0  0
  6 29  1  0  0  0  0
  7 30  1  0  0  0  0
  7 31  1  0  0  0  0
  8 32  1  0  0  0  0
 10 33  1  0  0  0  0
 10 34  1  0  0  0  0
 10 35  1  0  0  0  0
 11 36  1  0  0  0  0
 11 37  1  0  0  0  0
 11 38  1  0  0  0  0
 12 39  1  0  0  0  0
 12 40  1  0  0  0  0
 12 41  1  0  0  0  0
 13 42  1  0  0  0  0
 13 43  1  0  0  0  0
 13 44  1  0  0  0  0
 15 45  1  0  0  0  0
M  END
> <id>
EN300-1643935

> <smiles>
CC1NCCOC21CCN(CC2)C(=O)OC(C)(C)C

> <IUPAC Name>
tert-butyl 5-methyl-1-oxa-4,9-diazaspiro[5.5]undecane-9-carboxylate

> <CAS>
2171698-26-1

> <URL>
https://www.enaminestore.com/catalog/EN300-1643935

> <ROCS_ShapeQuery>
_x0404_0B

> <ROCS_TanimotoCombo>
0.370 

> <ROCS_ShapeTanimoto>
0.285 

> <ROCS_ColorTanimoto>
0.085 

> <ROCS_RefTversky>
0.260 

> <ROCS_RefColorTversky>
0.089 

> <ROCS_RefTverskyCombo>
0.349 

> <ROCS_FitTversky>
1.523 

> <ROCS_FitColorTversky>
0.618 

> <ROCS_FitTverskyCombo>
2.141 

> <ROCS_ColorScore>
-6.447

> <ROCS_Overlap>
1731.153

> <ROCS_Rank>
378                 

$$$$
untitled-dbase-12033_0
  -OEChem-08212314543D

 34 35  0     0  0  0  0  0  0999 V2000
   -8.8637    5.5589   -9.4998 C   0  0  0  0  0  0  0  0  0  0  0  0
   -9.0385    4.4976   -8.6089 C   0  0  0  0  0  0  0  0  0  0  0  0
   -9.0899    2.8991  -10.4449 C   0  0  0  0  0  0  0  0  0  0  0  0
   -8.8045    5.2729  -10.8521 C   0  0  0  0  0  0  0  0  0  0  0  0
   -8.9163    3.9567  -11.3197 C   0  0  0  0  0  0  0  0  0  0  0  0
   -9.1507    3.1781   -9.0777 C   0  0  0  0  0  0  0  0  0  0  0  0
   -8.5037    5.8207  -14.4601 C   0  0  0  0  0  0  0  0  0  0  0  0
   -8.6263    6.2167  -11.9942 C   0  0  0  0  0  0  0  0  0  0  0  0
   -8.8204    3.9245  -12.8089 C   0  0  0  0  0  0  0  0  0  0  0  0
   -7.0633    5.9133  -16.9259 C   0  0  0  0  0  0  0  0  0  0  0  0
   -8.4850    3.9614  -17.6173 C   0  0  0  0  0  0  0  0  0  0  0  0
   -9.5611    6.1706  -17.0980 C   0  0  0  0  0  0  0  0  0  0  0  0
   -8.4145    5.2204  -16.7558 C   0  0  0  0  0  0  0  0  0  0  0  0
   -8.6426    5.3387  -13.1691 N   0  0  0  0  0  0  0  0  0  0  0  0
   -8.3562    7.0079  -14.7412 O   0  0  0  0  0  0  0  0  0  0  0  0
   -9.3208    2.1602   -8.1876 O   0  0  0  0  0  0  0  0  0  0  0  0
   -8.5501    4.8158  -15.3889 O   0  0  0  0  0  0  0  0  0  0  0  0
   -8.7774    6.5769   -9.1359 H   0  0  0  0  0  0  0  0  0  0  0  0
   -9.0877    4.6997   -7.5417 H   0  0  0  0  0  0  0  0  0  0  0  0
   -9.1760    1.8813  -10.8110 H   0  0  0  0  0  0  0  0  0  0  0  0
   -9.4502    6.9321  -12.0756 H   0  0  0  0  0  0  0  0  0  0  0  0
   -7.6664    6.7404  -11.9565 H   0  0  0  0  0  0  0  0  0  0  0  0
   -7.9515    3.3577  -13.1560 H   0  0  0  0  0  0  0  0  0  0  0  0
   -9.7370    3.5516  -13.2756 H   0  0  0  0  0  0  0  0  0  0  0  0
   -7.0087    6.8175  -16.3091 H   0  0  0  0  0  0  0  0  0  0  0  0
   -6.2341    5.2537  -16.6502 H   0  0  0  0  0  0  0  0  0  0  0  0
   -6.9179    6.2373  -17.9628 H   0  0  0  0  0  0  0  0  0  0  0  0
   -9.4528    3.4610  -17.4984 H   0  0  0  0  0  0  0  0  0  0  0  0
   -7.7227    3.2359  -17.3114 H   0  0  0  0  0  0  0  0  0  0  0  0
   -8.3407    4.1893  -18.6784 H   0  0  0  0  0  0  0  0  0  0  0  0
  -10.5304    5.6738  -16.9760 H   0  0  0  0  0  0  0  0  0  0  0  0
   -9.5481    7.0631  -16.4641 H   0  0  0  0  0  0  0  0  0  0  0  0
   -9.5055    6.4869  -18.1459 H   0  0  0  0  0  0  0  0  0  0  0  0
   -9.3434    2.5077   -7.2823 H   0  0  0  0  0  0  0  0  0  0  0  0
  1  2  1  0  0  0  0
  1  4  2  0  0  0  0
  2  6  2  0  0  0  0
  3  5  2  0  0  0  0
  3  6  1  0  0  0  0
  4  5  1  0  0  0  0
  4  8  1  0  0  0  0
  5  9  1  0  0  0  0
  6 16  1  0  0  0  0
  7 14  1  0  0  0  0
  7 15  2  0  0  0  0
  7 17  1  0  0  0  0
  8 14  1  0  0  0  0
  9 14  1  0  0  0  0
 10 13  1  0  0  0  0
 11 13  1  0  0  0  0
 12 13  1  0  0  0  0
 13 17  1  0  0  0  0
  1 18  1  0  0  0  0
  2 19  1  0  0  0  0
  3 20  1  0  0  0  0
  8 21  1  0  0  0  0
  8 22  1  0  0  0  0
  9 23  1  0  0  0  0
  9 24  1  0  0  0  0
 10 25  1  0  0  0  0
 10 26  1  0  0  0  0
 10 27  1  0  0  0  0
 11 28  1  0  0  0  0
 11 29  1  0  0  0  0
 11 30  1  0  0  0  0
 12 31  1  0  0  0  0
 12 32  1  0  0  0  0
 12 33  1  0  0  0  0
 16 34  1  0  0  0  0
M  END
> <id>
EN300-378118

> <smiles>
CC(C)(C)OC(=O)N1CC=2C=CC(O)=CC2C1

> <MDLNUMBER>
MFCD10700132

> <IUPAC Name>
tert-butyl 5-hydroxy-2,3-dihydro-1H-isoindole-2-carboxylate

> <CAS>
226070-47-9

> <Purity>
95

> <URL>
https://www.enaminestore.com/catalog/EN300-378118

> <MP>
169-170

> <ROCS_ShapeQuery>
_x0404_0B

> <ROCS_TanimotoCombo>
0.370 

> <ROCS_ShapeTanimoto>
0.302 

> <ROCS_ColorTanimoto>
0.068 

> <ROCS_RefTversky>
0.269 

> <ROCS_RefColorTversky>
0.072 

> <ROCS_RefTverskyCombo>
0.341 

> <ROCS_FitTversky>
1.669 

> <ROCS_FitColorTversky>
0.547 

> <ROCS_FitTverskyCombo>
2.216 

> <ROCS_ColorScore>
-5.193

> <ROCS_Overlap>
1793.375

> <ROCS_Rank>
379                 

$$$$
untitled-dbase-41815_14
  -OEChem-08212314543D

 43 44  0     1  0  0  0  0  0999 V2000
   -8.4312    5.6739  -14.4255 C   0  0  0  0  0  0  0  0  0  0  0  0
   -9.4967    6.3177  -10.9305 C   0  0  0  0  0  0  0  0  0  0  0  0
   -8.2819    4.0728  -11.0186 C   0  0  0  0  0  0  0  0  0  0  0  0
   -8.0955    5.5407   -8.9483 C   0  0  0  0  0  0  0  0  0  0  0  0
   -8.6052    6.5970  -12.1341 C   0  0  0  0  0  0  0  0  0  0  0  0
   -8.7495    4.1230  -12.4701 C   0  0  0  0  0  0  0  0  0  0  0  0
   -7.9674    4.3629   -7.9885 C   0  0  0  0  0  0  0  0  0  0  0  0
  -10.2272    4.4455   -9.3972 C   0  0  0  0  0  0  0  0  0  0  0  0
   -9.0184    5.0959  -10.1116 C   0  0  0  0  0  0  0  0  0  0  0  0
   -6.9617    5.3221  -16.8546 C   0  0  0  0  0  0  0  0  0  0  0  0
   -8.3223    3.2328  -17.1588 C   0  0  0  0  0  0  0  0  0  0  0  0
   -9.4629    5.4695  -17.0925 C   0  0  0  0  0  0  0  0  0  0  0  0
   -8.2961    4.6380  -16.5614 C   0  0  0  0  0  0  0  0  0  0  0  0
  -10.3239    4.1812   -6.7159 N   0  0  0  0  0  0  0  0  0  0  0  0
   -8.5828    5.4585  -13.0523 N   0  0  0  0  0  0  0  0  0  0  0  0
   -8.3109    6.7828  -14.9432 O   0  0  0  0  0  0  0  0  0  0  0  0
   -9.4182    2.2096   -8.2740 O   0  0  0  0  0  0  0  0  0  0  0  0
   -8.4387    4.5064  -15.1425 O   0  0  0  0  0  0  0  0  0  0  0  0
   -9.5856    3.6131   -7.9463 S   0  0  2  0  0  0  0  0  0  0  0  0
   -9.5107    7.2059  -10.2855 H   0  0  0  0  0  0  0  0  0  0  0  0
  -10.5278    6.1680  -11.2720 H   0  0  0  0  0  0  0  0  0  0  0  0
   -8.4042    3.0524  -10.6460 H   0  0  0  0  0  0  0  0  0  0  0  0
   -7.2065    4.2847  -10.9947 H   0  0  0  0  0  0  0  0  0  0  0  0
   -8.5527    6.3841   -8.4173 H   0  0  0  0  0  0  0  0  0  0  0  0
   -7.1133    5.8701   -9.2987 H   0  0  0  0  0  0  0  0  0  0  0  0
   -8.9687    7.4638  -12.6989 H   0  0  0  0  0  0  0  0  0  0  0  0
   -7.5917    6.8361  -11.7946 H   0  0  0  0  0  0  0  0  0  0  0  0
   -8.2057    3.3693  -13.0497 H   0  0  0  0  0  0  0  0  0  0  0  0
   -9.8142    3.8707  -12.5496 H   0  0  0  0  0  0  0  0  0  0  0  0
   -7.2562    3.6189   -8.3552 H   0  0  0  0  0  0  0  0  0  0  0  0
   -7.6742    4.6793   -6.9863 H   0  0  0  0  0  0  0  0  0  0  0  0
  -10.9335    5.2081   -9.0495 H   0  0  0  0  0  0  0  0  0  0  0  0
  -10.7696    3.7197  -10.0080 H   0  0  0  0  0  0  0  0  0  0  0  0
   -6.9389    6.3311  -16.4274 H   0  0  0  0  0  0  0  0  0  0  0  0
   -6.1189    4.7534  -16.4482 H   0  0  0  0  0  0  0  0  0  0  0  0
   -6.8114    5.4399  -17.9338 H   0  0  0  0  0  0  0  0  0  0  0  0
   -9.2780    2.7382  -16.9508 H   0  0  0  0  0  0  0  0  0  0  0  0
   -7.5451    2.6035  -16.7103 H   0  0  0  0  0  0  0  0  0  0  0  0
   -8.1704    3.2517  -18.2428 H   0  0  0  0  0  0  0  0  0  0  0  0
  -10.4202    4.9790  -16.8823 H   0  0  0  0  0  0  0  0  0  0  0  0
   -9.4816    6.4692  -16.6466 H   0  0  0  0  0  0  0  0  0  0  0  0
   -9.4021    5.5751  -18.1817 H   0  0  0  0  0  0  0  0  0  0  0  0
  -11.2727    3.8164   -6.5918 H   0  0  0  0  0  0  0  0  0  0  0  0
  1 15  1  0  0  0  0
  1 16  2  0  0  0  0
  1 18  1  0  0  0  0
  2  5  1  0  0  0  0
  2  9  1  0  0  0  0
  3  6  1  0  0  0  0
  3  9  1  0  0  0  0
  4  7  1  0  0  0  0
  4  9  1  0  0  0  0
  5 15  1  0  0  0  0
  6 15  1  0  0  0  0
  7 19  1  0  0  0  0
  8  9  1  0  0  0  0
  8 19  1  0  0  0  0
 10 13  1  0  0  0  0
 11 13  1  0  0  0  0
 12 13  1  0  0  0  0
 13 18  1  0  0  0  0
 14 19  2  0  0  0  0
 17 19  2  0  0  0  0
  2 20  1  0  0  0  0
  2 21  1  0  0  0  0
  3 22  1  0  0  0  0
  3 23  1  0  0  0  0
  4 24  1  0  0  0  0
  4 25  1  0  0  0  0
  5 26  1  0  0  0  0
  5 27  1  0  0  0  0
  6 28  1  0  0  0  0
  6 29  1  0  0  0  0
  7 30  1  0  0  0  0
  7 31  1  0  0  0  0
  8 32  1  0  0  0  0
  8 33  1  0  0  0  0
 10 34  1  0  0  0  0
 10 35  1  0  0  0  0
 10 36  1  0  0  0  0
 11 37  1  0  0  0  0
 11 38  1  0  0  0  0
 11 39  1  0  0  0  0
 12 40  1  0  0  0  0
 12 41  1  0  0  0  0
 12 42  1  0  0  0  0
 14 43  1  0  0  0  0
M  END
> <id>
EN300-27144490

> <smiles>
CC(C)(C)OC(=O)N1CCC2(CCS(=N)(=O)C2)CC1

> <MDLNUMBER>
MFCD32859602

> <IUPAC Name>
tert-butyl 2-imino-2-oxo-2??-thia-8-azaspiro[4.5]decane-8-carboxylate

> <CAS>
2503206-19-5

> <Purity>
95

> <URL>
https://www.enaminestore.com/catalog/EN300-27144490

> <ROCS_ShapeQuery>
_x0404_0B

> <ROCS_TanimotoCombo>
0.370 

> <ROCS_ShapeTanimoto>
0.303 

> <ROCS_ColorTanimoto>
0.067 

> <ROCS_RefTversky>
0.271 

> <ROCS_RefColorTversky>
0.070 

> <ROCS_RefTverskyCombo>
0.341 

> <ROCS_FitTversky>
1.625 

> <ROCS_FitColorTversky>
0.589 

> <ROCS_FitTverskyCombo>
2.214 

> <ROCS_ColorScore>
-5.028

> <ROCS_Overlap>
1808.957

> <ROCS_Rank>
380                 

$$$$
untitled-dbase-45454_5
  -OEChem-08212314543D

 36 37  0     0  0  0  0  0  0999 V2000
   -9.0555    4.0483  -12.1936 C   0  0  0  0  0  0  0  0  0  0  0  0
   -9.1749    3.8977  -10.8668 C   0  0  0  0  0  0  0  0  0  0  0  0
   -8.8295    5.0004   -9.9186 C   0  0  0  0  0  0  0  0  0  0  0  0
   -8.4784    5.3075  -14.1997 C   0  0  0  0  0  0  0  0  0  0  0  0
   -9.6269    2.5927  -10.2673 C   0  0  0  0  0  0  0  0  0  0  0  0
   -8.5381    4.6228   -8.4762 C   0  0  0  0  0  0  0  0  0  0  0  0
   -9.2355    3.3479   -8.0288 C   0  0  0  0  0  0  0  0  0  0  0  0
   -7.1117    4.4010  -16.5445 C   0  0  0  0  0  0  0  0  0  0  0  0
   -8.8534    2.5934  -16.6363 C   0  0  0  0  0  0  0  0  0  0  0  0
   -9.5373    5.0009  -16.8469 C   0  0  0  0  0  0  0  0  0  0  0  0
   -8.5529    4.0263  -16.2019 C   0  0  0  0  0  0  0  0  0  0  0  0
   -8.6896    6.2463  -10.2337 N   0  0  0  0  0  0  0  0  0  0  0  0
   -8.9915    2.2739   -8.9881 N   0  0  0  0  0  0  0  0  0  0  0  0
   -8.6686    5.2983  -12.7688 N   0  0  0  0  0  0  0  0  0  0  0  0
   -8.1468    6.3026  -14.8375 O   0  0  0  0  0  0  0  0  0  0  0  0
   -7.8501    7.6342  -12.1143 O   0  0  0  0  0  0  0  0  0  0  0  0
  -10.2888    7.0975  -11.9518 O   0  0  0  0  0  0  0  0  0  0  0  0
   -8.7145    4.0891  -14.7805 O   0  0  0  0  0  0  0  0  0  0  0  0
   -8.9035    6.6871  -11.7847 S   0  0  0  0  0  0  0  0  0  0  0  0
   -9.2545    3.2259  -12.8714 H   0  0  0  0  0  0  0  0  0  0  0  0
  -10.7168    2.6200  -10.1394 H   0  0  0  0  0  0  0  0  0  0  0  0
   -9.4138    1.7672  -10.9571 H   0  0  0  0  0  0  0  0  0  0  0  0
   -7.4501    4.5130   -8.3839 H   0  0  0  0  0  0  0  0  0  0  0  0
   -8.8395    5.4508   -7.8239 H   0  0  0  0  0  0  0  0  0  0  0  0
   -8.8451    3.0507   -7.0493 H   0  0  0  0  0  0  0  0  0  0  0  0
  -10.3127    3.5166   -7.9063 H   0  0  0  0  0  0  0  0  0  0  0  0
   -6.8921    5.4289  -16.2342 H   0  0  0  0  0  0  0  0  0  0  0  0
   -6.3945    3.7307  -16.0596 H   0  0  0  0  0  0  0  0  0  0  0  0
   -6.9444    4.3624  -17.6269 H   0  0  0  0  0  0  0  0  0  0  0  0
   -9.8864    2.3203  -16.3924 H   0  0  0  0  0  0  0  0  0  0  0  0
   -8.2121    1.8816  -16.1040 H   0  0  0  0  0  0  0  0  0  0  0  0
   -8.7037    2.4576  -17.7122 H   0  0  0  0  0  0  0  0  0  0  0  0
  -10.5711    4.7324  -16.6013 H   0  0  0  0  0  0  0  0  0  0  0  0
   -9.3601    6.0300  -16.5178 H   0  0  0  0  0  0  0  0  0  0  0  0
   -9.4601    4.9666  -17.9396 H   0  0  0  0  0  0  0  0  0  0  0  0
   -9.3886    1.4060   -8.6288 H   0  0  0  0  0  0  0  0  0  0  0  0
  1  2  2  0  0  0  0
  1 14  1  0  0  0  0
  2  3  1  0  0  0  0
  2  5  1  0  0  0  0
  3  6  1  0  0  0  0
  3 12  2  0  0  0  0
  4 14  1  0  0  0  0
  4 15  2  0  0  0  0
  4 18  1  0  0  0  0
  5 13  1  0  0  0  0
  6  7  1  0  0  0  0
  7 13  1  0  0  0  0
  8 11  1  0  0  0  0
  9 11  1  0  0  0  0
 10 11  1  0  0  0  0
 11 18  1  0  0  0  0
 12 19  1  0  0  0  0
 14 19  1  0  0  0  0
 16 19  2  0  0  0  0
 17 19  2  0  0  0  0
  1 20  1  0  0  0  0
  5 21  1  0  0  0  0
  5 22  1  0  0  0  0
  6 23  1  0  0  0  0
  6 24  1  0  0  0  0
  7 25  1  0  0  0  0
  7 26  1  0  0  0  0
  8 27  1  0  0  0  0
  8 28  1  0  0  0  0
  8 29  1  0  0  0  0
  9 30  1  0  0  0  0
  9 31  1  0  0  0  0
  9 32  1  0  0  0  0
 10 33  1  0  0  0  0
 10 34  1  0  0  0  0
 10 35  1  0  0  0  0
 13 36  1  0  0  0  0
M  END
> <id>
EN300-28287549

> <smiles>
CC(C)(C)OC(=O)N1C=C2CNCCC2=NS1(=O)=O

> <IUPAC Name>
tert-butyl 2,2-dioxo-3H,5H,6H,7H,8H-2lambda6-pyrido[4,3-c][1,2,6]thiadiazine-3-carboxylate

> <CAS>
2680768-47-0

> <URL>
https://www.enaminestore.com/catalog/EN300-28287549

> <ROCS_ShapeQuery>
_x0404_0B

> <ROCS_TanimotoCombo>
0.369 

> <ROCS_ShapeTanimoto>
0.279 

> <ROCS_ColorTanimoto>
0.090 

> <ROCS_RefTversky>
0.255 

> <ROCS_RefColorTversky>
0.096 

> <ROCS_RefTverskyCombo>
0.351 

> <ROCS_FitTversky>
1.499 

> <ROCS_FitColorTversky>
0.608 

> <ROCS_FitTverskyCombo>
2.107 

> <ROCS_ColorScore>
-6.924

> <ROCS_Overlap>
1702.904

> <ROCS_Rank>
381                 

$$$$
untitled-dbase-44549_284
  -OEChem-08212314543D

 44 45  0     0  0  0  0  0  0999 V2000
   -8.4903    5.6513  -14.4398 C   0  0  0  0  0  0  0  0  0  0  0  0
   -8.0368    6.1350  -10.7965 C   0  0  0  0  0  0  0  0  0  0  0  0
   -9.5484    4.1167  -11.1643 C   0  0  0  0  0  0  0  0  0  0  0  0
   -8.6392    6.5478  -12.1346 C   0  0  0  0  0  0  0  0  0  0  0  0
   -8.8125    4.0796  -12.5014 C   0  0  0  0  0  0  0  0  0  0  0  0
   -9.5633    5.8077   -7.8816 C   0  0  0  0  0  0  0  0  0  0  0  0
   -9.5424    4.4964   -7.1136 C   0  0  0  0  0  0  0  0  0  0  0  0
   -7.8208    4.1497   -9.2799 C   0  0  0  0  0  0  0  0  0  0  0  0
   -8.8317    4.9919  -10.0970 C   0  0  0  0  0  0  0  0  0  0  0  0
   -6.9964    5.2872  -16.8522 C   0  0  0  0  0  0  0  0  0  0  0  0
   -8.4091    3.2397  -17.2002 C   0  0  0  0  0  0  0  0  0  0  0  0
   -9.4891    5.5060  -17.1231 C   0  0  0  0  0  0  0  0  0  0  0  0
   -8.3531    4.6367  -16.5858 C   0  0  0  0  0  0  0  0  0  0  0  0
   -9.9146    5.5767   -9.2765 N   0  0  0  0  0  0  0  0  0  0  0  0
   -8.6519    5.4225  -13.0701 N   0  0  0  0  0  0  0  0  0  0  0  0
   -8.3323    6.7623  -14.9423 O   0  0  0  0  0  0  0  0  0  0  0  0
   -9.4116    2.2340   -8.4353 O   0  0  0  0  0  0  0  0  0  0  0  0
   -7.4525    2.9176   -7.0049 O   0  0  0  0  0  0  0  0  0  0  0  0
   -8.5194    4.4926  -15.1707 O   0  0  0  0  0  0  0  0  0  0  0  0
   -8.5338    3.2606   -7.9089 S   0  0  0  0  0  0  0  0  0  0  0  0
   -7.0024    5.8096  -10.9630 H   0  0  0  0  0  0  0  0  0  0  0  0
   -7.9828    7.0138  -10.1433 H   0  0  0  0  0  0  0  0  0  0  0  0
  -10.5736    4.4531  -11.3439 H   0  0  0  0  0  0  0  0  0  0  0  0
   -9.6356    3.0888  -10.7860 H   0  0  0  0  0  0  0  0  0  0  0  0
   -9.6714    6.8950  -12.0264 H   0  0  0  0  0  0  0  0  0  0  0  0
   -8.0668    7.3865  -12.5386 H   0  0  0  0  0  0  0  0  0  0  0  0
   -7.8323    3.6103  -12.3635 H   0  0  0  0  0  0  0  0  0  0  0  0
   -9.3497    3.4740  -13.2405 H   0  0  0  0  0  0  0  0  0  0  0  0
  -10.2277    6.5269   -7.4125 H   0  0  0  0  0  0  0  0  0  0  0  0
   -8.5603    6.2299   -7.8510 H   0  0  0  0  0  0  0  0  0  0  0  0
   -9.1424    4.6409   -6.1005 H   0  0  0  0  0  0  0  0  0  0  0  0
  -10.5536    4.0798   -7.0203 H   0  0  0  0  0  0  0  0  0  0  0  0
   -7.3139    3.4106   -9.9088 H   0  0  0  0  0  0  0  0  0  0  0  0
   -7.0523    4.7985   -8.8431 H   0  0  0  0  0  0  0  0  0  0  0  0
   -6.9522    6.2902  -16.4127 H   0  0  0  0  0  0  0  0  0  0  0  0
   -6.1754    4.6909  -16.4409 H   0  0  0  0  0  0  0  0  0  0  0  0
   -6.8276    5.4133  -17.9277 H   0  0  0  0  0  0  0  0  0  0  0  0
   -9.3808    2.7692  -17.0115 H   0  0  0  0  0  0  0  0  0  0  0  0
   -7.6559    2.5842  -16.7485 H   0  0  0  0  0  0  0  0  0  0  0  0
   -8.2413    3.2670  -18.2817 H   0  0  0  0  0  0  0  0  0  0  0  0
  -10.4623    5.0396  -16.9322 H   0  0  0  0  0  0  0  0  0  0  0  0
   -9.4868    6.5006  -16.6656 H   0  0  0  0  0  0  0  0  0  0  0  0
   -9.4099    5.6224  -18.2101 H   0  0  0  0  0  0  0  0  0  0  0  0
  -10.7384    4.9841   -9.3097 H   0  0  0  0  0  0  0  0  0  0  0  0
  1 15  1  0  0  0  0
  1 16  2  0  0  0  0
  1 19  1  0  0  0  0
  2  4  1  0  0  0  0
  2  9  1  0  0  0  0
  3  5  1  0  0  0  0
  3  9  1  0  0  0  0
  4 15  1  0  0  0  0
  5 15  1  0  0  0  0
  6  7  1  0  0  0  0
  6 14  1  0  0  0  0
  7 20  1  0  0  0  0
  8  9  1  0  0  0  0
  8 20  1  0  0  0  0
  9 14  1  0  0  0  0
 10 13  1  0  0  0  0
 11 13  1  0  0  0  0
 12 13  1  0  0  0  0
 13 19  1  0  0  0  0
 17 20  2  0  0  0  0
 18 20  2  0  0  0  0
  2 21  1  0  0  0  0
  2 22  1  0  0  0  0
  3 23  1  0  0  0  0
  3 24  1  0  0  0  0
  4 25  1  0  0  0  0
  4 26  1  0  0  0  0
  5 27  1  0  0  0  0
  5 28  1  0  0  0  0
  6 29  1  0  0  0  0
  6 30  1  0  0  0  0
  7 31  1  0  0  0  0
  7 32  1  0  0  0  0
  8 33  1  0  0  0  0
  8 34  1  0  0  0  0
 10 35  1  0  0  0  0
 10 36  1  0  0  0  0
 10 37  1  0  0  0  0
 11 38  1  0  0  0  0
 11 39  1  0  0  0  0
 11 40  1  0  0  0  0
 12 41  1  0  0  0  0
 12 42  1  0  0  0  0
 12 43  1  0  0  0  0
 14 44  1  0  0  0  0
M  END
> <id>
EN300-21631069

> <smiles>
CC(C)(C)OC(=O)N1CCC2(CC1)CS(=O)(=O)CCN2

> <MDLNUMBER>
MFCD29042982

> <IUPAC Name>
tert-butyl 4,4-dioxo-4lambda6-thia-1,9-diazaspiro[5.5]undecane-9-carboxylate

> <CAS>
1935364-49-0

> <Purity>
95

> <URL>
https://www.enaminestore.com/catalog/EN300-21631069

> <ROCS_ShapeQuery>
_x0404_0B

> <ROCS_TanimotoCombo>
0.369 

> <ROCS_ShapeTanimoto>
0.308 

> <ROCS_ColorTanimoto>
0.062 

> <ROCS_RefTversky>
0.276 

> <ROCS_RefColorTversky>
0.067 

> <ROCS_RefTverskyCombo>
0.343 

> <ROCS_FitTversky>
1.590 

> <ROCS_FitColorTversky>
0.427 

> <ROCS_FitTverskyCombo>
2.017 

> <ROCS_ColorScore>
-4.861

> <ROCS_Overlap>
1841.287

> <ROCS_Rank>
382                 

$$$$
untitled-dbase-38796_147
  -OEChem-08212314543D

 41 42  0     1  0  0  0  0  0999 V2000
   -8.8764    3.0792   -8.6819 C   0  0  0  0  0  0  0  0  0  0  0  0
   -8.3352    5.6718  -14.3800 C   0  0  0  0  0  0  0  0  0  0  0  0
   -9.6974    4.5789  -11.0932 C   0  0  0  0  0  0  0  0  0  0  0  0
   -7.7347    6.1604  -10.7068 C   0  0  0  0  0  0  0  0  0  0  0  0
   -7.8724    5.1450   -7.8411 C   0  0  0  0  0  0  0  0  0  0  0  0
   -8.9706    4.3223  -12.4057 C   0  0  0  0  0  0  0  0  0  0  0  0
   -8.1857    6.6727  -12.0730 C   0  0  0  0  0  0  0  0  0  0  0  0
   -9.1238    6.0024   -7.8388 C   0  0  0  0  0  0  0  0  0  0  0  0
   -8.0725    4.2578   -9.0574 C   0  0  2  0  0  0  0  0  0  0  0  0
   -8.7807    5.2250  -10.0338 C   0  0  0  0  0  0  0  0  0  0  0  0
   -6.7104    5.4399  -16.7231 C   0  0  0  0  0  0  0  0  0  0  0  0
   -7.5262    3.0666  -16.8293 C   0  0  0  0  0  0  0  0  0  0  0  0
   -9.1621    4.9616  -17.0316 C   0  0  0  0  0  0  0  0  0  0  0  0
   -7.8593    4.4900  -16.3874 C   0  0  0  0  0  0  0  0  0  0  0  0
   -9.5086    2.1523   -8.3866 N   0  0  0  0  0  0  0  0  0  0  0  0
   -8.4814    5.5693  -12.9932 N   0  0  0  0  0  0  0  0  0  0  0  0
   -8.4542    6.7199  -15.0120 O   0  0  0  0  0  0  0  0  0  0  0  0
   -9.6107    6.0590   -9.1877 O   0  0  0  0  0  0  0  0  0  0  0  0
   -8.0342    4.4707  -14.9661 O   0  0  0  0  0  0  0  0  0  0  0  0
  -10.5441    5.2384  -11.3140 H   0  0  0  0  0  0  0  0  0  0  0  0
  -10.0985    3.6335  -10.7097 H   0  0  0  0  0  0  0  0  0  0  0  0
   -6.7834    5.6236  -10.8217 H   0  0  0  0  0  0  0  0  0  0  0  0
   -7.5391    7.0341  -10.0733 H   0  0  0  0  0  0  0  0  0  0  0  0
   -6.9938    5.7838   -7.9869 H   0  0  0  0  0  0  0  0  0  0  0  0
   -7.7349    4.6096   -6.8967 H   0  0  0  0  0  0  0  0  0  0  0  0
   -8.1434    3.6239  -12.2424 H   0  0  0  0  0  0  0  0  0  0  0  0
   -9.6424    3.8620  -13.1400 H   0  0  0  0  0  0  0  0  0  0  0  0
   -9.1043    7.2686  -11.9801 H   0  0  0  0  0  0  0  0  0  0  0  0
   -7.4180    7.3383  -12.4838 H   0  0  0  0  0  0  0  0  0  0  0  0
   -9.9098    5.5580   -7.2197 H   0  0  0  0  0  0  0  0  0  0  0  0
   -8.9314    7.0164   -7.4771 H   0  0  0  0  0  0  0  0  0  0  0  0
   -7.1153    3.9054   -9.4528 H   0  0  0  0  0  0  0  0  0  0  0  0
   -6.9456    6.4626  -16.4074 H   0  0  0  0  0  0  0  0  0  0  0  0
   -5.7780    5.1322  -16.2386 H   0  0  0  0  0  0  0  0  0  0  0  0
   -6.5410    5.4816  -17.8051 H   0  0  0  0  0  0  0  0  0  0  0  0
   -8.3478    2.3816  -16.5904 H   0  0  0  0  0  0  0  0  0  0  0  0
   -6.6451    2.6890  -16.2979 H   0  0  0  0  0  0  0  0  0  0  0  0
   -7.3316    3.0127  -17.9053 H   0  0  0  0  0  0  0  0  0  0  0  0
   -9.9863    4.2804  -16.7909 H   0  0  0  0  0  0  0  0  0  0  0  0
   -9.4363    5.9674  -16.6972 H   0  0  0  0  0  0  0  0  0  0  0  0
   -9.0762    4.9692  -18.1242 H   0  0  0  0  0  0  0  0  0  0  0  0
  1  9  1  0  0  0  0
  1 15  3  0  0  0  0
  2 16  1  0  0  0  0
  2 17  2  0  0  0  0
  2 19  1  0  0  0  0
  3  6  1  0  0  0  0
  3 10  1  0  0  0  0
  4  7  1  0  0  0  0
  4 10  1  0  0  0  0
  5  8  1  0  0  0  0
  5  9  1  0  0  0  0
  6 16  1  0  0  0  0
  7 16  1  0  0  0  0
  8 18  1  0  0  0  0
  9 10  1  0  0  0  0
 10 18  1  0  0  0  0
 11 14  1  0  0  0  0
 12 14  1  0  0  0  0
 13 14  1  0  0  0  0
 14 19  1  0  0  0  0
  3 20  1  0  0  0  0
  3 21  1  0  0  0  0
  4 22  1  0  0  0  0
  4 23  1  0  0  0  0
  5 24  1  0  0  0  0
  5 25  1  0  0  0  0
  6 26  1  0  0  0  0
  6 27  1  0  0  0  0
  7 28  1  0  0  0  0
  7 29  1  0  0  0  0
  8 30  1  0  0  0  0
  8 31  1  0  0  0  0
  9 32  1  0  0  0  0
 11 33  1  0  0  0  0
 11 34  1  0  0  0  0
 11 35  1  0  0  0  0
 12 36  1  0  0  0  0
 12 37  1  0  0  0  0
 12 38  1  0  0  0  0
 13 39  1  0  0  0  0
 13 40  1  0  0  0  0
 13 41  1  0  0  0  0
M  END
> <id>
EN300-744262

> <smiles>
CC(C)(C)OC(=O)N1CCC2(CC1)OCCC2C#N

> <MDLNUMBER>
MFCD31455372

> <IUPAC Name>
tert-butyl 4-cyano-1-oxa-8-azaspiro[4.5]decane-8-carboxylate

> <CAS>
2122067-54-1

> <URL>
https://www.enaminestore.com/catalog/EN300-744262

> <ROCS_ShapeQuery>
_x0404_0B

> <ROCS_TanimotoCombo>
0.369 

> <ROCS_ShapeTanimoto>
0.297 

> <ROCS_ColorTanimoto>
0.072 

> <ROCS_RefTversky>
0.269 

> <ROCS_RefColorTversky>
0.076 

> <ROCS_RefTverskyCombo>
0.344 

> <ROCS_FitTversky>
1.568 

> <ROCS_FitColorTversky>
0.577 

> <ROCS_FitTverskyCombo>
2.145 

> <ROCS_ColorScore>
-5.472

> <ROCS_Overlap>
1790.264

> <ROCS_Rank>
383                 

$$$$
untitled-dbase-30724_203
  -OEChem-08212314543D

 38 40  0     1  0  0  0  0  0999 V2000
   -9.5673    2.5210   -8.3828 C   0  0  0  0  0  0  0  0  0  0  0  0
   -9.2943    2.7847   -9.7157 C   0  0  0  0  0  0  0  0  0  0  0  0
   -8.9091    4.5352   -8.4117 C   0  0  0  0  0  0  0  0  0  0  0  0
   -8.2887    5.6909  -13.9635 C   0  0  0  0  0  0  0  0  0  0  0  0
   -7.8312    6.1687   -9.7397 C   0  0  0  0  0  0  0  0  0  0  0  0
   -9.5019    5.4517  -11.6634 C   0  0  0  0  0  0  0  0  0  0  0  0
   -7.5729    4.5196  -11.8027 C   0  0  0  0  0  0  0  0  0  0  0  0
   -8.4751    5.9415   -8.3417 C   0  0  1  0  0  0  0  0  0  0  0  0
   -8.4211    5.0532  -10.6406 C   0  0  0  0  0  0  0  0  0  0  0  0
   -6.6397    6.4596  -16.2644 C   0  0  0  0  0  0  0  0  0  0  0  0
   -6.8323    4.0467  -16.9353 C   0  0  0  0  0  0  0  0  0  0  0  0
   -8.8892    5.4844  -16.8332 C   0  0  0  0  0  0  0  0  0  0  0  0
   -7.5169    5.2093  -16.2199 C   0  0  0  0  0  0  0  0  0  0  0  0
   -9.3235    3.6209   -7.5718 N   0  0  0  0  0  0  0  0  0  0  0  0
   -8.8767    4.0654   -9.6784 N   0  0  0  0  0  0  0  0  0  0  0  0
   -8.4899    5.2324  -12.6835 N   0  0  0  0  0  0  0  0  0  0  0  0
   -8.6662    6.7988  -14.3442 O   0  0  0  0  0  0  0  0  0  0  0  0
   -9.6431    6.7324   -8.1965 O   0  0  0  0  0  0  0  0  0  0  0  0
   -7.6979    4.8264  -14.8470 O   0  0  0  0  0  0  0  0  0  0  0  0
   -9.9297    1.5940   -7.9620 H   0  0  0  0  0  0  0  0  0  0  0  0
   -9.3644    2.1906  -10.6157 H   0  0  0  0  0  0  0  0  0  0  0  0
   -8.0197    7.1692  -10.1380 H   0  0  0  0  0  0  0  0  0  0  0  0
   -6.7477    6.0220   -9.6552 H   0  0  0  0  0  0  0  0  0  0  0  0
  -10.3653    4.7888  -11.7578 H   0  0  0  0  0  0  0  0  0  0  0  0
   -9.8337    6.4925  -11.6271 H   0  0  0  0  0  0  0  0  0  0  0  0
   -6.5551    4.9122  -11.8650 H   0  0  0  0  0  0  0  0  0  0  0  0
   -7.5663    3.4394  -11.9591 H   0  0  0  0  0  0  0  0  0  0  0  0
   -7.7824    6.1485   -7.5224 H   0  0  0  0  0  0  0  0  0  0  0  0
   -7.1277    7.2964  -15.7519 H   0  0  0  0  0  0  0  0  0  0  0  0
   -5.6654    6.2856  -15.7962 H   0  0  0  0  0  0  0  0  0  0  0  0
   -6.4740    6.7844  -17.2980 H   0  0  0  0  0  0  0  0  0  0  0  0
   -7.4582    3.1475  -16.9059 H   0  0  0  0  0  0  0  0  0  0  0  0
   -5.8906    3.7837  -16.4400 H   0  0  0  0  0  0  0  0  0  0  0  0
   -6.6183    4.2860  -17.9820 H   0  0  0  0  0  0  0  0  0  0  0  0
   -9.5186    4.5877  -16.8014 H   0  0  0  0  0  0  0  0  0  0  0  0
   -9.4108    6.2915  -16.3088 H   0  0  0  0  0  0  0  0  0  0  0  0
   -8.7956    5.7591  -17.8901 H   0  0  0  0  0  0  0  0  0  0  0  0
   -9.3538    7.6590   -8.1507 H   0  0  0  0  0  0  0  0  0  0  0  0
  1  2  2  0  0  0  0
  1 14  1  0  0  0  0
  2 15  1  0  0  0  0
  3  8  1  0  0  0  0
  3 14  2  0  0  0  0
  3 15  1  0  0  0  0
  4 16  1  0  0  0  0
  4 17  2  0  0  0  0
  4 19  1  0  0  0  0
  5  8  1  0  0  0  0
  5  9  1  0  0  0  0
  6  9  1  0  0  0  0
  6 16  1  0  0  0  0
  7  9  1  0  0  0  0
  7 16  1  0  0  0  0
  8 18  1  0  0  0  0
  9 15  1  0  0  0  0
 10 13  1  0  0  0  0
 11 13  1  0  0  0  0
 12 13  1  0  0  0  0
 13 19  1  0  0  0  0
  1 20  1  0  0  0  0
  2 21  1  0  0  0  0
  5 22  1  0  0  0  0
  5 23  1  0  0  0  0
  6 24  1  0  0  0  0
  6 25  1  0  0  0  0
  7 26  1  0  0  0  0
  7 27  1  0  0  0  0
  8 28  1  0  0  0  0
 10 29  1  0  0  0  0
 10 30  1  0  0  0  0
 10 31  1  0  0  0  0
 11 32  1  0  0  0  0
 11 33  1  0  0  0  0
 11 34  1  0  0  0  0
 12 35  1  0  0  0  0
 12 36  1  0  0  0  0
 12 37  1  0  0  0  0
 18 38  1  0  0  0  0
M  END
> <id>
EN300-26665868

> <smiles>
CC(C)(C)OC(=O)N1CC2(C1)CC(O)C3=NC=CN32

> <IUPAC Name>
tert-butyl 7'-hydroxy-6',7'-dihydrospiro[azetidine-3,5'-pyrrolo[1,2-a]imidazole]-1-carboxylate

> <CAS>
2385288-36-6

> <URL>
https://www.enaminestore.com/catalog/EN300-26665868

> <ROCS_ShapeQuery>
_x0404_0B

> <ROCS_TanimotoCombo>
0.369 

> <ROCS_ShapeTanimoto>
0.303 

> <ROCS_ColorTanimoto>
0.066 

> <ROCS_RefTversky>
0.274 

> <ROCS_RefColorTversky>
0.072 

> <ROCS_RefTverskyCombo>
0.346 

> <ROCS_FitTversky>
1.544 

> <ROCS_FitColorTversky>
0.423 

> <ROCS_FitTverskyCombo>
1.967 

> <ROCS_ColorScore>
-5.237

> <ROCS_Overlap>
1827.475

> <ROCS_Rank>
384                 

$$$$
untitled-dbase-45959_16
  -OEChem-08212314543D

 44 45  0     1  0  0  0  0  0999 V2000
   -8.5842    5.7473  -14.4116 C   0  0  0  0  0  0  0  0  0  0  0  0
   -8.0879    5.4953   -8.8527 C   0  0  0  0  0  0  0  0  0  0  0  0
   -8.6339    4.2854   -8.0941 C   0  0  0  0  0  0  0  0  0  0  0  0
   -8.2697    6.8997  -10.9544 C   0  0  0  0  0  0  0  0  0  0  0  0
   -9.3199    3.2189  -10.2882 C   0  0  0  0  0  0  0  0  0  0  0  0
   -8.9803    7.0724  -12.2957 C   0  0  0  0  0  0  0  0  0  0  0  0
   -9.4796    4.6395  -12.3786 C   0  0  0  0  0  0  0  0  0  0  0  0
   -8.8258    5.6976  -10.1810 C   0  0  1  0  0  0  0  0  0  0  0  0
   -8.7502    4.4255  -11.0477 C   0  0  1  0  0  0  0  0  0  0  0  0
   -8.5924    3.0152   -8.9526 C   0  0  2  0  0  0  0  0  0  0  0  0
   -7.8333    5.0657  -17.0882 C   0  0  0  0  0  0  0  0  0  0  0  0
   -8.9765    2.8719  -16.6528 C   0  0  0  0  0  0  0  0  0  0  0  0
  -10.2992    5.0060  -16.5880 C   0  0  0  0  0  0  0  0  0  0  0  0
   -8.9428    4.3598  -16.3101 C   0  0  0  0  0  0  0  0  0  0  0  0
   -8.9715    5.8264  -13.0697 N   0  0  0  0  0  0  0  0  0  0  0  0
   -9.1882    1.8902   -8.2322 N   0  0  0  0  0  0  0  0  0  0  0  0
   -8.2117    6.7078  -15.0832 O   0  0  0  0  0  0  0  0  0  0  0  0
   -8.6615    4.4739  -14.9104 O   0  0  0  0  0  0  0  0  0  0  0  0
   -8.1899    6.3902   -8.2276 H   0  0  0  0  0  0  0  0  0  0  0  0
   -7.0150    5.3553   -9.0361 H   0  0  0  0  0  0  0  0  0  0  0  0
   -8.0488    4.1413   -7.1777 H   0  0  0  0  0  0  0  0  0  0  0  0
   -9.6655    4.4957   -7.7818 H   0  0  0  0  0  0  0  0  0  0  0  0
   -7.1933    6.7720  -11.1281 H   0  0  0  0  0  0  0  0  0  0  0  0
   -8.3899    7.8144  -10.3607 H   0  0  0  0  0  0  0  0  0  0  0  0
  -10.3942    3.3675  -10.1131 H   0  0  0  0  0  0  0  0  0  0  0  0
   -9.2218    2.3172  -10.9062 H   0  0  0  0  0  0  0  0  0  0  0  0
  -10.0299    7.3443  -12.1384 H   0  0  0  0  0  0  0  0  0  0  0  0
   -8.5129    7.8829  -12.8621 H   0  0  0  0  0  0  0  0  0  0  0  0
   -9.3819    3.7447  -13.0025 H   0  0  0  0  0  0  0  0  0  0  0  0
  -10.5534    4.7996  -12.2130 H   0  0  0  0  0  0  0  0  0  0  0  0
   -9.8816    5.9034   -9.9526 H   0  0  0  0  0  0  0  0  0  0  0  0
   -7.6951    4.2138  -11.2730 H   0  0  0  0  0  0  0  0  0  0  0  0
   -7.5408    2.7669   -9.1627 H   0  0  0  0  0  0  0  0  0  0  0  0
   -7.8058    6.1339  -16.8449 H   0  0  0  0  0  0  0  0  0  0  0  0
   -6.8508    4.6342  -16.8708 H   0  0  0  0  0  0  0  0  0  0  0  0
   -8.0094    4.9990  -18.1679 H   0  0  0  0  0  0  0  0  0  0  0  0
   -9.7712    2.3614  -16.0968 H   0  0  0  0  0  0  0  0  0  0  0  0
   -8.0375    2.3842  -16.3670 H   0  0  0  0  0  0  0  0  0  0  0  0
   -9.1411    2.7074  -17.7226 H   0  0  0  0  0  0  0  0  0  0  0  0
  -11.0953    4.4998  -16.0300 H   0  0  0  0  0  0  0  0  0  0  0  0
  -10.3049    6.0658  -16.3134 H   0  0  0  0  0  0  0  0  0  0  0  0
  -10.5620    4.9197  -17.6486 H   0  0  0  0  0  0  0  0  0  0  0  0
   -9.5043    2.2195   -7.3514 H   0  0  0  0  0  0  0  0  0  0  0  0
   -9.9462    1.5452   -8.7714 H   0  0  0  0  0  0  0  0  0  0  0  0
  1 15  1  0  0  0  0
  1 17  2  0  0  0  0
  1 18  1  0  0  0  0
  2  3  1  0  0  0  0
  2  8  1  0  0  0  0
  3 10  1  0  0  0  0
  4  6  1  0  0  0  0
  4  8  1  0  0  0  0
  5  9  1  0  0  0  0
  5 10  1  0  0  0  0
  6 15  1  0  0  0  0
  7  9  1  0  0  0  0
  7 15  1  0  0  0  0
  8  9  1  0  0  0  0
 10 16  1  0  0  0  0
 11 14  1  0  0  0  0
 12 14  1  0  0  0  0
 13 14  1  0  0  0  0
 14 18  1  0  0  0  0
  2 19  1  0  0  0  0
  2 20  1  0  0  0  0
  3 21  1  0  0  0  0
  3 22  1  0  0  0  0
  4 23  1  0  0  0  0
  4 24  1  0  0  0  0
  5 25  1  0  0  0  0
  5 26  1  0  0  0  0
  6 27  1  0  0  0  0
  6 28  1  0  0  0  0
  7 29  1  0  0  0  0
  7 30  1  0  0  0  0
  8 31  1  0  0  0  0
  9 32  1  0  0  0  0
 10 33  1  0  0  0  0
 11 34  1  0  0  0  0
 11 35  1  0  0  0  0
 11 36  1  0  0  0  0
 12 37  1  0  0  0  0
 12 38  1  0  0  0  0
 12 39  1  0  0  0  0
 13 40  1  0  0  0  0
 13 41  1  0  0  0  0
 13 42  1  0  0  0  0
 16 43  1  0  0  0  0
 16 44  1  0  0  0  0
M  END
> <id>
EN300-6898731

> <smiles>
CC(C)(C)OC(=O)N1CCC2CCC(N)CC2C1

> <MDLNUMBER>
MFCD11223656

> <IUPAC Name>
tert-butyl 7-amino-decahydroisoquinoline-2-carboxylate

> <CAS>
1246034-19-4

> <Purity>
95

> <URL>
https://www.enaminestore.com/catalog/EN300-6898731

> <ROCS_ShapeQuery>
_x0404_0B

> <ROCS_TanimotoCombo>
0.369 

> <ROCS_ShapeTanimoto>
0.290 

> <ROCS_ColorTanimoto>
0.079 

> <ROCS_RefTversky>
0.262 

> <ROCS_RefColorTversky>
0.083 

> <ROCS_RefTverskyCombo>
0.344 

> <ROCS_FitTversky>
1.609 

> <ROCS_FitColorTversky>
0.629 

> <ROCS_FitTverskyCombo>
2.237 

> <ROCS_ColorScore>
-5.961

> <ROCS_Overlap>
1743.650

> <ROCS_Rank>
385                 

$$$$
untitled-dbase-38185_0
  -OEChem-08212314543D

 32 34  0     0  0  0  0  0  0999 V2000
   -8.1223    3.9293  -11.7635 C   0  0  0  0  0  0  0  0  0  0  0  0
   -8.7712    6.5874  -12.2155 C   0  0  0  0  0  0  0  0  0  0  0  0
   -8.1324    4.4381  -13.0736 C   0  0  0  0  0  0  0  0  0  0  0  0
   -7.8315    4.1623  -15.4678 C   0  0  0  0  0  0  0  0  0  0  0  0
   -8.4359    4.7522  -10.6857 C   0  0  0  0  0  0  0  0  0  0  0  0
   -8.4620    5.7854  -13.3107 C   0  0  0  0  0  0  0  0  0  0  0  0
   -7.8206    3.6340  -14.1767 C   0  0  0  0  0  0  0  0  0  0  0  0
   -8.7605    6.0837  -10.9125 C   0  0  0  0  0  0  0  0  0  0  0  0
   -8.1852    5.5021  -15.6080 C   0  0  0  0  0  0  0  0  0  0  0  0
   -7.5366    3.2789  -16.6486 C   0  0  0  0  0  0  0  0  0  0  0  0
   -8.1963    6.1668  -16.9594 C   0  0  0  0  0  0  0  0  0  0  0  0
   -7.2456    4.0629  -17.9276 C   0  0  0  0  0  0  0  0  0  0  0  0
   -8.2703    5.1750  -18.1181 C   0  0  0  0  0  0  0  0  0  0  0  0
   -8.4223    4.2068   -9.2984 C   0  0  0  0  0  0  0  0  0  0  0  0
   -8.4842    6.3024  -14.5526 N   0  0  0  0  0  0  0  0  0  0  0  0
   -7.4972    2.2638  -13.9925 N   0  0  0  0  0  0  0  0  0  0  0  0
   -9.0648    6.8935   -9.8886 F   0  0  0  0  0  0  0  0  0  0  0  0
   -7.8678    2.8905  -11.5640 H   0  0  0  0  0  0  0  0  0  0  0  0
   -9.0291    7.6339  -12.3668 H   0  0  0  0  0  0  0  0  0  0  0  0
   -6.6717    2.6362  -16.4455 H   0  0  0  0  0  0  0  0  0  0  0  0
   -8.4050    2.6293  -16.8168 H   0  0  0  0  0  0  0  0  0  0  0  0
   -9.0435    6.8598  -17.0218 H   0  0  0  0  0  0  0  0  0  0  0  0
   -7.2792    6.7622  -17.0479 H   0  0  0  0  0  0  0  0  0  0  0  0
   -6.2392    4.4980  -17.8765 H   0  0  0  0  0  0  0  0  0  0  0  0
   -7.2580    3.3838  -18.7873 H   0  0  0  0  0  0  0  0  0  0  0  0
   -9.2767    4.7414  -18.1766 H   0  0  0  0  0  0  0  0  0  0  0  0
   -8.0891    5.6986  -19.0636 H   0  0  0  0  0  0  0  0  0  0  0  0
   -7.4277    4.3246   -8.8507 H   0  0  0  0  0  0  0  0  0  0  0  0
   -9.1535    4.7206   -8.6604 H   0  0  0  0  0  0  0  0  0  0  0  0
   -8.6848    3.1407   -9.2862 H   0  0  0  0  0  0  0  0  0  0  0  0
   -7.3252    1.7007  -14.7951 H   0  0  0  0  0  0  0  0  0  0  0  0
   -7.5434    1.8808  -13.0749 H   0  0  0  0  0  0  0  0  0  0  0  0
  1  3  1  0  0  0  0
  1  5  2  0  0  0  0
  2  6  1  0  0  0  0
  2  8  2  0  0  0  0
  3  6  1  0  0  0  0
  3  7  2  0  0  0  0
  4  7  1  0  0  0  0
  4  9  2  0  0  0  0
  4 10  1  0  0  0  0
  5  8  1  0  0  0  0
  5 14  1  0  0  0  0
  6 15  2  0  0  0  0
  7 16  1  0  0  0  0
  8 17  1  0  0  0  0
  9 11  1  0  0  0  0
  9 15  1  0  0  0  0
 10 12  1  0  0  0  0
 11 13  1  0  0  0  0
 12 13  1  0  0  0  0
  1 18  1  0  0  0  0
  2 19  1  0  0  0  0
 10 20  1  0  0  0  0
 10 21  1  0  0  0  0
 11 22  1  0  0  0  0
 11 23  1  0  0  0  0
 12 24  1  0  0  0  0
 12 25  1  0  0  0  0
 13 26  1  0  0  0  0
 13 27  1  0  0  0  0
 14 28  1  0  0  0  0
 14 29  1  0  0  0  0
 14 30  1  0  0  0  0
 16 31  1  0  0  0  0
 16 32  1  0  0  0  0
M  END
> <id>
EN300-256335

> <smiles>
CC=1C=C2C(N)=C3CCCCC3=NC2=CC1F

> <MDLNUMBER>
MFCD12828573

> <IUPAC Name>
6-fluoro-7-methyl-1,2,3,4-tetrahydroacridin-9-amine

> <CAS>
116207-64-8

> <Purity>
95

> <URL>
https://www.enaminestore.com/catalog/EN300-256335

> <ROCS_ShapeQuery>
_x0404_0B

> <ROCS_TanimotoCombo>
0.369 

> <ROCS_ShapeTanimoto>
0.259 

> <ROCS_ColorTanimoto>
0.111 

> <ROCS_RefTversky>
0.239 

> <ROCS_RefColorTversky>
0.113 

> <ROCS_RefTverskyCombo>
0.352 

> <ROCS_FitTversky>
1.461 

> <ROCS_FitColorTversky>
0.856 

> <ROCS_FitTverskyCombo>
2.317 

> <ROCS_ColorScore>
-8.126

> <ROCS_Overlap>
1593.026

> <ROCS_Rank>
386                 

$$$$
untitled-dbase-30754_165
  -OEChem-08212314543D

 45 47  0     1  0  0  0  0  0999 V2000
   -9.1873    6.7264  -10.8799 C   0  0  0  0  0  0  0  0  0  0  0  0
   -9.4426    6.2436  -12.1536 C   0  0  0  0  0  0  0  0  0  0  0  0
   -8.5361    5.8875  -10.0029 C   0  0  0  0  0  0  0  0  0  0  0  0
   -9.0277    4.9557  -12.5257 C   0  0  0  0  0  0  0  0  0  0  0  0
   -8.3331    4.1746  -11.5820 C   0  0  0  0  0  0  0  0  0  0  0  0
   -7.6692    4.7987  -15.6182 C   0  0  0  0  0  0  0  0  0  0  0  0
   -9.4472    4.4216  -13.8758 C   0  0  0  0  0  0  0  0  0  0  0  0
   -6.2873    1.3640  -12.7585 C   0  0  0  0  0  0  0  0  0  0  0  0
   -7.7700    2.6556  -14.3741 C   0  0  0  0  0  0  0  0  0  0  0  0
   -7.6681    1.8965  -10.8883 C   0  0  0  0  0  0  0  0  0  0  0  0
   -6.9866    2.6996  -13.0669 C   0  0  1  0  0  0  0  0  0  0  0  0
   -7.1616    0.7078  -11.6947 C   0  0  2  0  0  0  0  0  0  0  0  0
   -6.8426    5.4663  -18.2755 C   0  0  0  0  0  0  0  0  0  0  0  0
   -5.5373    3.3212  -18.2101 C   0  0  0  0  0  0  0  0  0  0  0  0
   -8.0408    3.2683  -18.0152 C   0  0  0  0  0  0  0  0  0  0  0  0
   -6.7719    4.0558  -17.6920 C   0  0  0  0  0  0  0  0  0  0  0  0
   -8.1206    4.6414  -10.3194 N   0  0  0  0  0  0  0  0  0  0  0  0
   -7.8680    2.9116  -11.9112 N   0  0  2  0  0  0  0  0  0  0  0  0
   -8.3178    3.9743  -14.6894 N   0  0  0  0  0  0  0  0  0  0  0  0
   -7.9784    5.9675  -15.8420 O   0  0  0  0  0  0  0  0  0  0  0  0
   -6.4146   -0.1754  -10.8824 O   0  0  0  0  0  0  0  0  0  0  0  0
   -6.6481    4.1571  -16.2689 O   0  0  0  0  0  0  0  0  0  0  0  0
   -9.4884    7.7261  -10.5862 H   0  0  0  0  0  0  0  0  0  0  0  0
   -9.9711    6.8805  -12.8559 H   0  0  0  0  0  0  0  0  0  0  0  0
   -8.3209    6.2017   -8.9869 H   0  0  0  0  0  0  0  0  0  0  0  0
  -10.1420    3.5779  -13.7445 H   0  0  0  0  0  0  0  0  0  0  0  0
  -10.0286    5.1745  -14.4282 H   0  0  0  0  0  0  0  0  0  0  0  0
   -6.2504    0.7214  -13.6514 H   0  0  0  0  0  0  0  0  0  0  0  0
   -5.2583    1.5287  -12.4091 H   0  0  0  0  0  0  0  0  0  0  0  0
   -7.1186    2.3765  -15.1844 H   0  0  0  0  0  0  0  0  0  0  0  0
   -8.5864    1.9575  -14.3116 H   0  0  0  0  0  0  0  0  0  0  0  0
   -8.6234    1.6609  -10.4157 H   0  0  0  0  0  0  0  0  0  0  0  0
   -6.9364    2.1998  -10.1377 H   0  0  0  0  0  0  0  0  0  0  0  0
   -6.2253    3.4941  -13.0856 H   0  0  0  0  0  0  0  0  0  0  0  0
   -7.9934    0.1378  -12.1538 H   0  0  0  0  0  0  0  0  0  0  0  0
   -7.7274    5.9969  -17.9061 H   0  0  0  0  0  0  0  0  0  0  0  0
   -5.9539    6.0530  -18.0212 H   0  0  0  0  0  0  0  0  0  0  0  0
   -6.9351    5.4336  -19.3671 H   0  0  0  0  0  0  0  0  0  0  0  0
   -5.4826    2.3087  -17.7939 H   0  0  0  0  0  0  0  0  0  0  0  0
   -4.6194    3.8329  -17.8988 H   0  0  0  0  0  0  0  0  0  0  0  0
   -5.5398    3.2474  -19.3024 H   0  0  0  0  0  0  0  0  0  0  0  0
   -7.9903    2.2566  -17.5967 H   0  0  0  0  0  0  0  0  0  0  0  0
   -8.9339    3.7621  -17.6187 H   0  0  0  0  0  0  0  0  0  0  0  0
   -8.1604    3.1494  -19.0981 H   0  0  0  0  0  0  0  0  0  0  0  0
   -7.0335   -0.5506  -10.2358 H   0  0  0  0  0  0  0  0  0  0  0  0
  1  2  1  0  0  0  0
  1  3  2  0  0  0  0
  2  4  2  0  0  0  0
  3 17  1  0  0  0  0
  4  5  1  0  0  0  0
  4  7  1  0  0  0  0
  5 17  2  0  0  0  0
  5 18  1  0  0  0  0
  6 19  1  0  0  0  0
  6 20  2  0  0  0  0
  6 22  1  0  0  0  0
  7 19  1  0  0  0  0
  8 11  1  0  0  0  0
  8 12  1  0  0  0  0
  9 11  1  6  0  0  0
  9 19  1  0  0  0  0
 10 12  1  0  0  0  0
 10 18  1  0  0  0  0
 11 18  1  0  0  0  0
 12 21  1  1  0  0  0
 13 16  1  0  0  0  0
 14 16  1  0  0  0  0
 15 16  1  0  0  0  0
 16 22  1  0  0  0  0
  1 23  1  0  0  0  0
  2 24  1  0  0  0  0
  3 25  1  0  0  0  0
  7 26  1  0  0  0  0
  7 27  1  0  0  0  0
  8 28  1  0  0  0  0
  8 29  1  0  0  0  0
  9 30  1  0  0  0  0
  9 31  1  0  0  0  0
 10 32  1  0  0  0  0
 10 33  1  0  0  0  0
 11 34  1  0  0  0  0
 12 35  1  0  0  0  0
 13 36  1  0  0  0  0
 13 37  1  0  0  0  0
 13 38  1  0  0  0  0
 14 39  1  0  0  0  0
 14 40  1  0  0  0  0
 14 41  1  0  0  0  0
 15 42  1  0  0  0  0
 15 43  1  0  0  0  0
 15 44  1  0  0  0  0
 21 45  1  0  0  0  0
M  END
> <id>
EN300-26666269

> <smiles>
CC(C)(C)OC(=O)N1C[C@@H]2C[C@@H](O)CN2C=3N=CC=CC3C1

> <IUPAC Name>
tert-butyl (4R,6S)-4-hydroxy-2,8,14-triazatricyclo[8.4.0.0,2,6]tetradeca-1(14),10,12-triene-8-carboxylate

> <CAS>
2413847-74-0

> <URL>
https://www.enaminestore.com/catalog/EN300-26666269

> <ROCS_ShapeQuery>
_x0404_0B

> <ROCS_TanimotoCombo>
0.369 

> <ROCS_ShapeTanimoto>
0.249 

> <ROCS_ColorTanimoto>
0.120 

> <ROCS_RefTversky>
0.238 

> <ROCS_RefColorTversky>
0.124 

> <ROCS_RefTverskyCombo>
0.362 

> <ROCS_FitTversky>
1.225 

> <ROCS_FitColorTversky>
0.786 

> <ROCS_FitTverskyCombo>
2.011 

> <ROCS_ColorScore>
-8.946

> <ROCS_Overlap>
1590.960

> <ROCS_Rank>
387                 

$$$$
untitled-dbase-20044_148
  -OEChem-08212314543D

 49 51  0     0  0  0  0  0  0999 V2000
   -8.8746    5.6388  -14.2389 C   0  0  0  0  0  0  0  0  0  0  0  0
   -8.6026    3.2451   -7.9357 C   0  0  0  0  0  0  0  0  0  0  0  0
   -7.6426    5.7059  -12.0709 C   0  0  0  0  0  0  0  0  0  0  0  0
   -7.5093    4.7783   -9.6237 C   0  0  0  0  0  0  0  0  0  0  0  0
  -10.0781    5.4936  -12.0193 C   0  0  0  0  0  0  0  0  0  0  0  0
   -9.9448    4.5657   -9.5720 C   0  0  0  0  0  0  0  0  0  0  0  0
   -8.0938    5.6651  -10.6590 C   0  0  0  0  0  0  0  0  0  0  0  0
   -9.5672    5.5365  -10.6275 C   0  0  0  0  0  0  0  0  0  0  0  0
   -8.5033    3.3563  -15.9179 C   0  0  0  0  0  0  0  0  0  0  0  0
  -10.9503    3.5731  -16.4416 C   0  0  0  0  0  0  0  0  0  0  0  0
   -9.3716    5.4289  -17.0515 C   0  0  0  0  0  0  0  0  0  0  0  0
   -9.6408    3.6956   -5.3113 C   0  0  0  0  0  0  0  0  0  0  0  0
  -11.4244    2.0396   -5.9324 C   0  0  0  0  0  0  0  0  0  0  0  0
   -9.0197    1.3186   -5.8576 C   0  0  0  0  0  0  0  0  0  0  0  0
   -9.6804    4.3224  -16.0440 C   0  0  0  0  0  0  0  0  0  0  0  0
   -9.9771    2.4704   -6.1601 C   0  0  0  0  0  0  0  0  0  0  0  0
   -8.8767    5.6153  -12.8526 N   0  0  0  0  0  0  0  0  0  0  0  0
   -8.6704    4.1491   -8.9847 N   0  0  0  0  0  0  0  0  0  0  0  0
   -8.0384    6.2309  -14.9176 O   0  0  0  0  0  0  0  0  0  0  0  0
   -7.5543    2.8656   -7.4185 O   0  0  0  0  0  0  0  0  0  0  0  0
   -8.9209    6.7426  -10.2055 O   0  0  0  0  0  0  0  0  0  0  0  0
   -9.9161    4.9227  -14.7655 O   0  0  0  0  0  0  0  0  0  0  0  0
   -9.8441    2.8228   -7.5417 O   0  0  0  0  0  0  0  0  0  0  0  0
   -7.1282    6.6392  -12.3206 H   0  0  0  0  0  0  0  0  0  0  0  0
   -7.0003    4.8617  -12.3411 H   0  0  0  0  0  0  0  0  0  0  0  0
   -6.8764    3.9901  -10.0437 H   0  0  0  0  0  0  0  0  0  0  0  0
   -6.9415    5.3332   -8.8703 H   0  0  0  0  0  0  0  0  0  0  0  0
  -10.5743    4.5490  -12.2638 H   0  0  0  0  0  0  0  0  0  0  0  0
  -10.7550    6.3243  -12.2416 H   0  0  0  0  0  0  0  0  0  0  0  0
  -10.5688    5.0143   -8.7926 H   0  0  0  0  0  0  0  0  0  0  0  0
  -10.4496    3.6779   -9.9659 H   0  0  0  0  0  0  0  0  0  0  0  0
   -7.5898    3.8902  -15.6327 H   0  0  0  0  0  0  0  0  0  0  0  0
   -8.6982    2.5780  -15.1729 H   0  0  0  0  0  0  0  0  0  0  0  0
   -8.2909    2.8713  -16.8776 H   0  0  0  0  0  0  0  0  0  0  0  0
  -11.7975    4.2624  -16.5332 H   0  0  0  0  0  0  0  0  0  0  0  0
  -11.2288    2.8422  -15.6739 H   0  0  0  0  0  0  0  0  0  0  0  0
  -10.8274    3.0464  -17.3935 H   0  0  0  0  0  0  0  0  0  0  0  0
  -10.2158    6.1220  -17.1422 H   0  0  0  0  0  0  0  0  0  0  0  0
   -8.4841    6.0012  -16.7627 H   0  0  0  0  0  0  0  0  0  0  0  0
   -9.2062    5.0107  -18.0511 H   0  0  0  0  0  0  0  0  0  0  0  0
   -8.6028    4.0080   -5.4719 H   0  0  0  0  0  0  0  0  0  0  0  0
  -10.2980    4.5400   -5.5437 H   0  0  0  0  0  0  0  0  0  0  0  0
   -9.7336    3.4686   -4.2431 H   0  0  0  0  0  0  0  0  0  0  0  0
  -11.6700    1.1608   -6.5395 H   0  0  0  0  0  0  0  0  0  0  0  0
  -12.1195    2.8299   -6.2380 H   0  0  0  0  0  0  0  0  0  0  0  0
  -11.6136    1.7988   -4.8814 H   0  0  0  0  0  0  0  0  0  0  0  0
   -9.2606    0.4396   -6.4664 H   0  0  0  0  0  0  0  0  0  0  0  0
   -7.9789    1.5979   -6.0508 H   0  0  0  0  0  0  0  0  0  0  0  0
   -9.1073    1.0036   -4.8115 H   0  0  0  0  0  0  0  0  0  0  0  0
  1 17  1  0  0  0  0
  1 19  2  0  0  0  0
  1 22  1  0  0  0  0
  2 18  1  0  0  0  0
  2 20  2  0  0  0  0
  2 23  1  0  0  0  0
  3  7  1  0  0  0  0
  3 17  1  0  0  0  0
  4  7  1  0  0  0  0
  4 18  1  0  0  0  0
  5  8  1  0  0  0  0
  5 17  1  0  0  0  0
  6  8  1  0  0  0  0
  6 18  1  0  0  0  0
  7  8  1  0  0  0  0
  7 21  1  0  0  0  0
  8 21  1  0  0  0  0
  9 15  1  0  0  0  0
 10 15  1  0  0  0  0
 11 15  1  0  0  0  0
 12 16  1  0  0  0  0
 13 16  1  0  0  0  0
 14 16  1  0  0  0  0
 15 22  1  0  0  0  0
 16 23  1  0  0  0  0
  3 24  1  0  0  0  0
  3 25  1  0  0  0  0
  4 26  1  0  0  0  0
  4 27  1  0  0  0  0
  5 28  1  0  0  0  0
  5 29  1  0  0  0  0
  6 30  1  0  0  0  0
  6 31  1  0  0  0  0
  9 32  1  0  0  0  0
  9 33  1  0  0  0  0
  9 34  1  0  0  0  0
 10 35  1  0  0  0  0
 10 36  1  0  0  0  0
 10 37  1  0  0  0  0
 11 38  1  0  0  0  0
 11 39  1  0  0  0  0
 11 40  1  0  0  0  0
 12 41  1  0  0  0  0
 12 42  1  0  0  0  0
 12 43  1  0  0  0  0
 13 44  1  0  0  0  0
 13 45  1  0  0  0  0
 13 46  1  0  0  0  0
 14 47  1  0  0  0  0
 14 48  1  0  0  0  0
 14 49  1  0  0  0  0
M  END
> <id>
EN300-1708464

> <smiles>
CC(C)(C)OC(=O)N1CC23CN(CC3(C1)O2)C(=O)OC(C)(C)C

> <MDLNUMBER>
MFCD32760825

> <IUPAC Name>
3,7-di-tert-butyl 9-oxa-3,7-diazatricyclo[3.3.1.0,1,5]nonane-3,7-dicarboxylate

> <CAS>
2219408-98-5

> <URL>
https://www.enaminestore.com/catalog/EN300-1708464

> <ROCS_ShapeQuery>
_x0404_0B

> <ROCS_TanimotoCombo>
0.369 

> <ROCS_ShapeTanimoto>
0.283 

> <ROCS_ColorTanimoto>
0.086 

> <ROCS_RefTversky>
0.265 

> <ROCS_RefColorTversky>
0.097 

> <ROCS_RefTverskyCombo>
0.362 

> <ROCS_FitTversky>
1.314 

> <ROCS_FitColorTversky>
0.435 

> <ROCS_FitTverskyCombo>
1.749 

> <ROCS_ColorScore>
-7.050

> <ROCS_Overlap>
1767.975

> <ROCS_Rank>
388                 

$$$$
untitled-dbase-12656_12
  -OEChem-08212314543D

 41 42  0     1  0  0  0  0  0999 V2000
   -9.1868    4.7316  -15.7762 C   0  0  0  0  0  0  0  0  0  0  0  0
   -9.4834    5.6867  -14.8020 C   0  0  0  0  0  0  0  0  0  0  0  0
   -8.4991    3.5745  -15.4307 C   0  0  0  0  0  0  0  0  0  0  0  0
   -9.0850    5.5089  -13.4660 C   0  0  0  0  0  0  0  0  0  0  0  0
   -8.4190    4.3157  -13.1163 C   0  0  0  0  0  0  0  0  0  0  0  0
   -8.1195    3.3660  -14.1074 C   0  0  0  0  0  0  0  0  0  0  0  0
   -8.8297    4.6435   -9.4034 C   0  0  0  0  0  0  0  0  0  0  0  0
   -7.9941    4.0216  -11.6987 C   0  0  0  0  0  0  0  0  0  0  0  0
   -8.5376    6.3726  -11.1562 C   0  0  0  0  0  0  0  0  0  0  0  0
   -9.4257    6.5386  -12.3985 C   0  0  1  0  0  0  0  0  0  0  0  0
  -10.7343    3.7862   -7.4469 C   0  0  0  0  0  0  0  0  0  0  0  0
  -10.0259    1.4528   -8.0488 C   0  0  0  0  0  0  0  0  0  0  0  0
   -8.3575    3.0516   -7.0648 C   0  0  0  0  0  0  0  0  0  0  0  0
   -9.3207    7.9931  -12.8757 C   0  0  0  0  0  0  0  0  0  0  0  0
   -9.5892    2.9134   -7.9584 C   0  0  0  0  0  0  0  0  0  0  0  0
   -8.5071    4.9817  -10.7216 N   0  0  0  0  0  0  0  0  0  0  0  0
   -7.4265    2.1735  -13.7866 N   0  0  0  0  0  0  0  0  0  0  0  0
   -8.7506    5.4153   -8.4495 O   0  0  0  0  0  0  0  0  0  0  0  0
   -9.2441    3.3431   -9.2805 O   0  0  0  0  0  0  0  0  0  0  0  0
   -9.6142    8.8257  -11.8674 F   0  0  0  0  0  0  0  0  0  0  0  0
   -8.0752    8.2437  -13.3023 F   0  0  0  0  0  0  0  0  0  0  0  0
  -10.1794    8.2051  -13.8826 F   0  0  0  0  0  0  0  0  0  0  0  0
   -9.4960    4.8951  -16.8052 H   0  0  0  0  0  0  0  0  0  0  0  0
  -10.0345    6.5818  -15.0921 H   0  0  0  0  0  0  0  0  0  0  0  0
   -8.2644    2.8432  -16.1985 H   0  0  0  0  0  0  0  0  0  0  0  0
   -8.3769    3.0422  -11.3985 H   0  0  0  0  0  0  0  0  0  0  0  0
   -6.9035    4.0088  -11.6435 H   0  0  0  0  0  0  0  0  0  0  0  0
   -7.5286    6.7457  -11.3536 H   0  0  0  0  0  0  0  0  0  0  0  0
   -8.9408    6.9571  -10.3208 H   0  0  0  0  0  0  0  0  0  0  0  0
  -10.4632    6.3694  -12.0555 H   0  0  0  0  0  0  0  0  0  0  0  0
  -10.4249    4.8354   -7.3806 H   0  0  0  0  0  0  0  0  0  0  0  0
  -11.6119    3.7230   -8.0985 H   0  0  0  0  0  0  0  0  0  0  0  0
  -11.0321    3.4872   -6.4353 H   0  0  0  0  0  0  0  0  0  0  0  0
   -9.2074    0.8228   -8.4155 H   0  0  0  0  0  0  0  0  0  0  0  0
  -10.8494    1.3350   -8.7624 H   0  0  0  0  0  0  0  0  0  0  0  0
  -10.3513    1.0675   -7.0771 H   0  0  0  0  0  0  0  0  0  0  0  0
   -7.5360    2.4256   -7.4316 H   0  0  0  0  0  0  0  0  0  0  0  0
   -8.0078    4.0880   -7.0177 H   0  0  0  0  0  0  0  0  0  0  0  0
   -8.5750    2.7108   -6.0461 H   0  0  0  0  0  0  0  0  0  0  0  0
   -7.1083    2.0365  -12.8511 H   0  0  0  0  0  0  0  0  0  0  0  0
   -7.1884    1.5414  -14.5207 H   0  0  0  0  0  0  0  0  0  0  0  0
  1  2  1  0  0  0  0
  1  3  2  0  0  0  0
  2  4  2  0  0  0  0
  3  6  1  0  0  0  0
  4  5  1  0  0  0  0
  4 10  1  0  0  0  0
  5  6  2  0  0  0  0
  5  8  1  0  0  0  0
  6 17  1  0  0  0  0
  7 16  1  0  0  0  0
  7 18  2  0  0  0  0
  7 19  1  0  0  0  0
  8 16  1  0  0  0  0
  9 10  1  0  0  0  0
  9 16  1  0  0  0  0
 10 14  1  0  0  0  0
 11 15  1  0  0  0  0
 12 15  1  0  0  0  0
 13 15  1  0  0  0  0
 14 20  1  0  0  0  0
 14 21  1  0  0  0  0
 14 22  1  0  0  0  0
 15 19  1  0  0  0  0
  1 23  1  0  0  0  0
  2 24  1  0  0  0  0
  3 25  1  0  0  0  0
  8 26  1  0  0  0  0
  8 27  1  0  0  0  0
  9 28  1  0  0  0  0
  9 29  1  0  0  0  0
 10 30  1  0  0  0  0
 11 31  1  0  0  0  0
 11 32  1  0  0  0  0
 11 33  1  0  0  0  0
 12 34  1  0  0  0  0
 12 35  1  0  0  0  0
 12 36  1  0  0  0  0
 13 37  1  0  0  0  0
 13 38  1  0  0  0  0
 13 39  1  0  0  0  0
 17 40  1  0  0  0  0
 17 41  1  0  0  0  0
M  END
> <id>
EN300-714004

> <smiles>
CC(C)(C)OC(=O)N1CC(C=2C=CC=C(N)C2C1)C(F)(F)F

> <MDLNUMBER>
MFCD31437326

> <IUPAC Name>
tert-butyl 8-amino-4-(trifluoromethyl)-1,2,3,4-tetrahydroisoquinoline-2-carboxylate

> <CAS>
2138156-93-9

> <URL>
https://www.enaminestore.com/catalog/EN300-714004

> <ROCS_ShapeQuery>
_x0404_0B

> <ROCS_TanimotoCombo>
0.369 

> <ROCS_ShapeTanimoto>
0.277 

> <ROCS_ColorTanimoto>
0.092 

> <ROCS_RefTversky>
0.259 

> <ROCS_RefColorTversky>
0.095 

> <ROCS_RefTverskyCombo>
0.354 

> <ROCS_FitTversky>
1.335 

> <ROCS_FitColorTversky>
0.722 

> <ROCS_FitTverskyCombo>
2.056 

> <ROCS_ColorScore>
-6.843

> <ROCS_Overlap>
1731.750

> <ROCS_Rank>
389                 

$$$$
untitled-dbase-31482_2
  -OEChem-08212314543D

 37 38  0     0  0  0  0  0  0999 V2000
   -8.7034    4.5625   -7.8817 C   0  0  0  0  0  0  0  0  0  0  0  0
   -8.4794    5.9232   -8.0743 C   0  0  0  0  0  0  0  0  0  0  0  0
   -9.0492    4.2762  -10.2662 C   0  0  0  0  0  0  0  0  0  0  0  0
   -8.8058    5.6468  -10.4653 C   0  0  0  0  0  0  0  0  0  0  0  0
   -8.9830    3.7405   -8.9728 C   0  0  0  0  0  0  0  0  0  0  0  0
   -8.5294    6.4633   -9.3591 C   0  0  0  0  0  0  0  0  0  0  0  0
   -8.6678    5.5375  -14.2459 C   0  0  0  0  0  0  0  0  0  0  0  0
   -9.3240    3.3731  -11.4398 C   0  0  0  0  0  0  0  0  0  0  0  0
   -8.8482    6.2650  -11.8413 C   0  0  0  0  0  0  0  0  0  0  0  0
   -9.9132    4.1497  -12.6108 C   0  0  0  0  0  0  0  0  0  0  0  0
   -7.0744    4.8114  -16.5091 C   0  0  0  0  0  0  0  0  0  0  0  0
   -9.0314    3.3966  -17.2005 C   0  0  0  0  0  0  0  0  0  0  0  0
   -9.2903    5.8885  -17.0231 C   0  0  0  0  0  0  0  0  0  0  0  0
   -8.5933    4.6541  -16.4529 C   0  0  0  0  0  0  0  0  0  0  0  0
   -9.0788    5.3056  -12.9287 N   0  0  0  0  0  0  0  0  0  0  0  0
   -8.0815    6.5504  -14.6227 O   0  0  0  0  0  0  0  0  0  0  0  0
   -9.1839    2.4097   -8.7514 O   0  0  0  0  0  0  0  0  0  0  0  0
   -8.9852    4.5007  -15.0839 O   0  0  0  0  0  0  0  0  0  0  0  0
   -8.3059    7.7746   -9.5282 F   0  0  0  0  0  0  0  0  0  0  0  0
   -8.6561    4.1473   -6.8785 H   0  0  0  0  0  0  0  0  0  0  0  0
   -8.2618    6.5637   -7.2247 H   0  0  0  0  0  0  0  0  0  0  0  0
   -8.3878    2.8884  -11.7410 H   0  0  0  0  0  0  0  0  0  0  0  0
  -10.0360    2.5878  -11.1607 H   0  0  0  0  0  0  0  0  0  0  0  0
   -9.6699    6.9895  -11.8861 H   0  0  0  0  0  0  0  0  0  0  0  0
   -7.9094    6.7989  -12.0231 H   0  0  0  0  0  0  0  0  0  0  0  0
  -10.0164    3.4924  -13.4802 H   0  0  0  0  0  0  0  0  0  0  0  0
  -10.9129    4.5300  -12.3665 H   0  0  0  0  0  0  0  0  0  0  0  0
   -6.7559    5.7129  -15.9736 H   0  0  0  0  0  0  0  0  0  0  0  0
   -6.5630    3.9479  -16.0713 H   0  0  0  0  0  0  0  0  0  0  0  0
   -6.7315    4.9289  -17.5435 H   0  0  0  0  0  0  0  0  0  0  0  0
  -10.1205    3.2798  -17.1628 H   0  0  0  0  0  0  0  0  0  0  0  0
   -8.6083    2.4988  -16.7356 H   0  0  0  0  0  0  0  0  0  0  0  0
   -8.7216    3.4222  -18.2503 H   0  0  0  0  0  0  0  0  0  0  0  0
  -10.3798    5.7760  -16.9829 H   0  0  0  0  0  0  0  0  0  0  0  0
   -9.0162    6.7958  -16.4750 H   0  0  0  0  0  0  0  0  0  0  0  0
   -9.0327    6.0285  -18.0792 H   0  0  0  0  0  0  0  0  0  0  0  0
   -9.0982    2.2122   -7.8061 H   0  0  0  0  0  0  0  0  0  0  0  0
  1  2  2  0  0  0  0
  1  5  1  0  0  0  0
  2  6  1  0  0  0  0
  3  4  1  0  0  0  0
  3  5  2  0  0  0  0
  3  8  1  0  0  0  0
  4  6  2  0  0  0  0
  4  9  1  0  0  0  0
  5 17  1  0  0  0  0
  6 19  1  0  0  0  0
  7 15  1  0  0  0  0
  7 16  2  0  0  0  0
  7 18  1  0  0  0  0
  8 10  1  0  0  0  0
  9 15  1  0  0  0  0
 10 15  1  0  0  0  0
 11 14  1  0  0  0  0
 12 14  1  0  0  0  0
 13 14  1  0  0  0  0
 14 18  1  0  0  0  0
  1 20  1  0  0  0  0
  2 21  1  0  0  0  0
  8 22  1  0  0  0  0
  8 23  1  0  0  0  0
  9 24  1  0  0  0  0
  9 25  1  0  0  0  0
 10 26  1  0  0  0  0
 10 27  1  0  0  0  0
 11 28  1  0  0  0  0
 11 29  1  0  0  0  0
 11 30  1  0  0  0  0
 12 31  1  0  0  0  0
 12 32  1  0  0  0  0
 12 33  1  0  0  0  0
 13 34  1  0  0  0  0
 13 35  1  0  0  0  0
 13 36  1  0  0  0  0
 17 37  1  0  0  0  0
M  END
> <id>
EN300-26664701

> <smiles>
CC(C)(C)OC(=O)N1CCC=2C(O)=CC=C(F)C2C1

> <IUPAC Name>
tert-butyl 8-fluoro-5-hydroxy-1,2,3,4-tetrahydroisoquinoline-2-carboxylate

> <CAS>
2413899-93-9

> <URL>
https://www.enaminestore.com/catalog/EN300-26664701

> <ROCS_ShapeQuery>
_x0404_0B

> <ROCS_TanimotoCombo>
0.369 

> <ROCS_ShapeTanimoto>
0.297 

> <ROCS_ColorTanimoto>
0.072 

> <ROCS_RefTversky>
0.269 

> <ROCS_RefColorTversky>
0.076 

> <ROCS_RefTverskyCombo>
0.345 

> <ROCS_FitTversky>
1.550 

> <ROCS_FitColorTversky>
0.576 

> <ROCS_FitTverskyCombo>
2.126 

> <ROCS_ColorScore>
-5.462

> <ROCS_Overlap>
1792.888

> <ROCS_Rank>
390                 

$$$$
untitled-dbase-43765_34
  -OEChem-08212314543D

 37 38  0     0  0  0  0  0  0999 V2000
   -7.7805    4.2344  -14.4969 C   0  0  0  0  0  0  0  0  0  0  0  0
   -8.5534    5.6633  -12.7044 C   0  0  0  0  0  0  0  0  0  0  0  0
   -8.1952    5.4780  -14.0466 C   0  0  0  0  0  0  0  0  0  0  0  0
   -8.5076    4.5595  -11.8400 C   0  0  0  0  0  0  0  0  0  0  0  0
   -7.7460    3.2065  -13.5793 C   0  0  0  0  0  0  0  0  0  0  0  0
   -8.9023    3.6032   -9.5850 C   0  0  0  0  0  0  0  0  0  0  0  0
   -9.0110    7.0212  -12.2548 C   0  0  0  0  0  0  0  0  0  0  0  0
   -8.7907    7.1837  -10.7626 C   0  0  0  0  0  0  0  0  0  0  0  0
   -9.4210    6.0157  -10.0241 C   0  0  0  0  0  0  0  0  0  0  0  0
   -8.7831    1.7391   -7.4104 C   0  0  0  0  0  0  0  0  0  0  0  0
   -9.1185    3.7349   -5.9227 C   0  0  0  0  0  0  0  0  0  0  0  0
  -10.8955    3.0970   -7.5790 C   0  0  0  0  0  0  0  0  0  0  0  0
   -9.3937    3.1354   -7.3000 C   0  0  0  0  0  0  0  0  0  0  0  0
   -8.0968    3.3416  -12.2812 N   0  0  0  0  0  0  0  0  0  0  0  0
   -8.9083    4.7078  -10.4613 N   0  0  0  0  0  0  0  0  0  0  0  0
   -9.0071    2.4242   -9.9170 O   0  0  0  0  0  0  0  0  0  0  0  0
   -8.2490    6.5077  -14.9397 O   0  0  0  0  0  0  0  0  0  0  0  0
   -7.3398    1.9628  -13.9854 O   0  0  0  0  0  0  0  0  0  0  0  0
   -8.7707    3.9835   -8.2721 O   0  0  0  0  0  0  0  0  0  0  0  0
   -7.4964    4.0773  -15.5319 H   0  0  0  0  0  0  0  0  0  0  0  0
   -8.4585    7.8142  -12.7718 H   0  0  0  0  0  0  0  0  0  0  0  0
  -10.0739    7.1366  -12.4985 H   0  0  0  0  0  0  0  0  0  0  0  0
   -7.7178    7.2300  -10.5352 H   0  0  0  0  0  0  0  0  0  0  0  0
   -9.2321    8.1266  -10.4214 H   0  0  0  0  0  0  0  0  0  0  0  0
   -9.2407    6.1456   -8.9516 H   0  0  0  0  0  0  0  0  0  0  0  0
  -10.5085    6.0000  -10.1691 H   0  0  0  0  0  0  0  0  0  0  0  0
   -8.9784    1.3053   -8.3977 H   0  0  0  0  0  0  0  0  0  0  0  0
   -7.7007    1.7580   -7.2469 H   0  0  0  0  0  0  0  0  0  0  0  0
   -9.2317    1.0572   -6.6789 H   0  0  0  0  0  0  0  0  0  0  0  0
   -9.5548    4.7368   -5.8390 H   0  0  0  0  0  0  0  0  0  0  0  0
   -8.0416    3.8523   -5.7562 H   0  0  0  0  0  0  0  0  0  0  0  0
   -9.5272    3.1108   -5.1214 H   0  0  0  0  0  0  0  0  0  0  0  0
  -11.3337    4.0984   -7.4999 H   0  0  0  0  0  0  0  0  0  0  0  0
  -11.1102    2.7038   -8.5780 H   0  0  0  0  0  0  0  0  0  0  0  0
  -11.4132    2.4738   -6.8408 H   0  0  0  0  0  0  0  0  0  0  0  0
   -7.9718    6.2027  -15.8172 H   0  0  0  0  0  0  0  0  0  0  0  0
   -7.3672    1.3491  -13.2380 H   0  0  0  0  0  0  0  0  0  0  0  0
  1  3  1  0  0  0  0
  1  5  2  0  0  0  0
  2  3  2  0  0  0  0
  2  4  1  0  0  0  0
  2  7  1  0  0  0  0
  3 17  1  0  0  0  0
  4 14  2  0  0  0  0
  4 15  1  0  0  0  0
  5 14  1  0  0  0  0
  5 18  1  0  0  0  0
  6 15  1  0  0  0  0
  6 16  2  0  0  0  0
  6 19  1  0  0  0  0
  7  8  1  0  0  0  0
  8  9  1  0  0  0  0
  9 15  1  0  0  0  0
 10 13  1  0  0  0  0
 11 13  1  0  0  0  0
 12 13  1  0  0  0  0
 13 19  1  0  0  0  0
  1 20  1  0  0  0  0
  7 21  1  0  0  0  0
  7 22  1  0  0  0  0
  8 23  1  0  0  0  0
  8 24  1  0  0  0  0
  9 25  1  0  0  0  0
  9 26  1  0  0  0  0
 10 27  1  0  0  0  0
 10 28  1  0  0  0  0
 10 29  1  0  0  0  0
 11 30  1  0  0  0  0
 11 31  1  0  0  0  0
 11 32  1  0  0  0  0
 12 33  1  0  0  0  0
 12 34  1  0  0  0  0
 12 35  1  0  0  0  0
 17 36  1  0  0  0  0
 18 37  1  0  0  0  0
M  END
> <id>
EN300-28228985

> <smiles>
CC(C)(C)OC(=O)N1CCCC=2C(O)=CC(O)=NC12

> <IUPAC Name>
tert-butyl 5,7-dihydroxy-1,2,3,4-tetrahydro-1,8-naphthyridine-1-carboxylate

> <CAS>
2639463-45-7

> <URL>
https://www.enaminestore.com/catalog/EN300-28228985

> <ROCS_ShapeQuery>
_x0404_0B

> <ROCS_TanimotoCombo>
0.369 

> <ROCS_ShapeTanimoto>
0.256 

> <ROCS_ColorTanimoto>
0.113 

> <ROCS_RefTversky>
0.239 

> <ROCS_RefColorTversky>
0.119 

> <ROCS_RefTverskyCombo>
0.358 

> <ROCS_FitTversky>
1.369 

> <ROCS_FitColorTversky>
0.698 

> <ROCS_FitTverskyCombo>
2.067 

> <ROCS_ColorScore>
-8.615

> <ROCS_Overlap>
1594.546

> <ROCS_Rank>
391                 

$$$$
untitled-dbase-17361_42
  -OEChem-08212314543D

 41 42  0     0  0  0  0  0  0999 V2000
   -8.8888    4.6188   -7.8439 C   0  0  0  0  0  0  0  0  0  0  0  0
   -8.9918    4.2926  -10.2462 C   0  0  0  0  0  0  0  0  0  0  0  0
   -8.7810    5.6693  -10.4414 C   0  0  0  0  0  0  0  0  0  0  0  0
   -8.6976    5.9848   -8.0344 C   0  0  0  0  0  0  0  0  0  0  0  0
   -9.0311    3.7745   -8.9445 C   0  0  0  0  0  0  0  0  0  0  0  0
   -8.6431    6.5081   -9.3260 C   0  0  0  0  0  0  0  0  0  0  0  0
   -8.2745    5.5227  -14.1891 C   0  0  0  0  0  0  0  0  0  0  0  0
   -9.1184    3.3665  -11.4271 C   0  0  0  0  0  0  0  0  0  0  0  0
   -8.7131    6.2698  -11.8240 C   0  0  0  0  0  0  0  0  0  0  0  0
   -9.6199    4.1068  -12.6608 C   0  0  0  0  0  0  0  0  0  0  0  0
   -8.5475    6.8858   -6.8552 C   0  0  0  0  0  0  0  0  0  0  0  0
   -7.0551    5.4792  -16.7775 C   0  0  0  0  0  0  0  0  0  0  0  0
   -7.4362    2.9973  -16.7120 C   0  0  0  0  0  0  0  0  0  0  0  0
   -9.3968    4.5657  -16.6484 C   0  0  0  0  0  0  0  0  0  0  0  0
   -7.9404    4.3578  -16.2356 C   0  0  0  0  0  0  0  0  0  0  0  0
   -8.8020    5.2902  -12.9142 N   0  0  0  0  0  0  0  0  0  0  0  0
   -9.2057    2.3906   -8.7103 N   0  0  0  0  0  0  0  0  0  0  0  0
   -8.1768    6.6327  -14.7088 O   0  0  0  0  0  0  0  0  0  0  0  0
   -7.8658    4.3690  -14.8054 O   0  0  0  0  0  0  0  0  0  0  0  0
   -8.4548    7.8249   -9.5030 F   0  0  0  0  0  0  0  0  0  0  0  0
   -8.9239    4.2128   -6.8354 H   0  0  0  0  0  0  0  0  0  0  0  0
   -8.1397    2.9148  -11.6309 H   0  0  0  0  0  0  0  0  0  0  0  0
   -9.8262    2.5573  -11.2138 H   0  0  0  0  0  0  0  0  0  0  0  0
   -9.5529    6.9618  -11.9585 H   0  0  0  0  0  0  0  0  0  0  0  0
   -7.7814    6.8370  -11.9233 H   0  0  0  0  0  0  0  0  0  0  0  0
   -9.6153    3.4360  -13.5261 H   0  0  0  0  0  0  0  0  0  0  0  0
  -10.6520    4.4514  -12.5192 H   0  0  0  0  0  0  0  0  0  0  0  0
   -7.4913    6.9714   -6.5721 H   0  0  0  0  0  0  0  0  0  0  0  0
   -8.9326    7.8909   -7.0704 H   0  0  0  0  0  0  0  0  0  0  0  0
   -9.1100    6.5083   -5.9914 H   0  0  0  0  0  0  0  0  0  0  0  0
   -7.4137    6.4574  -16.4377 H   0  0  0  0  0  0  0  0  0  0  0  0
   -6.0142    5.3608  -16.4593 H   0  0  0  0  0  0  0  0  0  0  0  0
   -7.0816    5.5036  -17.8729 H   0  0  0  0  0  0  0  0  0  0  0  0
   -8.0685    2.1898  -16.3256 H   0  0  0  0  0  0  0  0  0  0  0  0
   -6.4245    2.8031  -16.3378 H   0  0  0  0  0  0  0  0  0  0  0  0
   -7.4201    2.9324  -17.8047 H   0  0  0  0  0  0  0  0  0  0  0  0
  -10.0320    3.7615  -16.2599 H   0  0  0  0  0  0  0  0  0  0  0  0
   -9.7870    5.5213  -16.2833 H   0  0  0  0  0  0  0  0  0  0  0  0
   -9.4999    4.5415  -17.7393 H   0  0  0  0  0  0  0  0  0  0  0  0
   -9.3558    1.7834   -9.4880 H   0  0  0  0  0  0  0  0  0  0  0  0
   -9.2696    2.0636   -7.7696 H   0  0  0  0  0  0  0  0  0  0  0  0
  1  4  2  0  0  0  0
  1  5  1  0  0  0  0
  2  3  1  0  0  0  0
  2  5  2  0  0  0  0
  2  8  1  0  0  0  0
  3  6  2  0  0  0  0
  3  9  1  0  0  0  0
  4  6  1  0  0  0  0
  4 11  1  0  0  0  0
  5 17  1  0  0  0  0
  6 20  1  0  0  0  0
  7 16  1  0  0  0  0
  7 18  2  0  0  0  0
  7 19  1  0  0  0  0
  8 10  1  0  0  0  0
  9 16  1  0  0  0  0
 10 16  1  0  0  0  0
 12 15  1  0  0  0  0
 13 15  1  0  0  0  0
 14 15  1  0  0  0  0
 15 19  1  0  0  0  0
  1 21  1  0  0  0  0
  8 22  1  0  0  0  0
  8 23  1  0  0  0  0
  9 24  1  0  0  0  0
  9 25  1  0  0  0  0
 10 26  1  0  0  0  0
 10 27  1  0  0  0  0
 11 28  1  0  0  0  0
 11 29  1  0  0  0  0
 11 30  1  0  0  0  0
 12 31  1  0  0  0  0
 12 32  1  0  0  0  0
 12 33  1  0  0  0  0
 13 34  1  0  0  0  0
 13 35  1  0  0  0  0
 13 36  1  0  0  0  0
 14 37  1  0  0  0  0
 14 38  1  0  0  0  0
 14 39  1  0  0  0  0
 17 40  1  0  0  0  0
 17 41  1  0  0  0  0
M  END
> <id>
EN300-1609850

> <smiles>
CC=1C=C(N)C=2CCN(CC2C1F)C(=O)OC(C)(C)C

> <IUPAC Name>
tert-butyl 5-amino-8-fluoro-7-methyl-1,2,3,4-tetrahydroisoquinoline-2-carboxylate

> <CAS>
2172568-92-0

> <URL>
https://www.enaminestore.com/catalog/EN300-1609850

> <ROCS_ShapeQuery>
_x0404_0B

> <ROCS_TanimotoCombo>
0.369 

> <ROCS_ShapeTanimoto>
0.293 

> <ROCS_ColorTanimoto>
0.076 

> <ROCS_RefTversky>
0.267 

> <ROCS_RefColorTversky>
0.080 

> <ROCS_RefTverskyCombo>
0.347 

> <ROCS_FitTversky>
1.490 

> <ROCS_FitColorTversky>
0.607 

> <ROCS_FitTverskyCombo>
2.097 

> <ROCS_ColorScore>
-5.757

> <ROCS_Overlap>
1782.786

> <ROCS_Rank>
392                 

$$$$
untitled-dbase-2230_13
  -OEChem-08212314543D

 38 39  0     1  0  0  0  0  0999 V2000
   -9.3535    3.2133   -8.5023 C   0  0  0  0  0  0  0  0  0  0  0  0
   -9.5601    5.7009   -8.6638 C   0  0  0  0  0  0  0  0  0  0  0  0
   -9.2674    6.6650   -9.6638 C   0  0  0  0  0  0  0  0  0  0  0  0
   -9.2149    4.4628   -9.1642 C   0  0  0  0  0  0  0  0  0  0  0  0
   -8.7487    5.9886  -10.7495 C   0  0  0  0  0  0  0  0  0  0  0  0
   -8.6564    5.8685  -14.4647 C   0  0  0  0  0  0  0  0  0  0  0  0
   -8.2689    3.6589  -11.3586 C   0  0  0  0  0  0  0  0  0  0  0  0
   -8.7114    4.0207  -12.7711 C   0  0  0  0  0  0  0  0  0  0  0  0
   -8.2549    6.4508  -12.0816 C   0  0  1  0  0  0  0  0  0  0  0  0
   -6.7611    6.7802  -12.0256 C   0  0  0  0  0  0  0  0  0  0  0  0
   -6.9656    5.0781  -16.6331 C   0  0  0  0  0  0  0  0  0  0  0  0
   -8.9294    3.7306  -17.4312 C   0  0  0  0  0  0  0  0  0  0  0  0
   -9.1096    6.2307  -17.2726 C   0  0  0  0  0  0  0  0  0  0  0  0
   -8.4898    4.9746  -16.6621 C   0  0  0  0  0  0  0  0  0  0  0  0
   -9.4660    2.1919   -7.9631 N   0  0  0  0  0  0  0  0  0  0  0  0
   -8.7271    4.6589  -10.4210 N   0  0  0  0  0  0  0  0  0  0  0  0
   -8.5278    5.4414  -13.1323 N   0  0  0  0  0  0  0  0  0  0  0  0
   -8.5173    7.0324  -14.8359 O   0  0  0  0  0  0  0  0  0  0  0  0
   -8.9631    4.8400  -15.3172 O   0  0  0  0  0  0  0  0  0  0  0  0
   -9.9823    5.8971   -7.6871 H   0  0  0  0  0  0  0  0  0  0  0  0
   -9.4155    7.7314   -9.5956 H   0  0  0  0  0  0  0  0  0  0  0  0
   -8.7011    2.7066  -11.0484 H   0  0  0  0  0  0  0  0  0  0  0  0
   -7.1815    3.6037  -11.3138 H   0  0  0  0  0  0  0  0  0  0  0  0
   -8.1369    3.4305  -13.5182 H   0  0  0  0  0  0  0  0  0  0  0  0
   -9.7705    3.7187  -12.9184 H   0  0  0  0  0  0  0  0  0  0  0  0
   -8.7955    7.3710  -12.3390 H   0  0  0  0  0  0  0  0  0  0  0  0
   -6.1978    5.8849  -11.7719 H   0  0  0  0  0  0  0  0  0  0  0  0
   -6.5822    7.5427  -11.2706 H   0  0  0  0  0  0  0  0  0  0  0  0
   -6.4309    7.1495  -12.9941 H   0  0  0  0  0  0  0  0  0  0  0  0
   -6.6460    5.9697  -16.0819 H   0  0  0  0  0  0  0  0  0  0  0  0
   -6.5104    4.1987  -16.1658 H   0  0  0  0  0  0  0  0  0  0  0  0
   -6.5612    5.1798  -17.6467 H   0  0  0  0  0  0  0  0  0  0  0  0
  -10.0224    3.6524  -17.4546 H   0  0  0  0  0  0  0  0  0  0  0  0
   -8.5652    2.8201  -16.9418 H   0  0  0  0  0  0  0  0  0  0  0  0
   -8.5605    3.7415  -18.4619 H   0  0  0  0  0  0  0  0  0  0  0  0
  -10.2030    6.1568  -17.2935 H   0  0  0  0  0  0  0  0  0  0  0  0
   -8.8348    7.1297  -16.7114 H   0  0  0  0  0  0  0  0  0  0  0  0
   -8.7883    6.3578  -18.3127 H   0  0  0  0  0  0  0  0  0  0  0  0
  1  4  1  0  0  0  0
  1 15  3  0  0  0  0
  2  3  1  0  0  0  0
  2  4  2  0  0  0  0
  3  5  2  0  0  0  0
  4 16  1  0  0  0  0
  5  9  1  0  0  0  0
  5 16  1  0  0  0  0
  6 17  1  0  0  0  0
  6 18  2  0  0  0  0
  6 19  1  0  0  0  0
  7  8  1  0  0  0  0
  7 16  1  0  0  0  0
  8 17  1  0  0  0  0
  9 10  1  0  0  0  0
  9 17  1  0  0  0  0
 11 14  1  0  0  0  0
 12 14  1  0  0  0  0
 13 14  1  0  0  0  0
 14 19  1  0  0  0  0
  2 20  1  0  0  0  0
  3 21  1  0  0  0  0
  7 22  1  0  0  0  0
  7 23  1  0  0  0  0
  8 24  1  0  0  0  0
  8 25  1  0  0  0  0
  9 26  1  0  0  0  0
 10 27  1  0  0  0  0
 10 28  1  0  0  0  0
 10 29  1  0  0  0  0
 11 30  1  0  0  0  0
 11 31  1  0  0  0  0
 11 32  1  0  0  0  0
 12 33  1  0  0  0  0
 12 34  1  0  0  0  0
 12 35  1  0  0  0  0
 13 36  1  0  0  0  0
 13 37  1  0  0  0  0
 13 38  1  0  0  0  0
M  END
> <id>
EN300-32033

> <smiles>
CC1N(CCN2C(C#N)=CC=C12)C(=O)OC(C)(C)C

> <MDLNUMBER>
MFCD09971608

> <IUPAC Name>
tert-butyl 6-cyano-1-methyl-1H,2H,3H,4H-pyrrolo[1,2-a]pyrazine-2-carboxylate

> <CAS>
1050884-26-8

> <Purity>
95

> <URL>
https://www.enaminestore.com/catalog/EN300-32033

> <ROCS_ShapeQuery>
_x0404_0B

> <ROCS_TanimotoCombo>
0.369 

> <ROCS_ShapeTanimoto>
0.310 

> <ROCS_ColorTanimoto>
0.059 

> <ROCS_RefTversky>
0.278 

> <ROCS_RefColorTversky>
0.062 

> <ROCS_RefTverskyCombo>
0.340 

> <ROCS_FitTversky>
1.599 

> <ROCS_FitColorTversky>
0.525 

> <ROCS_FitTverskyCombo>
2.124 

> <ROCS_ColorScore>
-4.485

> <ROCS_Overlap>
1852.108

> <ROCS_Rank>
393                 

$$$$
untitled-dbase-31263_89
  -OEChem-08212314543D

 47 48  0     1  0  0  0  0  0999 V2000
   -8.6568    5.5866  -14.1181 C   0  0  0  0  0  0  0  0  0  0  0  0
   -8.2201    2.9475   -9.8758 C   0  0  0  0  0  0  0  0  0  0  0  0
   -7.5054    5.2245  -10.6798 C   0  0  0  0  0  0  0  0  0  0  0  0
   -9.9866    4.6087  -10.6859 C   0  0  0  0  0  0  0  0  0  0  0  0
   -9.1128    2.0930   -8.9757 C   0  0  0  0  0  0  0  0  0  0  0  0
   -8.0150    6.1448  -11.7851 C   0  0  0  0  0  0  0  0  0  0  0  0
   -9.8395    4.4922  -12.2014 C   0  0  0  0  0  0  0  0  0  0  0  0
   -9.6454    4.0114   -7.6014 C   0  0  0  0  0  0  0  0  0  0  0  0
   -8.7400    4.9333   -8.4404 C   0  0  1  0  0  0  0  0  0  0  0  0
   -8.6357    4.4491   -9.9294 C   0  0  0  0  0  0  0  0  0  0  0  0
   -9.1941    6.3882   -8.2688 C   0  0  0  0  0  0  0  0  0  0  0  0
   -7.3427    4.8806  -16.5592 C   0  0  0  0  0  0  0  0  0  0  0  0
   -9.1797    3.1914  -16.8449 C   0  0  0  0  0  0  0  0  0  0  0  0
   -9.7325    5.6404  -16.7750 C   0  0  0  0  0  0  0  0  0  0  0  0
   -8.8019    4.5471  -16.2520 C   0  0  0  0  0  0  0  0  0  0  0  0
   -9.1738    2.6284   -7.6200 N   0  0  0  0  0  0  0  0  0  0  0  0
   -8.8347    5.4076  -12.7430 N   0  0  0  0  0  0  0  0  0  0  0  0
   -8.2716    6.6306  -14.6402 O   0  0  0  0  0  0  0  0  0  0  0  0
   -8.9591    4.4557  -14.8315 O   0  0  0  0  0  0  0  0  0  0  0  0
   -7.1864    2.8748   -9.5050 H   0  0  0  0  0  0  0  0  0  0  0  0
   -8.2056    2.4952  -10.8739 H   0  0  0  0  0  0  0  0  0  0  0  0
   -6.7838    4.5132  -11.1056 H   0  0  0  0  0  0  0  0  0  0  0  0
   -6.9395    5.8422   -9.9705 H   0  0  0  0  0  0  0  0  0  0  0  0
  -10.4123    5.5950  -10.4781 H   0  0  0  0  0  0  0  0  0  0  0  0
  -10.7205    3.8764  -10.3433 H   0  0  0  0  0  0  0  0  0  0  0  0
  -10.1210    1.9978   -9.3974 H   0  0  0  0  0  0  0  0  0  0  0  0
   -8.6993    1.0782   -8.9303 H   0  0  0  0  0  0  0  0  0  0  0  0
   -8.5880    6.9633  -11.3421 H   0  0  0  0  0  0  0  0  0  0  0  0
   -7.1883    6.5964  -12.3396 H   0  0  0  0  0  0  0  0  0  0  0  0
   -9.5438    3.4738  -12.4955 H   0  0  0  0  0  0  0  0  0  0  0  0
  -10.8203    4.6663  -12.6670 H   0  0  0  0  0  0  0  0  0  0  0  0
   -9.6416    4.3517   -6.5605 H   0  0  0  0  0  0  0  0  0  0  0  0
  -10.6845    4.0604   -7.9435 H   0  0  0  0  0  0  0  0  0  0  0  0
   -7.7262    4.8740   -8.0119 H   0  0  0  0  0  0  0  0  0  0  0  0
  -10.1942    6.5055   -8.6765 H   0  0  0  0  0  0  0  0  0  0  0  0
   -8.5086    7.0457   -8.7958 H   0  0  0  0  0  0  0  0  0  0  0  0
   -9.2010    6.6429   -7.2127 H   0  0  0  0  0  0  0  0  0  0  0  0
   -7.0677    5.8530  -16.1353 H   0  0  0  0  0  0  0  0  0  0  0  0
   -6.6626    4.1218  -16.1588 H   0  0  0  0  0  0  0  0  0  0  0  0
   -7.1783    4.9570  -17.6401 H   0  0  0  0  0  0  0  0  0  0  0  0
  -10.2258    2.9481  -16.6269 H   0  0  0  0  0  0  0  0  0  0  0  0
   -8.5775    2.3901  -16.4016 H   0  0  0  0  0  0  0  0  0  0  0  0
   -9.0380    3.1716  -17.9303 H   0  0  0  0  0  0  0  0  0  0  0  0
  -10.7792    5.4015  -16.5548 H   0  0  0  0  0  0  0  0  0  0  0  0
   -9.4997    6.6142  -16.3320 H   0  0  0  0  0  0  0  0  0  0  0  0
   -9.6578    5.7271  -17.8651 H   0  0  0  0  0  0  0  0  0  0  0  0
   -9.7977    2.0508   -7.0556 H   0  0  0  0  0  0  0  0  0  0  0  0
  1 17  1  0  0  0  0
  1 18  2  0  0  0  0
  1 19  1  0  0  0  0
  2  5  1  0  0  0  0
  2 10  1  0  0  0  0
  3  6  1  0  0  0  0
  3 10  1  0  0  0  0
  4  7  1  0  0  0  0
  4 10  1  0  0  0  0
  5 16  1  0  0  0  0
  6 17  1  0  0  0  0
  7 17  1  0  0  0  0
  8  9  1  0  0  0  0
  8 16  1  0  0  0  0
  9 10  1  0  0  0  0
  9 11  1  0  0  0  0
 12 15  1  0  0  0  0
 13 15  1  0  0  0  0
 14 15  1  0  0  0  0
 15 19  1  0  0  0  0
  2 20  1  0  0  0  0
  2 21  1  0  0  0  0
  3 22  1  0  0  0  0
  3 23  1  0  0  0  0
  4 24  1  0  0  0  0
  4 25  1  0  0  0  0
  5 26  1  0  0  0  0
  5 27  1  0  0  0  0
  6 28  1  0  0  0  0
  6 29  1  0  0  0  0
  7 30  1  0  0  0  0
  7 31  1  0  0  0  0
  8 32  1  0  0  0  0
  8 33  1  0  0  0  0
  9 34  1  0  0  0  0
 11 35  1  0  0  0  0
 11 36  1  0  0  0  0
 11 37  1  0  0  0  0
 12 38  1  0  0  0  0
 12 39  1  0  0  0  0
 12 40  1  0  0  0  0
 13 41  1  0  0  0  0
 13 42  1  0  0  0  0
 13 43  1  0  0  0  0
 14 44  1  0  0  0  0
 14 45  1  0  0  0  0
 14 46  1  0  0  0  0
 16 47  1  0  0  0  0
M  END
> <id>
EN300-7535142

> <smiles>
CC1CNCCC21CCN(CC2)C(=O)OC(C)(C)C

> <MDLNUMBER>
MFCD32667892

> <IUPAC Name>
tert-butyl 7-methyl-3,9-diazaspiro[5.5]undecane-3-carboxylate

> <CAS>
1554158-37-0

> <Purity>
90

> <URL>
https://www.enaminestore.com/catalog/EN300-7535142

> <ROCS_ShapeQuery>
_x0404_0B

> <ROCS_TanimotoCombo>
0.369 

> <ROCS_ShapeTanimoto>
0.288 

> <ROCS_ColorTanimoto>
0.081 

> <ROCS_RefTversky>
0.261 

> <ROCS_RefColorTversky>
0.085 

> <ROCS_RefTverskyCombo>
0.346 

> <ROCS_FitTversky>
1.548 

> <ROCS_FitColorTversky>
0.645 

> <ROCS_FitTverskyCombo>
2.193 

> <ROCS_ColorScore>
-6.119

> <ROCS_Overlap>
1741.293

> <ROCS_Rank>
394                 

$$$$
untitled-dbase-12946_199
  -OEChem-08212314543D

 45 46  0     1  0  0  0  0  0999 V2000
   -8.7916    5.6466  -14.2847 C   0  0  0  0  0  0  0  0  0  0  0  0
   -7.6243    6.4212  -11.2526 C   0  0  0  0  0  0  0  0  0  0  0  0
   -7.7717    5.5475  -10.0042 C   0  0  0  0  0  0  0  0  0  0  0  0
   -8.9500    3.6936  -11.3834 C   0  0  0  0  0  0  0  0  0  0  0  0
   -8.9545    4.0937   -7.6344 C   0  0  0  0  0  0  0  0  0  0  0  0
   -8.9079    6.7178  -12.0088 C   0  0  0  0  0  0  0  0  0  0  0  0
   -9.8336    4.4428  -12.3907 C   0  0  0  0  0  0  0  0  0  0  0  0
  -10.2317    4.7143   -8.1628 C   0  0  0  0  0  0  0  0  0  0  0  0
   -8.3925    3.3823   -8.8540 C   0  0  2  0  0  0  0  0  0  0  0  0
   -8.7890    4.3637   -9.9996 C   0  0  1  0  0  0  0  0  0  0  0  0
   -7.2927    4.5223  -16.4487 C   0  0  0  0  0  0  0  0  0  0  0  0
   -9.3463    3.1536  -16.9166 C   0  0  0  0  0  0  0  0  0  0  0  0
   -9.4491    5.6580  -17.0769 C   0  0  0  0  0  0  0  0  0  0  0  0
   -8.8168    4.4704  -16.3527 C   0  0  0  0  0  0  0  0  0  0  0  0
   -9.2021    5.6316  -12.9433 N   0  0  0  0  0  0  0  0  0  0  0  0
   -9.0060    2.0534   -8.9189 N   0  0  0  0  0  0  0  0  0  0  0  0
   -8.1526    6.5589  -14.8058 O   0  0  0  0  0  0  0  0  0  0  0  0
  -10.0678    4.8991   -9.5768 O   0  0  0  0  0  0  0  0  0  0  0  0
   -9.1886    4.5285  -14.9708 O   0  0  0  0  0  0  0  0  0  0  0  0
   -7.1147    7.3628  -10.9864 H   0  0  0  0  0  0  0  0  0  0  0  0
   -6.9309    5.9056  -11.9383 H   0  0  0  0  0  0  0  0  0  0  0  0
   -6.7711    5.1573   -9.7225 H   0  0  0  0  0  0  0  0  0  0  0  0
   -8.0430    6.2400   -9.1804 H   0  0  0  0  0  0  0  0  0  0  0  0
   -9.4068    2.7040  -11.2752 H   0  0  0  0  0  0  0  0  0  0  0  0
   -7.9644    3.5106  -11.8255 H   0  0  0  0  0  0  0  0  0  0  0  0
   -8.2688    4.8422   -7.2115 H   0  0  0  0  0  0  0  0  0  0  0  0
   -9.1881    3.3828   -6.8264 H   0  0  0  0  0  0  0  0  0  0  0  0
   -9.7294    6.8053  -11.2943 H   0  0  0  0  0  0  0  0  0  0  0  0
   -8.8571    7.6640  -12.5520 H   0  0  0  0  0  0  0  0  0  0  0  0
  -10.0680    3.7852  -13.2223 H   0  0  0  0  0  0  0  0  0  0  0  0
  -10.7664    4.7162  -11.9087 H   0  0  0  0  0  0  0  0  0  0  0  0
  -11.1082    4.0886   -7.9744 H   0  0  0  0  0  0  0  0  0  0  0  0
  -10.4055    5.6998   -7.7186 H   0  0  0  0  0  0  0  0  0  0  0  0
   -7.3481    3.2904   -8.7448 H   0  0  0  0  0  0  0  0  0  0  0  0
   -6.9087    5.4660  -16.0450 H   0  0  0  0  0  0  0  0  0  0  0  0
   -6.8258    3.6953  -15.9038 H   0  0  0  0  0  0  0  0  0  0  0  0
   -6.9650    4.4771  -17.4936 H   0  0  0  0  0  0  0  0  0  0  0  0
  -10.4394    3.1120  -16.8496 H   0  0  0  0  0  0  0  0  0  0  0  0
   -8.9691    2.3019  -16.3390 H   0  0  0  0  0  0  0  0  0  0  0  0
   -9.0576    3.0174  -17.9638 H   0  0  0  0  0  0  0  0  0  0  0  0
  -10.5424    5.6210  -17.0082 H   0  0  0  0  0  0  0  0  0  0  0  0
   -9.1088    6.6118  -16.6609 H   0  0  0  0  0  0  0  0  0  0  0  0
   -9.2057    5.6374  -18.1453 H   0  0  0  0  0  0  0  0  0  0  0  0
   -8.6289    1.5662   -9.7002 H   0  0  0  0  0  0  0  0  0  0  0  0
   -8.7993    1.5664   -8.0762 H   0  0  0  0  0  0  0  0  0  0  0  0
  1 15  1  0  0  0  0
  1 17  2  0  0  0  0
  1 19  1  0  0  0  0
  2  3  1  0  0  0  0
  2  6  1  0  0  0  0
  3 10  1  0  0  0  0
  4  7  1  0  0  0  0
  4 10  1  0  0  0  0
  5  8  1  0  0  0  0
  5  9  1  0  0  0  0
  6 15  1  0  0  0  0
  7 15  1  0  0  0  0
  8 18  1  0  0  0  0
  9 10  1  0  0  0  0
  9 16  1  0  0  0  0
 10 18  1  0  0  0  0
 11 14  1  0  0  0  0
 12 14  1  0  0  0  0
 13 14  1  0  0  0  0
 14 19  1  0  0  0  0
  2 20  1  0  0  0  0
  2 21  1  0  0  0  0
  3 22  1  0  0  0  0
  3 23  1  0  0  0  0
  4 24  1  0  0  0  0
  4 25  1  0  0  0  0
  5 26  1  0  0  0  0
  5 27  1  0  0  0  0
  6 28  1  0  0  0  0
  6 29  1  0  0  0  0
  7 30  1  0  0  0  0
  7 31  1  0  0  0  0
  8 32  1  0  0  0  0
  8 33  1  0  0  0  0
  9 34  1  0  0  0  0
 11 35  1  0  0  0  0
 11 36  1  0  0  0  0
 11 37  1  0  0  0  0
 12 38  1  0  0  0  0
 12 39  1  0  0  0  0
 12 40  1  0  0  0  0
 13 41  1  0  0  0  0
 13 42  1  0  0  0  0
 13 43  1  0  0  0  0
 16 44  1  0  0  0  0
 16 45  1  0  0  0  0
M  END
> <id>
EN300-744237

> <smiles>
CC(C)(C)OC(=O)N1CCCC2(CC1)OCCC2N

> <MDLNUMBER>
MFCD31455348

> <IUPAC Name>
tert-butyl 4-amino-1-oxa-8-azaspiro[4.6]undecane-8-carboxylate

> <CAS>
2137488-24-3

> <URL>
https://www.enaminestore.com/catalog/EN300-744237

> <ROCS_ShapeQuery>
_x0404_0B

> <ROCS_TanimotoCombo>
0.369 

> <ROCS_ShapeTanimoto>
0.280 

> <ROCS_ColorTanimoto>
0.088 

> <ROCS_RefTversky>
0.256 

> <ROCS_RefColorTversky>
0.093 

> <ROCS_RefTverskyCombo>
0.349 

> <ROCS_FitTversky>
1.505 

> <ROCS_FitColorTversky>
0.644 

> <ROCS_FitTverskyCombo>
2.148 

> <ROCS_ColorScore>
-6.713

> <ROCS_Overlap>
1708.812

> <ROCS_Rank>
395                 

$$$$
untitled-dbase-44358_1
  -OEChem-08212314543D

 36 38  0     0  0  0  0  0  0999 V2000
   -7.9546    4.8948  -18.1163 C   0  0  0  0  0  0  0  0  0  0  0  0
   -7.5945    3.5704  -17.8758 C   0  0  0  0  0  0  0  0  0  0  0  0
   -8.2788    5.7362  -17.0517 C   0  0  0  0  0  0  0  0  0  0  0  0
   -7.5570    3.0816  -16.5696 C   0  0  0  0  0  0  0  0  0  0  0  0
   -8.8694    6.4627  -12.1675 C   0  0  0  0  0  0  0  0  0  0  0  0
   -8.8319    5.9739  -10.8613 C   0  0  0  0  0  0  0  0  0  0  0  0
   -8.1475    3.8081  -11.6854 C   0  0  0  0  0  0  0  0  0  0  0  0
   -8.2424    5.2498  -15.7394 C   0  0  0  0  0  0  0  0  0  0  0  0
   -7.8815    3.9225  -15.4983 C   0  0  0  0  0  0  0  0  0  0  0  0
   -8.5448    5.6218  -13.2388 C   0  0  0  0  0  0  0  0  0  0  0  0
   -8.1838    4.2945  -12.9977 C   0  0  0  0  0  0  0  0  0  0  0  0
   -8.4718    4.6494  -10.6208 C   0  0  0  0  0  0  0  0  0  0  0  0
   -8.5872    6.1480  -14.6184 C   0  0  0  0  0  0  0  0  0  0  0  0
   -7.8390    3.3964  -14.1187 C   0  0  0  0  0  0  0  0  0  0  0  0
   -8.8305    5.2373   -8.1976 C   0  0  0  0  0  0  0  0  0  0  0  0
   -7.0048    3.6297   -8.8446 C   0  0  0  0  0  0  0  0  0  0  0  0
   -9.3881    2.9267   -8.9271 C   0  0  0  0  0  0  0  0  0  0  0  0
   -8.4332    4.1305   -9.2229 C   0  0  0  0  0  0  0  0  0  0  0  0
   -8.9045    7.3120  -14.8296 O   0  0  0  0  0  0  0  0  0  0  0  0
   -7.5219    2.2324  -13.9075 O   0  0  0  0  0  0  0  0  0  0  0  0
   -7.9841    5.2724  -19.1343 H   0  0  0  0  0  0  0  0  0  0  0  0
   -7.3417    2.9178  -18.7065 H   0  0  0  0  0  0  0  0  0  0  0  0
   -8.5558    6.7649  -17.2662 H   0  0  0  0  0  0  0  0  0  0  0  0
   -7.2730    2.0451  -16.4084 H   0  0  0  0  0  0  0  0  0  0  0  0
   -9.1530    7.4993  -12.3290 H   0  0  0  0  0  0  0  0  0  0  0  0
   -9.0863    6.6344  -10.0365 H   0  0  0  0  0  0  0  0  0  0  0  0
   -7.8694    2.7770  -11.4808 H   0  0  0  0  0  0  0  0  0  0  0  0
   -8.8101    4.8813   -7.1609 H   0  0  0  0  0  0  0  0  0  0  0  0
   -8.1547    6.0977   -8.2538 H   0  0  0  0  0  0  0  0  0  0  0  0
   -9.8438    5.6008   -8.4058 H   0  0  0  0  0  0  0  0  0  0  0  0
   -6.9721    3.2477   -7.8184 H   0  0  0  0  0  0  0  0  0  0  0  0
   -6.6518    2.8231   -9.4979 H   0  0  0  0  0  0  0  0  0  0  0  0
   -6.2840    4.4532   -8.9122 H   0  0  0  0  0  0  0  0  0  0  0  0
   -9.3236    2.5816   -7.8881 H   0  0  0  0  0  0  0  0  0  0  0  0
  -10.4330    3.2037   -9.1097 H   0  0  0  0  0  0  0  0  0  0  0  0
   -9.1450    2.0700   -9.5664 H   0  0  0  0  0  0  0  0  0  0  0  0
  1  2  2  0  0  0  0
  1  3  1  0  0  0  0
  2  4  1  0  0  0  0
  3  8  2  0  0  0  0
  4  9  2  0  0  0  0
  5  6  1  0  0  0  0
  5 10  2  0  0  0  0
  6 12  2  0  0  0  0
  7 11  2  0  0  0  0
  7 12  1  0  0  0  0
  8  9  1  0  0  0  0
  8 13  1  0  0  0  0
  9 14  1  0  0  0  0
 10 11  1  0  0  0  0
 10 13  1  0  0  0  0
 11 14  1  0  0  0  0
 12 18  1  0  0  0  0
 13 19  2  0  0  0  0
 14 20  2  0  0  0  0
 15 18  1  0  0  0  0
 16 18  1  0  0  0  0
 17 18  1  0  0  0  0
  1 21  1  0  0  0  0
  2 22  1  0  0  0  0
  3 23  1  0  0  0  0
  4 24  1  0  0  0  0
  5 25  1  0  0  0  0
  6 26  1  0  0  0  0
  7 27  1  0  0  0  0
 15 28  1  0  0  0  0
 15 29  1  0  0  0  0
 15 30  1  0  0  0  0
 16 31  1  0  0  0  0
 16 32  1  0  0  0  0
 16 33  1  0  0  0  0
 17 34  1  0  0  0  0
 17 35  1  0  0  0  0
 17 36  1  0  0  0  0
M  END
> <id>
EN300-7399929

> <smiles>
CC(C)(C)C=1C=CC=2C(=O)C=3C=CC=CC3C(=O)C2C1

> <MDLNUMBER>
MFCD00001232

> <IUPAC Name>
2-tert-butyl-9,10-dihydroanthracene-9,10-dione

> <CAS>
84-47-9

> <Purity>
95

> <URL>
https://www.enaminestore.com/catalog/EN300-7399929

> <MP>
98-100

> <ROCS_ShapeQuery>
_x0404_0B

> <ROCS_TanimotoCombo>
0.369 

> <ROCS_ShapeTanimoto>
0.300 

> <ROCS_ColorTanimoto>
0.069 

> <ROCS_RefTversky>
0.273 

> <ROCS_RefColorTversky>
0.073 

> <ROCS_RefTverskyCombo>
0.346 

> <ROCS_FitTversky>
1.491 

> <ROCS_FitColorTversky>
0.557 

> <ROCS_FitTverskyCombo>
2.048 

> <ROCS_ColorScore>
-5.283

> <ROCS_Overlap>
1819.029

> <ROCS_Rank>
396                 

$$$$
untitled-dbase-45524_14
  -OEChem-08212314543D

 36 37  0     1  0  0  0  0  0999 V2000
   -8.6980    6.8992  -10.9522 C   0  0  0  0  0  0  0  0  0  0  0  0
   -8.4976    6.7495  -12.3385 C   0  0  0  0  0  0  0  0  0  0  0  0
   -8.6355    5.3979  -12.5757 C   0  0  0  0  0  0  0  0  0  0  0  0
   -8.3993    5.1918  -14.9738 C   0  0  0  0  0  0  0  0  0  0  0  0
   -8.4617    2.5986  -12.2139 C   0  0  0  0  0  0  0  0  0  0  0  0
   -8.8353    3.1421  -13.5914 C   0  0  0  0  0  0  0  0  0  0  0  0
   -9.1072    3.4249  -11.0943 C   0  0  1  0  0  0  0  0  0  0  0  0
   -6.9228    5.4263  -17.4206 C   0  0  0  0  0  0  0  0  0  0  0  0
   -8.4289    3.6133  -18.2888 C   0  0  0  0  0  0  0  0  0  0  0  0
   -9.4026    5.8211  -17.5919 C   0  0  0  0  0  0  0  0  0  0  0  0
   -8.5978    2.9484   -9.7327 C   0  0  0  0  0  0  0  0  0  0  0  0
   -8.3083    4.7894  -17.3222 C   0  0  0  0  0  0  0  0  0  0  0  0
   -8.9434    5.7411  -10.3391 N   0  0  0  0  0  0  0  0  0  0  0  0
   -8.8693    4.8429  -11.3382 N   0  0  0  0  0  0  0  0  0  0  0  0
   -8.5895    4.5908  -13.7169 N   0  0  0  0  0  0  0  0  0  0  0  0
   -8.1893    6.3844  -15.1819 O   0  0  0  0  0  0  0  0  0  0  0  0
   -8.4813    4.2772  -15.9955 O   0  0  0  0  0  0  0  0  0  0  0  0
   -8.8646    1.6436   -9.5739 F   0  0  0  0  0  0  0  0  0  0  0  0
   -7.2724    3.1353   -9.6475 F   0  0  0  0  0  0  0  0  0  0  0  0
   -9.1986    3.6379   -8.7514 F   0  0  0  0  0  0  0  0  0  0  0  0
   -8.3479    8.4361  -13.5096 I   0  0  0  0  0  0  0  0  0  0  0  0
   -8.7040    7.8022  -10.3564 H   0  0  0  0  0  0  0  0  0  0  0  0
   -8.8144    1.5638  -12.1417 H   0  0  0  0  0  0  0  0  0  0  0  0
   -7.3750    2.5738  -12.0992 H   0  0  0  0  0  0  0  0  0  0  0  0
   -8.2622    2.6413  -14.3799 H   0  0  0  0  0  0  0  0  0  0  0  0
   -9.8940    2.9295  -13.7720 H   0  0  0  0  0  0  0  0  0  0  0  0
  -10.1943    3.2624  -11.1412 H   0  0  0  0  0  0  0  0  0  0  0  0
   -6.8322    6.2710  -16.7282 H   0  0  0  0  0  0  0  0  0  0  0  0
   -6.1304    4.7052  -17.1950 H   0  0  0  0  0  0  0  0  0  0  0  0
   -6.7483    5.8295  -18.4246 H   0  0  0  0  0  0  0  0  0  0  0  0
   -9.4214    3.1533  -18.2215 H   0  0  0  0  0  0  0  0  0  0  0  0
   -7.7069    2.8273  -18.0393 H   0  0  0  0  0  0  0  0  0  0  0  0
   -8.2599    3.9231  -19.3251 H   0  0  0  0  0  0  0  0  0  0  0  0
  -10.3965    5.3645  -17.5214 H   0  0  0  0  0  0  0  0  0  0  0  0
   -9.3543    6.6548  -16.8839 H   0  0  0  0  0  0  0  0  0  0  0  0
   -9.3180    6.2221  -18.6084 H   0  0  0  0  0  0  0  0  0  0  0  0
  1  2  1  0  0  0  0
  1 13  2  0  0  0  0
  2  3  2  0  0  0  0
  2 21  1  0  0  0  0
  3 14  1  0  0  0  0
  3 15  1  0  0  0  0
  4 15  1  0  0  0  0
  4 16  2  0  0  0  0
  4 17  1  0  0  0  0
  5  6  1  0  0  0  0
  5  7  1  0  0  0  0
  6 15  1  0  0  0  0
  7 11  1  0  0  0  0
  7 14  1  0  0  0  0
  8 12  1  0  0  0  0
  9 12  1  0  0  0  0
 10 12  1  0  0  0  0
 11 18  1  0  0  0  0
 11 19  1  0  0  0  0
 11 20  1  0  0  0  0
 12 17  1  0  0  0  0
 13 14  1  0  0  0  0
  1 22  1  0  0  0  0
  5 23  1  0  0  0  0
  5 24  1  0  0  0  0
  6 25  1  0  0  0  0
  6 26  1  0  0  0  0
  7 27  1  0  0  0  0
  8 28  1  0  0  0  0
  8 29  1  0  0  0  0
  8 30  1  0  0  0  0
  9 31  1  0  0  0  0
  9 32  1  0  0  0  0
  9 33  1  0  0  0  0
 10 34  1  0  0  0  0
 10 35  1  0  0  0  0
 10 36  1  0  0  0  0
M  END
> <id>
EN300-28303826

> <smiles>
CC(C)(C)OC(=O)N1CCC(N2N=CC(I)=C12)C(F)(F)F

> <IUPAC Name>
tert-butyl 3-iodo-7-(trifluoromethyl)-4H,5H,6H,7H-pyrazolo[1,5-a]pyrimidine-4-carboxylate

> <CAS>
2680668-86-2

> <URL>
https://www.enaminestore.com/catalog/EN300-28303826

> <ROCS_ShapeQuery>
_x0404_0B

> <ROCS_TanimotoCombo>
0.369 

> <ROCS_ShapeTanimoto>
0.318 

> <ROCS_ColorTanimoto>
0.051 

> <ROCS_RefTversky>
0.286 

> <ROCS_RefColorTversky>
0.055 

> <ROCS_RefTverskyCombo>
0.342 

> <ROCS_FitTversky>
1.522 

> <ROCS_FitColorTversky>
0.419 

> <ROCS_FitTverskyCombo>
1.941 

> <ROCS_ColorScore>
-3.979

> <ROCS_Overlap>
1910.727

> <ROCS_Rank>
397                 

$$$$
untitled-dbase-24124_0
  -OEChem-08212314543D

 44 48  0     0  0  0  0  0  0999 V2000
   -7.1894    4.0580  -18.4528 C   0  0  0  0  0  0  0  0  0  0  0  0
   -6.9937    2.7202  -18.0566 C   0  0  0  0  0  0  0  0  0  0  0  0
   -7.5177    5.0443  -17.5185 C   0  0  0  0  0  0  0  0  0  0  0  0
   -7.1216    2.3404  -16.7176 C   0  0  0  0  0  0  0  0  0  0  0  0
   -5.9925    0.3741  -10.8516 C   0  0  0  0  0  0  0  0  0  0  0  0
   -7.0666    0.6967  -10.0270 C   0  0  0  0  0  0  0  0  0  0  0  0
   -6.3115    2.4474  -12.0416 C   0  0  0  0  0  0  0  0  0  0  0  0
   -7.6411    4.6540  -16.1991 C   0  0  0  0  0  0  0  0  0  0  0  0
   -7.4464    3.3258  -15.8057 C   0  0  0  0  0  0  0  0  0  0  0  0
   -7.4281    2.7669  -11.2509 C   0  0  0  0  0  0  0  0  0  0  0  0
   -5.6052    1.2582  -11.8491 C   0  0  0  0  0  0  0  0  0  0  0  0
   -7.7728    1.9000  -10.1967 C   0  0  0  0  0  0  0  0  0  0  0  0
   -8.2308    4.0007  -11.4546 C   0  0  0  0  0  0  0  0  0  0  0  0
   -7.9768    5.4930  -15.0390 C   0  0  0  0  0  0  0  0  0  0  0  0
   -7.6372    3.1831  -14.3545 C   0  0  0  0  0  0  0  0  0  0  0  0
   -7.9701    4.5533  -13.8891 C   0  0  0  0  0  0  0  0  0  0  0  0
   -8.2269    4.8921  -12.6178 C   0  0  0  0  0  0  0  0  0  0  0  0
   -9.0489    4.3901  -10.4467 C   0  0  0  0  0  0  0  0  0  0  0  0
   -9.2973    3.5878   -9.1713 C   0  0  0  0  0  0  0  0  0  0  0  0
   -4.4332    0.9388  -12.7147 C   0  0  0  0  0  0  0  0  0  0  0  0
   -8.5775    4.2396   -7.9775 C   0  0  0  0  0  0  0  0  0  0  0  0
  -10.7995    3.4438   -8.8491 C   0  0  0  0  0  0  0  0  0  0  0  0
   -8.7863    2.2221   -9.3072 N   0  0  0  0  0  0  0  0  0  0  0  0
   -8.2049    6.6827  -15.0370 O   0  0  0  0  0  0  0  0  0  0  0  0
   -7.5419    2.1685  -13.6995 O   0  0  0  0  0  0  0  0  0  0  0  0
   -8.7089    6.5211  -12.2340 S   0  0  0  0  0  0  0  0  0  0  0  0
   -9.8867    5.9183  -10.6785 S   0  0  0  0  0  0  0  0  0  0  0  0
   -7.0833    4.3245  -19.5012 H   0  0  0  0  0  0  0  0  0  0  0  0
   -6.7394    1.9740  -18.8050 H   0  0  0  0  0  0  0  0  0  0  0  0
   -7.6679    6.0723  -17.8276 H   0  0  0  0  0  0  0  0  0  0  0  0
   -6.9699    1.3102  -16.4167 H   0  0  0  0  0  0  0  0  0  0  0  0
   -5.4545   -0.5565  -10.6939 H   0  0  0  0  0  0  0  0  0  0  0  0
   -7.3399    0.0104   -9.2280 H   0  0  0  0  0  0  0  0  0  0  0  0
   -5.9613    3.1253  -12.8151 H   0  0  0  0  0  0  0  0  0  0  0  0
   -4.7548    0.3789  -13.6013 H   0  0  0  0  0  0  0  0  0  0  0  0
   -3.9222    1.8519  -13.0461 H   0  0  0  0  0  0  0  0  0  0  0  0
   -3.6907    0.3377  -12.1738 H   0  0  0  0  0  0  0  0  0  0  0  0
   -8.7666    3.6550   -7.0833 H   0  0  0  0  0  0  0  0  0  0  0  0
   -8.9529    5.2483   -7.8410 H   0  0  0  0  0  0  0  0  0  0  0  0
   -7.5113    4.2698   -8.1760 H   0  0  0  0  0  0  0  0  0  0  0  0
  -10.9119    2.8680   -7.9381 H   0  0  0  0  0  0  0  0  0  0  0  0
  -11.2898    2.9344   -9.6702 H   0  0  0  0  0  0  0  0  0  0  0  0
  -11.2288    4.4300   -8.7176 H   0  0  0  0  0  0  0  0  0  0  0  0
   -8.9994    1.5555   -8.5725 H   0  0  0  0  0  0  0  0  0  0  0  0
  1  2  2  0  0  0  0
  1  3  1  0  0  0  0
  2  4  1  0  0  0  0
  3  8  2  0  0  0  0
  4  9  2  0  0  0  0
  5  6  1  0  0  0  0
  5 11  2  0  0  0  0
  6 12  2  0  0  0  0
  7 10  2  0  0  0  0
  7 11  1  0  0  0  0
  8  9  1  0  0  0  0
  8 14  1  0  0  0  0
  9 15  1  0  0  0  0
 10 12  1  0  0  0  0
 10 13  1  0  0  0  0
 11 20  1  0  0  0  0
 12 23  1  0  0  0  0
 13 17  1  0  0  0  0
 13 18  2  0  0  0  0
 14 16  1  0  0  0  0
 14 24  2  0  0  0  0
 15 16  1  0  0  0  0
 15 25  2  0  0  0  0
 16 17  2  0  0  0  0
 17 26  1  0  0  0  0
 18 19  1  0  0  0  0
 18 27  1  0  0  0  0
 19 21  1  0  0  0  0
 19 22  1  0  0  0  0
 19 23  1  0  0  0  0
 26 27  1  0  0  0  0
  1 28  1  0  0  0  0
  2 29  1  0  0  0  0
  3 30  1  0  0  0  0
  4 31  1  0  0  0  0
  5 32  1  0  0  0  0
  6 33  1  0  0  0  0
  7 34  1  0  0  0  0
 20 35  1  0  0  0  0
 20 36  1  0  0  0  0
 20 37  1  0  0  0  0
 21 38  1  0  0  0  0
 21 39  1  0  0  0  0
 21 40  1  0  0  0  0
 22 41  1  0  0  0  0
 22 42  1  0  0  0  0
 22 43  1  0  0  0  0
 23 44  1  0  0  0  0
M  END
> <id>
EN300-18228808

> <smiles>
CC=1C=CC=2NC(C)(C)C3=C(C(=C4C(=O)C=5C=CC=CC5C4=O)SS3)C2C1

> <MDLNUMBER>
MFCD00627197

> <IUPAC Name>
2-{4,4,8-trimethyl-1H,4H,5H-[1,2]dithiolo[3,4-c]quinolin-1-ylidene}-2,3-dihydro-1H-indene-1,3-dione

> <CAS>
300769-15-7

> <URL>
https://www.enaminestore.com/catalog/EN300-18228808

> <ROCS_ShapeQuery>
_x0404_0B

> <ROCS_TanimotoCombo>
0.369 

> <ROCS_ShapeTanimoto>
0.282 

> <ROCS_ColorTanimoto>
0.087 

> <ROCS_RefTversky>
0.270 

> <ROCS_RefColorTversky>
0.094 

> <ROCS_RefTverskyCombo>
0.364 

> <ROCS_FitTversky>
1.174 

> <ROCS_FitColorTversky>
0.549 

> <ROCS_FitTverskyCombo>
1.723 

> <ROCS_ColorScore>
-6.784

> <ROCS_Overlap>
1807.609

> <ROCS_Rank>
398                 

$$$$
untitled-dbase-16790_27
  -OEChem-08212314543D

 38 39  0     0  0  0  0  0  0999 V2000
   -9.1290    4.2250  -10.3045 C   0  0  0  0  0  0  0  0  0  0  0  0
   -8.9503    5.5928  -10.4821 C   0  0  0  0  0  0  0  0  0  0  0  0
   -9.0293    3.7674   -9.0009 C   0  0  0  0  0  0  0  0  0  0  0  0
   -8.6603    5.8700   -8.2309 C   0  0  0  0  0  0  0  0  0  0  0  0
   -8.6106    5.4845  -14.2285 C   0  0  0  0  0  0  0  0  0  0  0  0
   -9.3537    3.2958  -11.4568 C   0  0  0  0  0  0  0  0  0  0  0  0
   -9.0260    6.2149  -11.8514 C   0  0  0  0  0  0  0  0  0  0  0  0
   -9.8930    4.0337  -12.6781 C   0  0  0  0  0  0  0  0  0  0  0  0
   -8.4118    6.7870   -7.0817 C   0  0  0  0  0  0  0  0  0  0  0  0
   -7.6957    5.4687  -16.9400 C   0  0  0  0  0  0  0  0  0  0  0  0
   -9.1441    3.4361  -17.2226 C   0  0  0  0  0  0  0  0  0  0  0  0
  -10.1862    5.6403  -16.6198 C   0  0  0  0  0  0  0  0  0  0  0  0
   -8.9558    4.7478  -16.4635 C   0  0  0  0  0  0  0  0  0  0  0  0
   -8.7221    6.4383   -9.4501 N   0  0  0  0  0  0  0  0  0  0  0  0
   -8.7996    4.5651   -7.9386 N   0  0  0  0  0  0  0  0  0  0  0  0
   -9.1103    5.2392  -12.9450 N   0  0  0  0  0  0  0  0  0  0  0  0
   -8.0566    6.5277  -14.5701 O   0  0  0  0  0  0  0  0  0  0  0  0
   -9.1735    2.4319   -8.7299 O   0  0  0  0  0  0  0  0  0  0  0  0
   -8.7996    4.4252  -15.0768 O   0  0  0  0  0  0  0  0  0  0  0  0
   -8.4174    2.8009  -11.7385 H   0  0  0  0  0  0  0  0  0  0  0  0
  -10.0653    2.5197  -11.1492 H   0  0  0  0  0  0  0  0  0  0  0  0
   -9.8848    6.8928  -11.8875 H   0  0  0  0  0  0  0  0  0  0  0  0
   -8.1197    6.8063  -12.0248 H   0  0  0  0  0  0  0  0  0  0  0  0
   -9.8222    3.4029  -13.5732 H   0  0  0  0  0  0  0  0  0  0  0  0
  -10.9509    4.2753  -12.5329 H   0  0  0  0  0  0  0  0  0  0  0  0
   -9.3614    7.1547   -6.6738 H   0  0  0  0  0  0  0  0  0  0  0  0
   -7.8617    6.2797   -6.2784 H   0  0  0  0  0  0  0  0  0  0  0  0
   -7.8057    7.6509   -7.3847 H   0  0  0  0  0  0  0  0  0  0  0  0
   -7.5570    6.4107  -16.3975 H   0  0  0  0  0  0  0  0  0  0  0  0
   -6.8014    4.8524  -16.8009 H   0  0  0  0  0  0  0  0  0  0  0  0
   -7.7732    5.7316  -18.0012 H   0  0  0  0  0  0  0  0  0  0  0  0
  -10.0471    2.9154  -16.8839 H   0  0  0  0  0  0  0  0  0  0  0  0
   -8.3065    2.7540  -17.0368 H   0  0  0  0  0  0  0  0  0  0  0  0
   -9.2235    3.6017  -18.3019 H   0  0  0  0  0  0  0  0  0  0  0  0
  -11.0902    5.1234  -16.2780 H   0  0  0  0  0  0  0  0  0  0  0  0
  -10.0844    6.5706  -16.0515 H   0  0  0  0  0  0  0  0  0  0  0  0
  -10.3535    5.8923  -17.6732 H   0  0  0  0  0  0  0  0  0  0  0  0
   -9.0770    2.2786   -7.7797 H   0  0  0  0  0  0  0  0  0  0  0  0
  1  2  1  0  0  0  0
  1  3  2  0  0  0  0
  1  6  1  0  0  0  0
  2  7  1  0  0  0  0
  2 14  2  0  0  0  0
  3 15  1  0  0  0  0
  3 18  1  0  0  0  0
  4  9  1  0  0  0  0
  4 14  1  0  0  0  0
  4 15  2  0  0  0  0
  5 16  1  0  0  0  0
  5 17  2  0  0  0  0
  5 19  1  0  0  0  0
  6  8  1  0  0  0  0
  7 16  1  0  0  0  0
  8 16  1  0  0  0  0
 10 13  1  0  0  0  0
 11 13  1  0  0  0  0
 12 13  1  0  0  0  0
 13 19  1  0  0  0  0
  6 20  1  0  0  0  0
  6 21  1  0  0  0  0
  7 22  1  0  0  0  0
  7 23  1  0  0  0  0
  8 24  1  0  0  0  0
  8 25  1  0  0  0  0
  9 26  1  0  0  0  0
  9 27  1  0  0  0  0
  9 28  1  0  0  0  0
 10 29  1  0  0  0  0
 10 30  1  0  0  0  0
 10 31  1  0  0  0  0
 11 32  1  0  0  0  0
 11 33  1  0  0  0  0
 11 34  1  0  0  0  0
 12 35  1  0  0  0  0
 12 36  1  0  0  0  0
 12 37  1  0  0  0  0
 18 38  1  0  0  0  0
M  END
> <id>
EN300-28983194

> <smiles>
CC=1N=C(O)C=2CCN(CC2N1)C(=O)OC(C)(C)C

> <MDLNUMBER>
MFCD28621147

> <IUPAC Name>
tert-butyl 4-hydroxy-2-methyl-5H,6H,7H,8H-pyrido[3,4-d]pyrimidine-7-carboxylate

> <CAS>
338739-89-2

> <Purity>
95

> <URL>
https://www.enaminestore.com/catalog/EN300-28983194

> <ROCS_ShapeQuery>
_x0404_0B

> <ROCS_TanimotoCombo>
0.369 

> <ROCS_ShapeTanimoto>
0.295 

> <ROCS_ColorTanimoto>
0.073 

> <ROCS_RefTversky>
0.268 

> <ROCS_RefColorTversky>
0.079 

> <ROCS_RefTverskyCombo>
0.347 

> <ROCS_FitTversky>
1.537 

> <ROCS_FitColorTversky>
0.501 

> <ROCS_FitTverskyCombo>
2.038 

> <ROCS_ColorScore>
-5.708

> <ROCS_Overlap>
1785.440

> <ROCS_Rank>
399                 

$$$$
untitled-dbase-10475_237
  -OEChem-08212314543D

 42 43  0     1  0  0  0  0  0999 V2000
  -10.0031    4.0900   -7.9962 C   0  0  0  0  0  0  0  0  0  0  0  0
   -8.5806    5.5276  -14.2736 C   0  0  0  0  0  0  0  0  0  0  0  0
   -9.6547    5.6035  -10.6810 C   0  0  0  0  0  0  0  0  0  0  0  0
   -7.6995    3.9929  -10.9956 C   0  0  0  0  0  0  0  0  0  0  0  0
   -9.0024    6.2540  -11.8978 C   0  0  0  0  0  0  0  0  0  0  0  0
   -8.2441    3.9277  -12.4163 C   0  0  0  0  0  0  0  0  0  0  0  0
   -8.0430    5.1421   -8.7709 C   0  0  0  0  0  0  0  0  0  0  0  0
   -9.6597    3.4511   -9.3326 C   0  0  1  0  0  0  0  0  0  0  0  0
   -8.7457    4.5326   -9.9957 C   0  0  0  0  0  0  0  0  0  0  0  0
   -7.4546    5.0975  -16.8683 C   0  0  0  0  0  0  0  0  0  0  0  0
   -9.1684    3.2768  -17.1073 C   0  0  0  0  0  0  0  0  0  0  0  0
   -9.9074    5.6590  -16.8119 C   0  0  0  0  0  0  0  0  0  0  0  0
   -8.8458    4.6195  -16.4551 C   0  0  0  0  0  0  0  0  0  0  0  0
   -9.0283    5.0455   -7.7280 N   0  0  0  0  0  0  0  0  0  0  0  0
   -8.6202    5.2555  -12.9026 N   0  0  0  0  0  0  0  0  0  0  0  0
   -9.0152    2.1862   -8.9942 N   0  0  0  0  0  0  0  0  0  0  0  0
  -10.9393    3.7737   -7.2771 O   0  0  0  0  0  0  0  0  0  0  0  0
   -8.3326    6.6331  -14.7517 O   0  0  0  0  0  0  0  0  0  0  0  0
   -8.8578    4.4239  -15.0363 O   0  0  0  0  0  0  0  0  0  0  0  0
   -9.9245    6.3810   -9.9554 H   0  0  0  0  0  0  0  0  0  0  0  0
  -10.5960    5.1291  -10.9891 H   0  0  0  0  0  0  0  0  0  0  0  0
   -7.4032    2.9766  -10.7146 H   0  0  0  0  0  0  0  0  0  0  0  0
   -6.7906    4.6026  -10.9856 H   0  0  0  0  0  0  0  0  0  0  0  0
   -9.6853    6.9999  -12.3191 H   0  0  0  0  0  0  0  0  0  0  0  0
   -8.0874    6.7886  -11.6102 H   0  0  0  0  0  0  0  0  0  0  0  0
   -7.4983    3.5292  -13.1123 H   0  0  0  0  0  0  0  0  0  0  0  0
   -9.1039    3.2508  -12.4509 H   0  0  0  0  0  0  0  0  0  0  0  0
   -7.1359    4.6210   -8.4547 H   0  0  0  0  0  0  0  0  0  0  0  0
   -7.8129    6.2053   -8.9057 H   0  0  0  0  0  0  0  0  0  0  0  0
  -10.5525    3.2855   -9.8584 H   0  0  0  0  0  0  0  0  0  0  0  0
   -7.2192    6.0610  -16.4022 H   0  0  0  0  0  0  0  0  0  0  0  0
   -6.6802    4.3766  -16.5866 H   0  0  0  0  0  0  0  0  0  0  0  0
   -7.4015    5.2569  -17.9513 H   0  0  0  0  0  0  0  0  0  0  0  0
  -10.1657    2.9300  -16.8136 H   0  0  0  0  0  0  0  0  0  0  0  0
   -8.4638    2.5041  -16.7790 H   0  0  0  0  0  0  0  0  0  0  0  0
   -9.1306    3.3388  -18.1997 H   0  0  0  0  0  0  0  0  0  0  0  0
  -10.9054    5.3163  -16.5156 H   0  0  0  0  0  0  0  0  0  0  0  0
   -9.7123    6.6189  -16.3229 H   0  0  0  0  0  0  0  0  0  0  0  0
   -9.9451    5.8213  -17.8952 H   0  0  0  0  0  0  0  0  0  0  0  0
   -9.0308    5.6280   -6.8964 H   0  0  0  0  0  0  0  0  0  0  0  0
   -9.6356    1.6537   -8.4269 H   0  0  0  0  0  0  0  0  0  0  0  0
   -8.8126    1.6967   -9.8366 H   0  0  0  0  0  0  0  0  0  0  0  0
  1  8  1  0  0  0  0
  1 14  1  0  0  0  0
  1 17  2  0  0  0  0
  2 15  1  0  0  0  0
  2 18  2  0  0  0  0
  2 19  1  0  0  0  0
  3  5  1  0  0  0  0
  3  9  1  0  0  0  0
  4  6  1  0  0  0  0
  4  9  1  0  0  0  0
  5 15  1  0  0  0  0
  6 15  1  0  0  0  0
  7  9  1  0  0  0  0
  7 14  1  0  0  0  0
  8  9  1  0  0  0  0
  8 16  1  0  0  0  0
 10 13  1  0  0  0  0
 11 13  1  0  0  0  0
 12 13  1  0  0  0  0
 13 19  1  0  0  0  0
  3 20  1  0  0  0  0
  3 21  1  0  0  0  0
  4 22  1  0  0  0  0
  4 23  1  0  0  0  0
  5 24  1  0  0  0  0
  5 25  1  0  0  0  0
  6 26  1  0  0  0  0
  6 27  1  0  0  0  0
  7 28  1  0  0  0  0
  7 29  1  0  0  0  0
  8 30  1  0  0  0  0
 10 31  1  0  0  0  0
 10 32  1  0  0  0  0
 10 33  1  0  0  0  0
 11 34  1  0  0  0  0
 11 35  1  0  0  0  0
 11 36  1  0  0  0  0
 12 37  1  0  0  0  0
 12 38  1  0  0  0  0
 12 39  1  0  0  0  0
 14 40  1  0  0  0  0
 16 41  1  0  0  0  0
 16 42  1  0  0  0  0
M  END
> <id>
EN300-311560

> <smiles>
CC(C)(C)OC(=O)N1CCC2(CNC(=O)C2N)CC1

> <MDLNUMBER>
MFCD30673753

> <IUPAC Name>
tert-butyl 4-amino-3-oxo-2,8-diazaspiro[4.5]decane-8-carboxylate

> <CAS>
2137503-80-9

> <Purity>
95

> <URL>
https://www.enaminestore.com/catalog/EN300-311560

> <ROCS_ShapeQuery>
_x0404_0B

> <ROCS_TanimotoCombo>
0.369 

> <ROCS_ShapeTanimoto>
0.290 

> <ROCS_ColorTanimoto>
0.078 

> <ROCS_RefTversky>
0.264 

> <ROCS_RefColorTversky>
0.084 

> <ROCS_RefTverskyCombo>
0.348 

> <ROCS_FitTversky>
1.535 

> <ROCS_FitColorTversky>
0.535 

> <ROCS_FitTverskyCombo>
2.070 

> <ROCS_ColorScore>
-6.084

> <ROCS_Overlap>
1756.890

> <ROCS_Rank>
400                 

$$$$
untitled-dbase-2145_477
  -OEChem-08212314543D

 49 49  0     1  0  0  0  0  0999 V2000
   -8.8741    5.2612   -8.9018 C   0  0  0  0  0  0  0  0  0  0  0  0
   -8.2225    5.5777  -14.3962 C   0  0  0  0  0  0  0  0  0  0  0  0
   -8.8667    6.6958  -10.9266 C   0  0  0  0  0  0  0  0  0  0  0  0
   -7.9485    6.5320  -12.1301 C   0  0  0  0  0  0  0  0  0  0  0  0
   -9.6166    4.3592  -11.1440 C   0  0  0  0  0  0  0  0  0  0  0  0
   -8.7131    4.1471  -12.3662 C   0  0  2  0  0  0  0  0  0  0  0  0
   -7.4477    3.3649  -12.0042 C   0  0  0  0  0  0  0  0  0  0  0  0
  -10.7822    3.8106   -7.8336 C   0  0  0  0  0  0  0  0  0  0  0  0
   -9.2726    1.8077   -7.9705 C   0  0  0  0  0  0  0  0  0  0  0  0
   -8.8588    3.5689   -6.2284 C   0  0  0  0  0  0  0  0  0  0  0  0
   -6.6431    5.3452  -16.7721 C   0  0  0  0  0  0  0  0  0  0  0  0
   -7.5917    3.0265  -16.9535 C   0  0  0  0  0  0  0  0  0  0  0  0
   -9.1214    5.0156  -17.0617 C   0  0  0  0  0  0  0  0  0  0  0  0
   -9.3547    3.2981   -7.6481 C   0  0  0  0  0  0  0  0  0  0  0  0
   -7.8389    4.4485  -16.4547 C   0  0  0  0  0  0  0  0  0  0  0  0
   -9.1022    5.4147  -10.2714 N   0  0  0  0  0  0  0  0  0  0  0  0
   -8.3609    5.4326  -13.0081 N   0  0  0  0  0  0  0  0  0  0  0  0
   -8.9902    6.1638   -8.0747 O   0  0  0  0  0  0  0  0  0  0  0  0
   -8.2901    6.6521  -14.9909 O   0  0  0  0  0  0  0  0  0  0  0  0
   -8.5002    3.9864   -8.5686 O   0  0  0  0  0  0  0  0  0  0  0  0
   -7.9966    4.3856  -15.0325 O   0  0  0  0  0  0  0  0  0  0  0  0
   -8.4369    7.4186  -10.2258 H   0  0  0  0  0  0  0  0  0  0  0  0
   -9.8418    7.0857  -11.2421 H   0  0  0  0  0  0  0  0  0  0  0  0
   -7.9074    7.4710  -12.6920 H   0  0  0  0  0  0  0  0  0  0  0  0
   -6.9263    6.3123  -11.7999 H   0  0  0  0  0  0  0  0  0  0  0  0
  -10.6124    4.6816  -11.4731 H   0  0  0  0  0  0  0  0  0  0  0  0
   -9.7516    3.4184  -10.6025 H   0  0  0  0  0  0  0  0  0  0  0  0
   -9.2763    3.5386  -13.0826 H   0  0  0  0  0  0  0  0  0  0  0  0
   -6.8567    3.9356  -11.2918 H   0  0  0  0  0  0  0  0  0  0  0  0
   -6.8582    3.1886  -12.9009 H   0  0  0  0  0  0  0  0  0  0  0  0
   -7.7225    2.4106  -11.5609 H   0  0  0  0  0  0  0  0  0  0  0  0
  -10.8453    4.8801   -7.6031 H   0  0  0  0  0  0  0  0  0  0  0  0
  -11.1372    3.6539   -8.8574 H   0  0  0  0  0  0  0  0  0  0  0  0
  -11.4713    3.3053   -7.1472 H   0  0  0  0  0  0  0  0  0  0  0  0
   -8.2501    1.4357   -7.8387 H   0  0  0  0  0  0  0  0  0  0  0  0
   -9.5369    1.6197   -9.0174 H   0  0  0  0  0  0  0  0  0  0  0  0
   -9.9404    1.2191   -7.3332 H   0  0  0  0  0  0  0  0  0  0  0  0
   -7.8348    3.2014   -6.0951 H   0  0  0  0  0  0  0  0  0  0  0  0
   -8.8758    4.6378   -5.9922 H   0  0  0  0  0  0  0  0  0  0  0  0
   -9.4753    3.0399   -5.4927 H   0  0  0  0  0  0  0  0  0  0  0  0
   -6.8166    6.3668  -16.4156 H   0  0  0  0  0  0  0  0  0  0  0  0
   -5.7232    4.9683  -16.3132 H   0  0  0  0  0  0  0  0  0  0  0  0
   -6.4853    5.4180  -17.8543 H   0  0  0  0  0  0  0  0  0  0  0  0
   -8.4472    2.3796  -16.7279 H   0  0  0  0  0  0  0  0  0  0  0  0
   -6.7265    2.5809  -16.4495 H   0  0  0  0  0  0  0  0  0  0  0  0
   -7.4142    3.0023  -18.0336 H   0  0  0  0  0  0  0  0  0  0  0  0
   -9.9793    4.3726  -16.8342 H   0  0  0  0  0  0  0  0  0  0  0  0
   -9.3346    6.0218  -16.6866 H   0  0  0  0  0  0  0  0  0  0  0  0
   -9.0491    5.0594  -18.1545 H   0  0  0  0  0  0  0  0  0  0  0  0
  1 16  1  0  0  0  0
  1 18  2  0  0  0  0
  1 20  1  0  0  0  0
  2 17  1  0  0  0  0
  2 19  2  0  0  0  0
  2 21  1  0  0  0  0
  3  4  1  0  0  0  0
  3 16  1  0  0  0  0
  4 17  1  0  0  0  0
  5  6  1  0  0  0  0
  5 16  1  0  0  0  0
  6  7  1  0  0  0  0
  6 17  1  0  0  0  0
  8 14  1  0  0  0  0
  9 14  1  0  0  0  0
 10 14  1  0  0  0  0
 11 15  1  0  0  0  0
 12 15  1  0  0  0  0
 13 15  1  0  0  0  0
 14 20  1  0  0  0  0
 15 21  1  0  0  0  0
  3 22  1  0  0  0  0
  3 23  1  0  0  0  0
  4 24  1  0  0  0  0
  4 25  1  0  0  0  0
  5 26  1  0  0  0  0
  5 27  1  0  0  0  0
  6 28  1  0  0  0  0
  7 29  1  0  0  0  0
  7 30  1  0  0  0  0
  7 31  1  0  0  0  0
  8 32  1  0  0  0  0
  8 33  1  0  0  0  0
  8 34  1  0  0  0  0
  9 35  1  0  0  0  0
  9 36  1  0  0  0  0
  9 37  1  0  0  0  0
 10 38  1  0  0  0  0
 10 39  1  0  0  0  0
 10 40  1  0  0  0  0
 11 41  1  0  0  0  0
 11 42  1  0  0  0  0
 11 43  1  0  0  0  0
 12 44  1  0  0  0  0
 12 45  1  0  0  0  0
 12 46  1  0  0  0  0
 13 47  1  0  0  0  0
 13 48  1  0  0  0  0
 13 49  1  0  0  0  0
M  END
> <id>
EN300-67380

> <smiles>
CC1CN(CCN1C(=O)OC(C)(C)C)C(=O)OC(C)(C)C

> <MDLNUMBER>
MFCD16990659

> <IUPAC Name>
1,4-di-tert-butyl 2-methylpiperazine-1,4-dicarboxylate

> <CAS>
959417-67-5

> <Purity>
95

> <URL>
https://www.enaminestore.com/catalog/EN300-67380

> <MP>
55-58

> <ROCS_ShapeQuery>
_x0404_0B

> <ROCS_TanimotoCombo>
0.369 

> <ROCS_ShapeTanimoto>
0.311 

> <ROCS_ColorTanimoto>
0.058 

> <ROCS_RefTversky>
0.280 

> <ROCS_RefColorTversky>
0.061 

> <ROCS_RefTverskyCombo>
0.341 

> <ROCS_FitTversky>
1.540 

> <ROCS_FitColorTversky>
0.515 

> <ROCS_FitTverskyCombo>
2.055 

> <ROCS_ColorScore>
-4.391

> <ROCS_Overlap>
1870.654

> <ROCS_Rank>
401                 

$$$$
untitled-dbase-13986_108
  -OEChem-08212314543D

 46 47  0     0  0  0  0  0  0999 V2000
   -8.5688    5.5760  -14.2725 C   0  0  0  0  0  0  0  0  0  0  0  0
   -8.3471    4.1378   -8.1157 C   0  0  0  0  0  0  0  0  0  0  0  0
  -10.5276    3.6867   -9.2950 C   0  0  0  0  0  0  0  0  0  0  0  0
   -7.6480    4.3169   -9.4678 C   0  0  0  0  0  0  0  0  0  0  0  0
   -9.8336    3.8632  -10.6508 C   0  0  0  0  0  0  0  0  0  0  0  0
   -8.7571    7.0794  -12.3583 C   0  0  0  0  0  0  0  0  0  0  0  0
   -7.8595    4.8285  -11.9302 C   0  0  0  0  0  0  0  0  0  0  0  0
   -8.4903    7.1819  -10.8649 C   0  0  0  0  0  0  0  0  0  0  0  0
   -9.5693    3.2167   -8.1952 C   0  0  0  0  0  0  0  0  0  0  0  0
   -8.6094    4.7973  -10.5752 C   0  0  0  0  0  0  0  0  0  0  0  0
   -9.5630    2.5143  -16.2617 C   0  0  0  0  0  0  0  0  0  0  0  0
  -10.1690    4.8756  -16.8497 C   0  0  0  0  0  0  0  0  0  0  0  0
   -7.7736    4.1375  -16.9236 C   0  0  0  0  0  0  0  0  0  0  0  0
   -9.1132    3.9784  -16.1954 C   0  0  0  0  0  0  0  0  0  0  0  0
   -8.4896    5.7407  -12.8890 N   0  0  0  0  0  0  0  0  0  0  0  0
   -9.1483    1.8363   -8.4450 N   0  0  0  0  0  0  0  0  0  0  0  0
   -8.9539    4.3681  -14.8088 N   0  0  0  0  0  0  0  0  0  0  0  0
   -8.3076    6.5037  -15.0526 O   0  0  0  0  0  0  0  0  0  0  0  0
   -9.1112    6.0938  -10.1948 O   0  0  0  0  0  0  0  0  0  0  0  0
   -7.6277    3.7532   -7.3820 H   0  0  0  0  0  0  0  0  0  0  0  0
   -8.6662    5.1194   -7.7421 H   0  0  0  0  0  0  0  0  0  0  0  0
  -10.9779    4.6416   -8.9936 H   0  0  0  0  0  0  0  0  0  0  0  0
  -11.3599    2.9793   -9.4026 H   0  0  0  0  0  0  0  0  0  0  0  0
   -6.8416    5.0514   -9.3324 H   0  0  0  0  0  0  0  0  0  0  0  0
   -7.1693    3.3738   -9.7644 H   0  0  0  0  0  0  0  0  0  0  0  0
   -9.5273    2.8790  -11.0354 H   0  0  0  0  0  0  0  0  0  0  0  0
  -10.5790    4.2381  -11.3648 H   0  0  0  0  0  0  0  0  0  0  0  0
   -9.7880    7.4115  -12.5519 H   0  0  0  0  0  0  0  0  0  0  0  0
   -8.0904    7.7671  -12.9094 H   0  0  0  0  0  0  0  0  0  0  0  0
   -6.8391    5.2096  -11.7850 H   0  0  0  0  0  0  0  0  0  0  0  0
   -7.7675    3.8175  -12.3451 H   0  0  0  0  0  0  0  0  0  0  0  0
   -7.4215    7.1120  -10.6821 H   0  0  0  0  0  0  0  0  0  0  0  0
   -8.8363    8.1272  -10.4595 H   0  0  0  0  0  0  0  0  0  0  0  0
  -10.0885    3.2314   -7.2425 H   0  0  0  0  0  0  0  0  0  0  0  0
   -8.8228    1.8511  -15.7991 H   0  0  0  0  0  0  0  0  0  0  0  0
  -10.5172    2.3664  -15.7441 H   0  0  0  0  0  0  0  0  0  0  0  0
   -9.6877    2.1861  -17.3002 H   0  0  0  0  0  0  0  0  0  0  0  0
   -9.8691    5.9294  -16.8144 H   0  0  0  0  0  0  0  0  0  0  0  0
  -11.1318    4.7955  -16.3316 H   0  0  0  0  0  0  0  0  0  0  0  0
  -10.3274    4.6050  -17.8995 H   0  0  0  0  0  0  0  0  0  0  0  0
   -7.4276    5.1771  -16.8916 H   0  0  0  0  0  0  0  0  0  0  0  0
   -6.9974    3.5093  -16.4727 H   0  0  0  0  0  0  0  0  0  0  0  0
   -7.8614    3.8577  -17.9799 H   0  0  0  0  0  0  0  0  0  0  0  0
   -8.5484    1.5608   -7.7058 H   0  0  0  0  0  0  0  0  0  0  0  0
   -9.9608    1.2693   -8.4717 H   0  0  0  0  0  0  0  0  0  0  0  0
   -9.1686    3.5990  -14.0982 H   0  0  0  0  0  0  0  0  0  0  0  0
  1 15  1  0  0  0  0
  1 17  1  0  0  0  0
  1 18  2  0  0  0  0
  2  4  1  0  0  0  0
  2  9  1  0  0  0  0
  3  5  1  0  0  0  0
  3  9  1  0  0  0  0
  4 10  1  6  0  0  0
  5 10  1  0  0  0  0
  6  8  1  0  0  0  0
  6 15  1  0  0  0  0
  7 10  1  0  0  0  0
  7 15  1  0  0  0  0
  8 19  1  0  0  0  0
  9 16  1  6  0  0  0
 10 19  1  0  0  0  0
 11 14  1  0  0  0  0
 12 14  1  0  0  0  0
 13 14  1  0  0  0  0
 14 17  1  0  0  0  0
  2 20  1  0  0  0  0
  2 21  1  0  0  0  0
  3 22  1  0  0  0  0
  3 23  1  0  0  0  0
  4 24  1  0  0  0  0
  4 25  1  0  0  0  0
  5 26  1  0  0  0  0
  5 27  1  0  0  0  0
  6 28  1  0  0  0  0
  6 29  1  0  0  0  0
  7 30  1  0  0  0  0
  7 31  1  0  0  0  0
  8 32  1  0  0  0  0
  8 33  1  0  0  0  0
  9 34  1  0  0  0  0
 11 35  1  0  0  0  0
 11 36  1  0  0  0  0
 11 37  1  0  0  0  0
 12 38  1  0  0  0  0
 12 39  1  0  0  0  0
 12 40  1  0  0  0  0
 13 41  1  0  0  0  0
 13 42  1  0  0  0  0
 13 43  1  0  0  0  0
 16 44  1  0  0  0  0
 16 45  1  0  0  0  0
 17 46  1  0  0  0  0
M  END
> <id>
EN300-1084975

> <smiles>
CC(C)(C)NC(=O)N1CCO[C@]2(CC[C@H](N)CC2)C1

> <IUPAC Name>
(6r,9r)-9-amino-N-tert-butyl-1-oxa-4-azaspiro[5.5]undecane-4-carboxamide

> <CAS>
2137065-38-2

> <URL>
https://www.enaminestore.com/catalog/EN300-1084975

> <ROCS_ShapeQuery>
_x0404_0B

> <ROCS_TanimotoCombo>
0.368 

> <ROCS_ShapeTanimoto>
0.272 

> <ROCS_ColorTanimoto>
0.096 

> <ROCS_RefTversky>
0.250 

> <ROCS_RefColorTversky>
0.101 

> <ROCS_RefTverskyCombo>
0.352 

> <ROCS_FitTversky>
1.478 

> <ROCS_FitColorTversky>
0.643 

> <ROCS_FitTverskyCombo>
2.122 

> <ROCS_ColorScore>
-7.323

> <ROCS_Overlap>
1669.110

> <ROCS_Rank>
402                 

$$$$
untitled-dbase-34618_146
  -OEChem-08212314543D

 44 45  0     0  0  0  0  0  0999 V2000
   -8.2843    5.5513  -14.2458 C   0  0  0  0  0  0  0  0  0  0  0  0
   -8.1594    4.2126   -7.7656 C   0  0  0  0  0  0  0  0  0  0  0  0
   -8.8802    5.0597   -8.8133 C   0  0  0  0  0  0  0  0  0  0  0  0
  -10.0852    5.0832  -11.0445 C   0  0  0  0  0  0  0  0  0  0  0  0
   -7.7762    4.0075  -10.8423 C   0  0  0  0  0  0  0  0  0  0  0  0
   -8.8955    2.8985   -7.5206 C   0  0  0  0  0  0  0  0  0  0  0  0
   -9.3354    5.9603  -12.0401 C   0  0  0  0  0  0  0  0  0  0  0  0
   -7.9109    3.9301  -12.3602 C   0  0  0  0  0  0  0  0  0  0  0  0
   -9.8322    2.9350   -9.7514 C   0  0  0  0  0  0  0  0  0  0  0  0
   -9.1329    4.2705  -10.1244 C   0  0  0  0  0  0  0  0  0  0  0  0
   -6.6298    5.6887  -16.5758 C   0  0  0  0  0  0  0  0  0  0  0  0
   -7.6632    3.4899  -17.2136 C   0  0  0  0  0  0  0  0  0  0  0  0
   -9.1071    5.5329  -16.9923 C   0  0  0  0  0  0  0  0  0  0  0  0
   -7.8714    4.8048  -16.4654 C   0  0  0  0  0  0  0  0  0  0  0  0
   -9.0883    2.1509   -8.7617 N   0  0  0  0  0  0  0  0  0  0  0  0
   -8.4905    5.1545  -12.9211 N   0  0  0  0  0  0  0  0  0  0  0  0
   -8.2878    6.7201  -14.6274 O   0  0  0  0  0  0  0  0  0  0  0  0
   -8.0833    4.4870  -15.0851 O   0  0  0  0  0  0  0  0  0  0  0  0
   -7.1323    4.0107   -8.0880 H   0  0  0  0  0  0  0  0  0  0  0  0
   -8.0899    4.7734   -6.8278 H   0  0  0  0  0  0  0  0  0  0  0  0
   -9.8394    5.3864   -8.3940 H   0  0  0  0  0  0  0  0  0  0  0  0
   -8.3001    5.9670   -9.0121 H   0  0  0  0  0  0  0  0  0  0  0  0
  -10.7246    5.7252  -10.4284 H   0  0  0  0  0  0  0  0  0  0  0  0
  -10.7513    4.4072  -11.5892 H   0  0  0  0  0  0  0  0  0  0  0  0
   -7.2958    3.0951  -10.4820 H   0  0  0  0  0  0  0  0  0  0  0  0
   -7.0860    4.8260  -10.6053 H   0  0  0  0  0  0  0  0  0  0  0  0
   -8.3218    2.2831   -6.8191 H   0  0  0  0  0  0  0  0  0  0  0  0
   -9.8663    3.0892   -7.0472 H   0  0  0  0  0  0  0  0  0  0  0  0
  -10.0294    6.5196  -12.6756 H   0  0  0  0  0  0  0  0  0  0  0  0
   -8.7324    6.6959  -11.4994 H   0  0  0  0  0  0  0  0  0  0  0  0
   -6.9272    3.7244  -12.7972 H   0  0  0  0  0  0  0  0  0  0  0  0
   -8.5636    3.0988  -12.6561 H   0  0  0  0  0  0  0  0  0  0  0  0
  -10.8428    3.1316   -9.3635 H   0  0  0  0  0  0  0  0  0  0  0  0
   -9.9774    2.3042  -10.6368 H   0  0  0  0  0  0  0  0  0  0  0  0
   -6.7753    6.6335  -16.0401 H   0  0  0  0  0  0  0  0  0  0  0  0
   -5.7432    5.1913  -16.1693 H   0  0  0  0  0  0  0  0  0  0  0  0
   -6.4298    5.9532  -17.6205 H   0  0  0  0  0  0  0  0  0  0  0  0
   -8.5515    2.8525  -17.1370 H   0  0  0  0  0  0  0  0  0  0  0  0
   -6.8354    2.9193  -16.7771 H   0  0  0  0  0  0  0  0  0  0  0  0
   -7.4474    3.6579  -18.2736 H   0  0  0  0  0  0  0  0  0  0  0  0
   -9.9978    4.8992  -16.9132 H   0  0  0  0  0  0  0  0  0  0  0  0
   -9.2935    6.4610  -16.4423 H   0  0  0  0  0  0  0  0  0  0  0  0
   -8.9932    5.7749  -18.0552 H   0  0  0  0  0  0  0  0  0  0  0  0
   -8.1816    1.8819   -9.1427 H   0  0  0  0  0  0  0  0  0  0  0  0
  1 16  1  0  0  0  0
  1 17  2  0  0  0  0
  1 18  1  0  0  0  0
  2  3  1  0  0  0  0
  2  6  1  0  0  0  0
  3 10  1  0  0  0  0
  4  7  1  0  0  0  0
  4 10  1  0  0  0  0
  5  8  1  0  0  0  0
  5 10  1  0  0  0  0
  6 15  1  0  0  0  0
  7 16  1  0  0  0  0
  8 16  1  0  0  0  0
  9 10  1  0  0  0  0
  9 15  1  0  0  0  0
 11 14  1  0  0  0  0
 12 14  1  0  0  0  0
 13 14  1  0  0  0  0
 14 18  1  0  0  0  0
  2 19  1  0  0  0  0
  2 20  1  0  0  0  0
  3 21  1  0  0  0  0
  3 22  1  0  0  0  0
  4 23  1  0  0  0  0
  4 24  1  0  0  0  0
  5 25  1  0  0  0  0
  5 26  1  0  0  0  0
  6 27  1  0  0  0  0
  6 28  1  0  0  0  0
  7 29  1  0  0  0  0
  7 30  1  0  0  0  0
  8 31  1  0  0  0  0
  8 32  1  0  0  0  0
  9 33  1  0  0  0  0
  9 34  1  0  0  0  0
 11 35  1  0  0  0  0
 11 36  1  0  0  0  0
 11 37  1  0  0  0  0
 12 38  1  0  0  0  0
 12 39  1  0  0  0  0
 12 40  1  0  0  0  0
 13 41  1  0  0  0  0
 13 42  1  0  0  0  0
 13 43  1  0  0  0  0
 15 44  1  0  0  0  0
M  END
> <id>
EN300-154325

> <smiles>
CC(C)(C)OC(=O)N1CCC2(CCCNC2)CC1

> <MDLNUMBER>
MFCD10700117

> <IUPAC Name>
tert-butyl 2,9-diazaspiro[5.5]undecane-9-carboxylate

> <CAS>
1023595-19-8

> <Purity>
95

> <URL>
https://www.enaminestore.com/catalog/EN300-154325

> <ROCS_ShapeQuery>
_x0404_0B

> <ROCS_TanimotoCombo>
0.368 

> <ROCS_ShapeTanimoto>
0.282 

> <ROCS_ColorTanimoto>
0.087 

> <ROCS_RefTversky>
0.256 

> <ROCS_RefColorTversky>
0.090 

> <ROCS_RefTverskyCombo>
0.346 

> <ROCS_FitTversky>
1.567 

> <ROCS_FitColorTversky>
0.687 

> <ROCS_FitTverskyCombo>
2.254 

> <ROCS_ColorScore>
-6.510

> <ROCS_Overlap>
1703.206

> <ROCS_Rank>
403                 

$$$$
untitled-dbase-4694_97
  -OEChem-08212314543D

 43 44  0     0  0  0  0  0  0999 V2000
   -9.1902    2.6938   -8.6961 C   0  0  0  0  0  0  0  0  0  0  0  0
   -9.3563    6.0906   -7.9965 C   0  0  0  0  0  0  0  0  0  0  0  0
   -8.1079    5.8653  -14.2307 C   0  0  0  0  0  0  0  0  0  0  0  0
   -9.9377    5.3498  -11.1368 C   0  0  0  0  0  0  0  0  0  0  0  0
   -7.4333    5.1739  -10.5290 C   0  0  0  0  0  0  0  0  0  0  0  0
   -9.3442    6.3462  -12.1320 C   0  0  0  0  0  0  0  0  0  0  0  0
   -7.1436    5.1591  -12.0321 C   0  0  0  0  0  0  0  0  0  0  0  0
   -8.8764    4.7432  -10.1896 C   0  0  0  0  0  0  0  0  0  0  0  0
   -9.6371    5.9733   -6.5214 C   0  0  0  0  0  0  0  0  0  0  0  0
   -6.5240    6.0802  -16.6037 C   0  0  0  0  0  0  0  0  0  0  0  0
   -6.4905    3.5687  -16.5881 C   0  0  0  0  0  0  0  0  0  0  0  0
   -8.6727    4.7889  -16.8276 C   0  0  0  0  0  0  0  0  0  0  0  0
   -7.2806    4.8161  -16.1983 C   0  0  0  0  0  0  0  0  0  0  0  0
   -9.2985    3.7740   -7.9920 N   0  0  0  0  0  0  0  0  0  0  0  0
   -9.1897    4.9303   -8.7421 N   0  0  0  0  0  0  0  0  0  0  0  0
   -8.1992    5.7767  -12.8377 N   0  0  0  0  0  0  0  0  0  0  0  0
   -9.2527    1.4107   -8.2396 N   0  0  0  0  0  0  0  0  0  0  0  0
   -9.2562    7.2227   -8.4855 O   0  0  0  0  0  0  0  0  0  0  0  0
   -8.5802    6.7793  -14.9036 O   0  0  0  0  0  0  0  0  0  0  0  0
   -7.4241    4.8082  -14.7734 O   0  0  0  0  0  0  0  0  0  0  0  0
   -8.9420    2.9022  -10.4101 S   0  0  0  0  0  0  0  0  0  0  0  0
  -10.6916    5.8883  -10.5527 H   0  0  0  0  0  0  0  0  0  0  0  0
  -10.4740    4.5632  -11.6792 H   0  0  0  0  0  0  0  0  0  0  0  0
   -6.7012    4.5441  -10.0093 H   0  0  0  0  0  0  0  0  0  0  0  0
   -7.2582    6.1975  -10.1787 H   0  0  0  0  0  0  0  0  0  0  0  0
  -10.0827    6.6368  -12.8907 H   0  0  0  0  0  0  0  0  0  0  0  0
   -9.0693    7.2642  -11.5997 H   0  0  0  0  0  0  0  0  0  0  0  0
   -6.1771    5.6609  -12.2206 H   0  0  0  0  0  0  0  0  0  0  0  0
   -7.0167    4.1256  -12.4033 H   0  0  0  0  0  0  0  0  0  0  0  0
   -8.6958    5.9662   -5.9841 H   0  0  0  0  0  0  0  0  0  0  0  0
  -10.1786    5.0520   -6.3386 H   0  0  0  0  0  0  0  0  0  0  0  0
  -10.2390    6.8194   -6.2098 H   0  0  0  0  0  0  0  0  0  0  0  0
   -7.0877    6.9779  -16.3257 H   0  0  0  0  0  0  0  0  0  0  0  0
   -5.5375    6.1289  -16.1312 H   0  0  0  0  0  0  0  0  0  0  0  0
   -6.3897    6.1239  -17.6906 H   0  0  0  0  0  0  0  0  0  0  0  0
   -7.0297    2.6593  -16.2990 H   0  0  0  0  0  0  0  0  0  0  0  0
   -5.5283    3.5366  -16.0643 H   0  0  0  0  0  0  0  0  0  0  0  0
   -6.3003    3.5312  -17.6655 H   0  0  0  0  0  0  0  0  0  0  0  0
   -9.2156    3.8823  -16.5369 H   0  0  0  0  0  0  0  0  0  0  0  0
   -9.2673    5.6584  -16.5291 H   0  0  0  0  0  0  0  0  0  0  0  0
   -8.6056    4.7718  -17.9214 H   0  0  0  0  0  0  0  0  0  0  0  0
   -9.3963    1.2564   -7.2649 H   0  0  0  0  0  0  0  0  0  0  0  0
   -9.1530    0.6648   -8.8939 H   0  0  0  0  0  0  0  0  0  0  0  0
  1 14  2  0  0  0  0
  1 17  1  0  0  0  0
  1 21  1  0  0  0  0
  2  9  1  0  0  0  0
  2 15  1  0  0  0  0
  2 18  2  0  0  0  0
  3 16  1  0  0  0  0
  3 19  2  0  0  0  0
  3 20  1  0  0  0  0
  4  6  1  0  0  0  0
  4  8  1  0  0  0  0
  5  7  1  0  0  0  0
  5  8  1  0  0  0  0
  6 16  1  0  0  0  0
  7 16  1  0  0  0  0
  8 15  1  0  0  0  0
  8 21  1  0  0  0  0
 10 13  1  0  0  0  0
 11 13  1  0  0  0  0
 12 13  1  0  0  0  0
 13 20  1  0  0  0  0
 14 15  1  0  0  0  0
  4 22  1  0  0  0  0
  4 23  1  0  0  0  0
  5 24  1  0  0  0  0
  5 25  1  0  0  0  0
  6 26  1  0  0  0  0
  6 27  1  0  0  0  0
  7 28  1  0  0  0  0
  7 29  1  0  0  0  0
  9 30  1  0  0  0  0
  9 31  1  0  0  0  0
  9 32  1  0  0  0  0
 10 33  1  0  0  0  0
 10 34  1  0  0  0  0
 10 35  1  0  0  0  0
 11 36  1  0  0  0  0
 11 37  1  0  0  0  0
 11 38  1  0  0  0  0
 12 39  1  0  0  0  0
 12 40  1  0  0  0  0
 12 41  1  0  0  0  0
 17 42  1  0  0  0  0
 17 43  1  0  0  0  0
M  END
> <id>
EN300-189702

> <smiles>
CC(=O)N1N=C(N)SC21CCN(CC2)C(=O)OC(C)(C)C

> <MDLNUMBER>
MFCD28139379

> <IUPAC Name>
tert-butyl 1-acetyl-3-amino-4-thia-1,2,8-triazaspiro[4.5]dec-2-ene-8-carboxylate

> <CAS>
1803562-13-1

> <Purity>
95

> <URL>
https://www.enaminestore.com/catalog/EN300-189702

> <ROCS_ShapeQuery>
_x0404_0B

> <ROCS_TanimotoCombo>
0.368 

> <ROCS_ShapeTanimoto>
0.291 

> <ROCS_ColorTanimoto>
0.078 

> <ROCS_RefTversky>
0.266 

> <ROCS_RefColorTversky>
0.082 

> <ROCS_RefTverskyCombo>
0.349 

> <ROCS_FitTversky>
1.459 

> <ROCS_FitColorTversky>
0.571 

> <ROCS_FitTverskyCombo>
2.030 

> <ROCS_ColorScore>
-5.953

> <ROCS_Overlap>
1776.404

> <ROCS_Rank>
404                 

$$$$
untitled-dbase-22426_0
  -OEChem-08212314543D

 39 41  0     0  0  0  0  0  0999 V2000
   -9.1877    3.0207   -7.3012 C   0  0  0  0  0  0  0  0  0  0  0  0
   -8.4933    5.7383  -14.1844 C   0  0  0  0  0  0  0  0  0  0  0  0
   -9.0880    2.7542   -8.8250 C   0  0  0  0  0  0  0  0  0  0  0  0
   -9.0734    4.5538   -7.4989 C   0  0  0  0  0  0  0  0  0  0  0  0
   -9.9534    4.9483   -9.9272 C   0  0  0  0  0  0  0  0  0  0  0  0
   -7.7854    4.8062   -9.7582 C   0  0  0  0  0  0  0  0  0  0  0  0
   -8.6300    6.3437  -11.6885 C   0  0  0  0  0  0  0  0  0  0  0  0
   -8.7365    4.2195  -12.1033 C   0  0  0  0  0  0  0  0  0  0  0  0
   -8.9768    4.2633   -8.9822 C   0  0  0  0  0  0  0  0  0  0  0  0
   -8.7749    5.0910  -10.8741 C   0  0  0  0  0  0  0  0  0  0  0  0
   -7.0774    5.4650  -16.6485 C   0  0  0  0  0  0  0  0  0  0  0  0
   -8.4390    3.3815  -16.9864 C   0  0  0  0  0  0  0  0  0  0  0  0
   -9.5837    5.6113  -16.8266 C   0  0  0  0  0  0  0  0  0  0  0  0
   -8.4033    4.7679  -16.3470 C   0  0  0  0  0  0  0  0  0  0  0  0
   -8.6046    5.4639  -12.8495 N   0  0  0  0  0  0  0  0  0  0  0  0
   -9.3085    2.3056   -6.3295 O   0  0  0  0  0  0  0  0  0  0  0  0
   -8.3883    6.8693  -14.6504 O   0  0  0  0  0  0  0  0  0  0  0  0
   -8.5141    4.5925  -14.9303 O   0  0  0  0  0  0  0  0  0  0  0  0
   -8.2059    2.1720   -9.1043 H   0  0  0  0  0  0  0  0  0  0  0  0
   -9.9856    2.2890   -9.2409 H   0  0  0  0  0  0  0  0  0  0  0  0
   -9.9635    5.0983   -7.1732 H   0  0  0  0  0  0  0  0  0  0  0  0
   -8.1824    4.9840   -7.0344 H   0  0  0  0  0  0  0  0  0  0  0  0
  -10.7954    4.3466  -10.2810 H   0  0  0  0  0  0  0  0  0  0  0  0
  -10.3434    5.9025   -9.5536 H   0  0  0  0  0  0  0  0  0  0  0  0
   -7.3378    5.7058   -9.3193 H   0  0  0  0  0  0  0  0  0  0  0  0
   -6.9838    4.0972   -9.9837 H   0  0  0  0  0  0  0  0  0  0  0  0
   -9.4855    7.0241  -11.6919 H   0  0  0  0  0  0  0  0  0  0  0  0
   -7.6987    6.9019  -11.5612 H   0  0  0  0  0  0  0  0  0  0  0  0
   -7.8668    3.5662  -12.2133 H   0  0  0  0  0  0  0  0  0  0  0  0
   -9.6532    3.6754  -12.3462 H   0  0  0  0  0  0  0  0  0  0  0  0
   -7.0478    6.4605  -16.1913 H   0  0  0  0  0  0  0  0  0  0  0  0
   -6.2244    4.8869  -16.2784 H   0  0  0  0  0  0  0  0  0  0  0  0
   -6.9514    5.6162  -17.7267 H   0  0  0  0  0  0  0  0  0  0  0  0
   -9.3886    2.8776  -16.7727 H   0  0  0  0  0  0  0  0  0  0  0  0
   -7.6504    2.7413  -16.5746 H   0  0  0  0  0  0  0  0  0  0  0  0
   -8.3112    3.4340  -18.0725 H   0  0  0  0  0  0  0  0  0  0  0  0
  -10.5349    5.1115  -16.6105 H   0  0  0  0  0  0  0  0  0  0  0  0
   -9.5952    6.5969  -16.3500 H   0  0  0  0  0  0  0  0  0  0  0  0
   -9.5474    5.7503  -17.9132 H   0  0  0  0  0  0  0  0  0  0  0  0
  1  3  1  0  0  0  0
  1  4  1  0  0  0  0
  1 16  2  0  0  0  0
  2 15  1  0  0  0  0
  2 17  2  0  0  0  0
  2 18  1  0  0  0  0
  3  9  1  0  0  0  0
  4  9  1  0  0  0  0
  5  9  1  0  0  0  0
  5 10  1  0  0  0  0
  6  9  1  0  0  0  0
  6 10  1  0  0  0  0
  7 10  1  0  0  0  0
  7 15  1  0  0  0  0
  8 10  1  0  0  0  0
  8 15  1  0  0  0  0
 11 14  1  0  0  0  0
 12 14  1  0  0  0  0
 13 14  1  0  0  0  0
 14 18  1  0  0  0  0
  3 19  1  0  0  0  0
  3 20  1  0  0  0  0
  4 21  1  0  0  0  0
  4 22  1  0  0  0  0
  5 23  1  0  0  0  0
  5 24  1  0  0  0  0
  6 25  1  0  0  0  0
  6 26  1  0  0  0  0
  7 27  1  0  0  0  0
  7 28  1  0  0  0  0
  8 29  1  0  0  0  0
  8 30  1  0  0  0  0
 11 31  1  0  0  0  0
 11 32  1  0  0  0  0
 11 33  1  0  0  0  0
 12 34  1  0  0  0  0
 12 35  1  0  0  0  0
 12 36  1  0  0  0  0
 13 37  1  0  0  0  0
 13 38  1  0  0  0  0
 13 39  1  0  0  0  0
M  END
> <id>
EN300-33035859

> <smiles>
CC(C)(C)OC(=O)N1CC2(C1)CC3(CC(=O)C3)C2

> <MDLNUMBER>
MFCD34562948

> <IUPAC Name>
tert-butyl 8-oxo-2-azadispiro[3.1.3^{6}.1^{4}]decane-2-carboxylate

> <CAS>
2731009-01-9

> <Purity>
95

> <URL>
https://www.enaminestore.com/catalog/EN300-33035859

> <ROCS_ShapeQuery>
_x0404_0B

> <ROCS_TanimotoCombo>
0.368 

> <ROCS_ShapeTanimoto>
0.302 

> <ROCS_ColorTanimoto>
0.066 

> <ROCS_RefTversky>
0.271 

> <ROCS_RefColorTversky>
0.070 

> <ROCS_RefTverskyCombo>
0.341 

> <ROCS_FitTversky>
1.619 

> <ROCS_FitColorTversky>
0.530 

> <ROCS_FitTverskyCombo>
2.149 

> <ROCS_ColorScore>
-5.055

> <ROCS_Overlap>
1806.249

> <ROCS_Rank>
405                 

$$$$
untitled-dbase-23290_64
  -OEChem-08212314543D

 36 38  0     0  0  0  0  0  0999 V2000
   -9.2147    2.7411   -9.9913 C   0  0  0  0  0  0  0  0  0  0  0  0
   -9.2754    1.9384   -8.8572 C   0  0  0  0  0  0  0  0  0  0  0  0
   -9.0480    3.7273   -7.4185 C   0  0  0  0  0  0  0  0  0  0  0  0
   -8.9814    4.5752   -8.4988 C   0  0  0  0  0  0  0  0  0  0  0  0
   -9.0624    4.1047   -9.8003 C   0  0  0  0  0  0  0  0  0  0  0  0
   -8.8239    6.0342   -8.5175 C   0  0  0  0  0  0  0  0  0  0  0  0
   -8.9703    6.0242  -14.1073 C   0  0  0  0  0  0  0  0  0  0  0  0
  -10.0387    5.4997  -11.8385 C   0  0  0  0  0  0  0  0  0  0  0  0
   -7.9013    5.2680  -11.8861 C   0  0  0  0  0  0  0  0  0  0  0  0
   -8.9541    5.3039  -10.7533 C   0  0  0  0  0  0  0  0  0  0  0  0
   -9.3150    3.4716  -15.3389 C   0  0  0  0  0  0  0  0  0  0  0  0
  -11.3901    4.4508  -16.3608 C   0  0  0  0  0  0  0  0  0  0  0  0
   -9.1444    5.4367  -16.9022 C   0  0  0  0  0  0  0  0  0  0  0  0
   -9.9902    4.7514  -15.8298 C   0  0  0  0  0  0  0  0  0  0  0  0
   -9.1960    2.3956   -7.5787 N   0  0  0  0  0  0  0  0  0  0  0  0
   -8.9612    5.6575  -12.7900 N   0  0  0  0  0  0  0  0  0  0  0  0
   -8.7235    6.7538   -7.5425 O   0  0  0  0  0  0  0  0  0  0  0  0
   -8.0515    6.6176  -14.6652 O   0  0  0  0  0  0  0  0  0  0  0  0
   -8.8105    6.4395   -9.8364 O   0  0  0  0  0  0  0  0  0  0  0  0
  -10.1323    5.6458  -14.7208 O   0  0  0  0  0  0  0  0  0  0  0  0
   -9.2840    2.3139  -10.9846 H   0  0  0  0  0  0  0  0  0  0  0  0
   -9.3942    0.8632   -8.9494 H   0  0  0  0  0  0  0  0  0  0  0  0
   -8.9863    4.0787   -6.3961 H   0  0  0  0  0  0  0  0  0  0  0  0
  -10.6721    4.6340  -12.0526 H   0  0  0  0  0  0  0  0  0  0  0  0
  -10.6559    6.3957  -11.7286 H   0  0  0  0  0  0  0  0  0  0  0  0
   -7.1019    6.0095  -11.8052 H   0  0  0  0  0  0  0  0  0  0  0  0
   -7.4787    4.2871  -12.1230 H   0  0  0  0  0  0  0  0  0  0  0  0
   -8.3099    3.6831  -14.9569 H   0  0  0  0  0  0  0  0  0  0  0  0
   -9.8943    2.9889  -14.5450 H   0  0  0  0  0  0  0  0  0  0  0  0
   -9.1896    2.7561  -16.1596 H   0  0  0  0  0  0  0  0  0  0  0  0
  -11.8783    5.3663  -16.7142 H   0  0  0  0  0  0  0  0  0  0  0  0
  -12.0297    4.0462  -15.5681 H   0  0  0  0  0  0  0  0  0  0  0  0
  -11.3635    3.7315  -17.1858 H   0  0  0  0  0  0  0  0  0  0  0  0
   -9.6285    6.3547  -17.2545 H   0  0  0  0  0  0  0  0  0  0  0  0
   -8.1483    5.6932  -16.5273 H   0  0  0  0  0  0  0  0  0  0  0  0
   -9.0303    4.7907  -17.7802 H   0  0  0  0  0  0  0  0  0  0  0  0
  1  2  1  0  0  0  0
  1  5  2  0  0  0  0
  2 15  2  0  0  0  0
  3  4  2  0  0  0  0
  3 15  1  0  0  0  0
  4  5  1  0  0  0  0
  4  6  1  0  0  0  0
  5 10  1  0  0  0  0
  6 17  2  0  0  0  0
  6 19  1  0  0  0  0
  7 16  1  0  0  0  0
  7 18  2  0  0  0  0
  7 20  1  0  0  0  0
  8 10  1  0  0  0  0
  8 16  1  0  0  0  0
  9 10  1  0  0  0  0
  9 16  1  0  0  0  0
 10 19  1  0  0  0  0
 11 14  1  0  0  0  0
 12 14  1  0  0  0  0
 13 14  1  0  0  0  0
 14 20  1  0  0  0  0
  1 21  1  0  0  0  0
  2 22  1  0  0  0  0
  3 23  1  0  0  0  0
  8 24  1  0  0  0  0
  8 25  1  0  0  0  0
  9 26  1  0  0  0  0
  9 27  1  0  0  0  0
 11 28  1  0  0  0  0
 11 29  1  0  0  0  0
 11 30  1  0  0  0  0
 12 31  1  0  0  0  0
 12 32  1  0  0  0  0
 12 33  1  0  0  0  0
 13 34  1  0  0  0  0
 13 35  1  0  0  0  0
 13 36  1  0  0  0  0
M  END
> <id>
EN300-37276462

> <smiles>
CC(C)(C)OC(=O)N1CC2(C1)OC(=O)C=3C=NC=CC32

> <IUPAC Name>
tert-butyl 3'-oxo-3'H-spiro[azetidine-3,1'-furo[3,4-c]pyridine]-1-carboxylate

> <CAS>
2743438-84-6

> <URL>
https://www.enaminestore.com/catalog/EN300-37276462

> <ROCS_ShapeQuery>
_x0404_0B

> <ROCS_TanimotoCombo>
0.368 

> <ROCS_ShapeTanimoto>
0.283 

> <ROCS_ColorTanimoto>
0.085 

> <ROCS_RefTversky>
0.261 

> <ROCS_RefColorTversky>
0.090 

> <ROCS_RefTverskyCombo>
0.351 

> <ROCS_FitTversky>
1.421 

> <ROCS_FitColorTversky>
0.620 

> <ROCS_FitTverskyCombo>
2.041 

> <ROCS_ColorScore>
-6.482

> <ROCS_Overlap>
1741.664

> <ROCS_Rank>
406                 

$$$$
untitled-dbase-34621_104
  -OEChem-08212314543D

 50 52  0     1  0  0  0  0  0999 V2000
   -8.0241    3.0351  -13.7076 C   0  0  0  0  0  0  0  0  0  0  0  0
   -9.2967    3.4973   -7.0978 C   0  0  0  0  0  0  0  0  0  0  0  0
   -8.6327    8.0447  -10.7063 C   0  0  0  0  0  0  0  0  0  0  0  0
   -9.4895    4.7157   -7.9902 C   0  0  0  0  0  0  0  0  0  0  0  0
   -8.9069    7.2260  -11.9520 C   0  0  0  0  0  0  0  0  0  0  0  0
   -9.6713    2.2279   -7.8395 C   0  0  0  0  0  0  0  0  0  0  0  0
   -8.6960    7.0413   -9.5623 C   0  0  0  0  0  0  0  0  0  0  0  0
   -9.2369    4.7953  -12.4669 C   0  0  0  0  0  0  0  0  0  0  0  0
   -8.2449    2.8372  -11.2250 C   0  0  0  0  0  0  0  0  0  0  0  0
   -8.5666    5.7964  -11.5343 C   0  0  2  0  0  0  0  0  0  0  0  0
   -8.7528    4.5848   -9.3512 C   0  0  1  0  0  0  0  0  0  0  0  0
   -9.1087    3.2093  -10.0028 C   0  0  2  0  0  0  0  0  0  0  0  0
   -6.3773    3.2071  -16.0429 C   0  0  0  0  0  0  0  0  0  0  0  0
   -7.6939    5.2740  -16.5944 C   0  0  0  0  0  0  0  0  0  0  0  0
   -6.3097    5.1945  -14.5002 C   0  0  0  0  0  0  0  0  0  0  0  0
   -7.1668    4.3837  -15.4711 C   0  0  0  0  0  0  0  0  0  0  0  0
   -8.8744    2.0991   -9.0517 N   0  0  0  0  0  0  0  0  0  0  0  0
   -8.5260    3.5228  -12.4877 N   0  0  0  0  0  0  0  0  0  0  0  0
   -9.1014    5.7625  -10.1715 N   0  0  1  0  0  0  0  0  0  0  0  0
   -7.4116    1.9768  -13.8370 O   0  0  0  0  0  0  0  0  0  0  0  0
   -8.2992    3.8702  -14.7602 O   0  0  0  0  0  0  0  0  0  0  0  0
   -8.2524    3.4436   -6.7748 H   0  0  0  0  0  0  0  0  0  0  0  0
   -9.9095    3.5969   -6.1985 H   0  0  0  0  0  0  0  0  0  0  0  0
   -7.6609    8.5609  -10.7534 H   0  0  0  0  0  0  0  0  0  0  0  0
   -9.4096    8.8187  -10.5801 H   0  0  0  0  0  0  0  0  0  0  0  0
  -10.5683    4.8750   -8.1659 H   0  0  0  0  0  0  0  0  0  0  0  0
   -9.1346    5.5968   -7.4309 H   0  0  0  0  0  0  0  0  0  0  0  0
   -9.9325    7.3647  -12.3027 H   0  0  0  0  0  0  0  0  0  0  0  0
   -8.2301    7.5492  -12.7504 H   0  0  0  0  0  0  0  0  0  0  0  0
   -9.4911    1.3608   -7.1987 H   0  0  0  0  0  0  0  0  0  0  0  0
  -10.7373    2.2257   -8.0868 H   0  0  0  0  0  0  0  0  0  0  0  0
   -7.7011    6.9645   -9.0831 H   0  0  0  0  0  0  0  0  0  0  0  0
   -9.4160    7.3816   -8.7977 H   0  0  0  0  0  0  0  0  0  0  0  0
  -10.2615    4.6186  -12.1659 H   0  0  0  0  0  0  0  0  0  0  0  0
   -9.2341    5.1754  -13.4811 H   0  0  0  0  0  0  0  0  0  0  0  0
   -7.1460    2.9466  -10.9973 H   0  0  0  0  0  0  0  0  0  0  0  0
   -8.3346    1.7311  -11.4119 H   0  0  0  0  0  0  0  0  0  0  0  0
   -7.4893    5.7034  -11.5585 H   0  0  0  0  0  0  0  0  0  0  0  0
   -7.6817    4.6280   -9.1229 H   0  0  0  0  0  0  0  0  0  0  0  0
  -10.1487    3.1811  -10.3082 H   0  0  0  0  0  0  0  0  0  0  0  0
   -5.9973    2.5657  -15.2397 H   0  0  0  0  0  0  0  0  0  0  0  0
   -6.9913    2.5974  -16.7138 H   0  0  0  0  0  0  0  0  0  0  0  0
   -5.5006    3.5580  -16.5993 H   0  0  0  0  0  0  0  0  0  0  0  0
   -8.2610    6.1195  -16.1886 H   0  0  0  0  0  0  0  0  0  0  0  0
   -8.3851    4.7199  -17.2398 H   0  0  0  0  0  0  0  0  0  0  0  0
   -6.8810    5.6669  -17.2136 H   0  0  0  0  0  0  0  0  0  0  0  0
   -6.8757    6.0386  -14.0898 H   0  0  0  0  0  0  0  0  0  0  0  0
   -5.9530    4.5801  -13.6672 H   0  0  0  0  0  0  0  0  0  0  0  0
   -5.4414    5.6245  -15.0125 H   0  0  0  0  0  0  0  0  0  0  0  0
   -7.8803    2.0734   -8.8077 H   0  0  0  0  0  0  0  0  0  0  0  0
  1 18  1  0  0  0  0
  1 20  2  0  0  0  0
  1 21  1  0  0  0  0
  2  4  1  0  0  0  0
  2  6  1  0  0  0  0
  3  5  1  0  0  0  0
  3  7  1  0  0  0  0
  4 11  1  0  0  0  0
  5 10  1  0  0  0  0
  6 17  1  0  0  0  0
  7 19  1  0  0  0  0
  8 10  1  0  0  0  0
  8 18  1  0  0  0  0
  9 12  1  0  0  0  0
  9 18  1  0  0  0  0
 10 19  1  0  0  0  0
 11 12  1  0  0  0  0
 11 19  1  0  0  0  0
 12 17  1  0  0  0  0
 13 16  1  0  0  0  0
 14 16  1  0  0  0  0
 15 16  1  0  0  0  0
 16 21  1  0  0  0  0
  2 22  1  0  0  0  0
  2 23  1  0  0  0  0
  3 24  1  0  0  0  0
  3 25  1  0  0  0  0
  4 26  1  0  0  0  0
  4 27  1  0  0  0  0
  5 28  1  0  0  0  0
  5 29  1  0  0  0  0
  6 30  1  0  0  0  0
  6 31  1  0  0  0  0
  7 32  1  0  0  0  0
  7 33  1  0  0  0  0
  8 34  1  0  0  0  0
  8 35  1  0  0  0  0
  9 36  1  0  0  0  0
  9 37  1  0  0  0  0
 10 38  1  0  0  0  0
 11 39  1  0  0  0  0
 12 40  1  0  0  0  0
 13 41  1  0  0  0  0
 13 42  1  0  0  0  0
 13 43  1  0  0  0  0
 14 44  1  0  0  0  0
 14 45  1  0  0  0  0
 14 46  1  0  0  0  0
 15 47  1  0  0  0  0
 15 48  1  0  0  0  0
 15 49  1  0  0  0  0
 17 50  1  0  0  0  0
M  END
> <id>
EN300-696581

> <smiles>
CC(C)(C)OC(=O)N1CC2CCCN2C3CCCNC3C1

> <IUPAC Name>
tert-butyl 2,8,11-triazatricyclo[8.4.0.0,2,6]tetradecane-8-carboxylate

> <CAS>
2137441-92-8

> <URL>
https://www.enaminestore.com/catalog/EN300-696581

> <ROCS_ShapeQuery>
_x0404_0B

> <ROCS_TanimotoCombo>
0.368 

> <ROCS_ShapeTanimoto>
0.271 

> <ROCS_ColorTanimoto>
0.097 

> <ROCS_RefTversky>
0.252 

> <ROCS_RefColorTversky>
0.103 

> <ROCS_RefTverskyCombo>
0.355 

> <ROCS_FitTversky>
1.368 

> <ROCS_FitColorTversky>
0.650 

> <ROCS_FitTverskyCombo>
2.019 

> <ROCS_ColorScore>
-7.407

> <ROCS_Overlap>
1682.993

> <ROCS_Rank>
407                 

$$$$
untitled-dbase-11724_7
  -OEChem-08212314543D

 38 39  0     0  0  0  0  0  0999 V2000
   -7.1536    2.0563  -11.8507 C   0  0  0  0  0  0  0  0  0  0  0  0
   -6.8038    1.0001  -11.3990 C   0  0  0  0  0  0  0  0  0  0  0  0
   -9.4210    6.7633  -10.9162 C   0  0  0  0  0  0  0  0  0  0  0  0
   -9.0338    6.6059  -12.2517 C   0  0  0  0  0  0  0  0  0  0  0  0
   -8.5950    4.5624  -10.3705 C   0  0  0  0  0  0  0  0  0  0  0  0
   -7.4171    3.6800  -13.6988 C   0  0  0  0  0  0  0  0  0  0  0  0
   -7.5687    3.3080  -12.3885 C   0  0  0  0  0  0  0  0  0  0  0  0
   -8.1958    4.3799  -11.7118 C   0  0  0  0  0  0  0  0  0  0  0  0
   -9.2054    5.7565   -9.9857 C   0  0  0  0  0  0  0  0  0  0  0  0
   -8.4164    5.4026  -12.6488 C   0  0  0  0  0  0  0  0  0  0  0  0
   -7.9069    5.5951  -15.1339 C   0  0  0  0  0  0  0  0  0  0  0  0
   -9.6266    5.9498   -8.5680 C   0  0  0  0  0  0  0  0  0  0  0  0
   -7.5692    6.4487  -17.8187 C   0  0  0  0  0  0  0  0  0  0  0  0
   -7.0737    4.0379  -18.3201 C   0  0  0  0  0  0  0  0  0  0  0  0
   -9.3277    4.6916  -17.4254 C   0  0  0  0  0  0  0  0  0  0  0  0
   -7.8313    5.0005  -17.4082 C   0  0  0  0  0  0  0  0  0  0  0  0
   -7.9270    4.9544  -13.8829 N   0  0  0  0  0  0  0  0  0  0  0  0
   -6.3846   -0.2642  -10.8588 N   0  0  0  0  0  0  0  0  0  0  0  0
   -8.3653    6.7201  -15.2615 O   0  0  0  0  0  0  0  0  0  0  0  0
   -7.3419    4.8087  -16.0774 O   0  0  0  0  0  0  0  0  0  0  0  0
   -9.8977    7.6941  -10.6150 H   0  0  0  0  0  0  0  0  0  0  0  0
   -9.2174    7.4143  -12.9535 H   0  0  0  0  0  0  0  0  0  0  0  0
   -8.4264    3.7747   -9.6387 H   0  0  0  0  0  0  0  0  0  0  0  0
   -6.9807    3.1319  -14.5262 H   0  0  0  0  0  0  0  0  0  0  0  0
  -10.6558    5.5992   -8.4249 H   0  0  0  0  0  0  0  0  0  0  0  0
   -8.9721    5.3995   -7.8801 H   0  0  0  0  0  0  0  0  0  0  0  0
   -9.5752    7.0073   -8.2785 H   0  0  0  0  0  0  0  0  0  0  0  0
   -8.1112    7.1429  -17.1665 H   0  0  0  0  0  0  0  0  0  0  0  0
   -6.5028    6.6932  -17.7768 H   0  0  0  0  0  0  0  0  0  0  0  0
   -7.9278    6.6375  -18.8371 H   0  0  0  0  0  0  0  0  0  0  0  0
   -7.2589    2.9975  -18.0292 H   0  0  0  0  0  0  0  0  0  0  0  0
   -5.9918    4.1932  -18.2389 H   0  0  0  0  0  0  0  0  0  0  0  0
   -7.3640    4.1616  -19.3685 H   0  0  0  0  0  0  0  0  0  0  0  0
   -9.5160    3.6528  -17.1310 H   0  0  0  0  0  0  0  0  0  0  0  0
   -9.8830    5.3488  -16.7484 H   0  0  0  0  0  0  0  0  0  0  0  0
   -9.7375    4.8058  -18.4355 H   0  0  0  0  0  0  0  0  0  0  0  0
   -5.5396   -0.6999  -11.1998 H   0  0  0  0  0  0  0  0  0  0  0  0
   -6.9377   -0.7112  -10.1414 H   0  0  0  0  0  0  0  0  0  0  0  0
  1  2  3  0  0  0  0
  1  7  1  0  0  0  0
  2 18  1  0  0  0  0
  3  4  1  0  0  0  0
  3  9  2  0  0  0  0
  4 10  2  0  0  0  0
  5  8  2  0  0  0  0
  5  9  1  0  0  0  0
  6  7  2  0  0  0  0
  6 17  1  0  0  0  0
  7  8  1  0  0  0  0
  8 10  1  0  0  0  0
  9 12  1  0  0  0  0
 10 17  1  0  0  0  0
 11 17  1  0  0  0  0
 11 19  2  0  0  0  0
 11 20  1  0  0  0  0
 13 16  1  0  0  0  0
 14 16  1  0  0  0  0
 15 16  1  0  0  0  0
 16 20  1  0  0  0  0
  3 21  1  0  0  0  0
  4 22  1  0  0  0  0
  5 23  1  0  0  0  0
  6 24  1  0  0  0  0
 12 25  1  0  0  0  0
 12 26  1  0  0  0  0
 12 27  1  0  0  0  0
 13 28  1  0  0  0  0
 13 29  1  0  0  0  0
 13 30  1  0  0  0  0
 14 31  1  0  0  0  0
 14 32  1  0  0  0  0
 14 33  1  0  0  0  0
 15 34  1  0  0  0  0
 15 35  1  0  0  0  0
 15 36  1  0  0  0  0
 18 37  1  0  0  0  0
 18 38  1  0  0  0  0
M  END
> <id>
EN300-624597

> <smiles>
CC=1C=CC=2N(C=C(C#CN)C2C1)C(=O)OC(C)(C)C

> <MDLNUMBER>
MFCD30752590

> <IUPAC Name>
tert-butyl 3-(2-aminoethynyl)-5-methyl-1H-indole-1-carboxylate

> <CAS>
2137743-24-7

> <URL>
https://www.enaminestore.com/catalog/EN300-624597

> <ROCS_ShapeQuery>
_x0404_0B

> <ROCS_TanimotoCombo>
0.368 

> <ROCS_ShapeTanimoto>
0.283 

> <ROCS_ColorTanimoto>
0.085 

> <ROCS_RefTversky>
0.261 

> <ROCS_RefColorTversky>
0.088 

> <ROCS_RefTverskyCombo>
0.349 

> <ROCS_FitTversky>
1.444 

> <ROCS_FitColorTversky>
0.670 

> <ROCS_FitTverskyCombo>
2.114 

> <ROCS_ColorScore>
-6.366

> <ROCS_Overlap>
1738.006

> <ROCS_Rank>
408                 

$$$$
untitled-dbase-22956_1
  -OEChem-08212314543D

 42 45  0     1  0  0  0  0  0999 V2000
   -8.9822    6.3839  -12.3637 C   0  0  0  0  0  0  0  0  0  0  0  0
   -9.1599    6.0315  -11.0287 C   0  0  0  0  0  0  0  0  0  0  0  0
   -8.4528    5.4676  -13.2713 C   0  0  0  0  0  0  0  0  0  0  0  0
   -8.0847    4.1819  -12.8176 C   0  0  0  0  0  0  0  0  0  0  0  0
   -8.8041    4.7581  -10.5462 C   0  0  0  0  0  0  0  0  0  0  0  0
   -8.2166    3.8297  -11.4448 C   0  0  0  0  0  0  0  0  0  0  0  0
   -8.2695    5.8361  -14.6718 C   0  0  0  0  0  0  0  0  0  0  0  0
   -7.5837    3.2130  -13.8487 C   0  0  0  0  0  0  0  0  0  0  0  0
   -7.7472    5.0353  -15.5889 C   0  0  0  0  0  0  0  0  0  0  0  0
   -7.2989    3.6933  -15.2493 C   0  0  0  0  0  0  0  0  0  0  0  0
   -7.7591    2.4752  -10.9451 C   0  0  0  0  0  0  0  0  0  0  0  0
   -7.6299    2.3581   -9.4331 C   0  0  0  0  0  0  0  0  0  0  0  0
   -8.8667    2.9277   -8.7672 C   0  0  0  0  0  0  0  0  0  0  0  0
   -8.0597    7.1448  -16.4547 C   0  0  0  0  0  0  0  0  0  0  0  0
   -7.7046    5.7154  -16.8987 C   0  0  2  0  0  0  0  0  0  0  0  0
   -9.0296    4.4375   -9.0594 C   0  0  0  0  0  0  0  0  0  0  0  0
   -8.7222    5.1484  -17.8822 C   0  0  0  0  0  0  0  0  0  0  0  0
  -10.4587    4.8188   -8.6044 C   0  0  0  0  0  0  0  0  0  0  0  0
   -8.0189    5.2453   -8.2149 C   0  0  0  0  0  0  0  0  0  0  0  0
   -7.4153    2.0196  -13.6511 O   0  0  0  0  0  0  0  0  0  0  0  0
   -6.7307    2.9516  -16.0340 O   0  0  0  0  0  0  0  0  0  0  0  0
   -8.6451    7.0914  -15.1311 O   0  0  0  0  0  0  0  0  0  0  0  0
   -9.2622    7.3880  -12.6733 H   0  0  0  0  0  0  0  0  0  0  0  0
   -9.5977    6.7741  -10.3664 H   0  0  0  0  0  0  0  0  0  0  0  0
   -8.4729    1.7036  -11.2556 H   0  0  0  0  0  0  0  0  0  0  0  0
   -6.7863    2.2536  -11.4017 H   0  0  0  0  0  0  0  0  0  0  0  0
   -7.4813    1.3114   -9.1445 H   0  0  0  0  0  0  0  0  0  0  0  0
   -6.7386    2.9027   -9.1002 H   0  0  0  0  0  0  0  0  0  0  0  0
   -9.7530    2.3745   -9.1025 H   0  0  0  0  0  0  0  0  0  0  0  0
   -8.7894    2.7581   -7.6841 H   0  0  0  0  0  0  0  0  0  0  0  0
   -7.1567    7.7660  -16.3895 H   0  0  0  0  0  0  0  0  0  0  0  0
   -8.7620    7.6428  -17.1325 H   0  0  0  0  0  0  0  0  0  0  0  0
   -6.7058    5.6950  -17.3491 H   0  0  0  0  0  0  0  0  0  0  0  0
   -9.7175    5.1665  -17.4390 H   0  0  0  0  0  0  0  0  0  0  0  0
   -8.4641    4.1197  -18.1323 H   0  0  0  0  0  0  0  0  0  0  0  0
   -8.7293    5.7442  -18.7945 H   0  0  0  0  0  0  0  0  0  0  0  0
  -10.5699    4.5756   -7.5551 H   0  0  0  0  0  0  0  0  0  0  0  0
  -11.1756    4.2592   -9.1923 H   0  0  0  0  0  0  0  0  0  0  0  0
  -10.6039    5.8812   -8.7559 H   0  0  0  0  0  0  0  0  0  0  0  0
   -8.1785    5.0189   -7.1688 H   0  0  0  0  0  0  0  0  0  0  0  0
   -8.1776    6.3003   -8.3957 H   0  0  0  0  0  0  0  0  0  0  0  0
   -7.0159    4.9641   -8.5079 H   0  0  0  0  0  0  0  0  0  0  0  0
  1  2  1  0  0  0  0
  1  3  2  0  0  0  0
  2  5  2  0  0  0  0
  3  4  1  0  0  0  0
  3  7  1  0  0  0  0
  4  6  2  0  0  0  0
  4  8  1  0  0  0  0
  5  6  1  0  0  0  0
  5 16  1  0  0  0  0
  6 11  1  0  0  0  0
  7  9  2  0  0  0  0
  7 22  1  0  0  0  0
  8 10  1  0  0  0  0
  8 20  2  0  0  0  0
  9 10  1  0  0  0  0
  9 15  1  0  0  0  0
 10 21  2  0  0  0  0
 11 12  1  0  0  0  0
 12 13  1  0  0  0  0
 13 16  1  0  0  0  0
 14 15  1  0  0  0  0
 14 22  1  0  0  0  0
 15 17  1  6  0  0  0
 16 18  1  0  0  0  0
 16 19  1  0  0  0  0
  1 23  1  0  0  0  0
  2 24  1  0  0  0  0
 11 25  1  0  0  0  0
 11 26  1  0  0  0  0
 12 27  1  0  0  0  0
 12 28  1  0  0  0  0
 13 29  1  0  0  0  0
 13 30  1  0  0  0  0
 14 31  1  0  0  0  0
 14 32  1  0  0  0  0
 15 33  1  0  0  0  0
 17 34  1  0  0  0  0
 17 35  1  0  0  0  0
 17 36  1  0  0  0  0
 18 37  1  0  0  0  0
 18 38  1  0  0  0  0
 18 39  1  0  0  0  0
 19 40  1  0  0  0  0
 19 41  1  0  0  0  0
 19 42  1  0  0  0  0
M  END
> <id>
EN300-7416850

> <smiles>
C[C@H]1COC2=C1C(=O)C(=O)C=3C=4CCCC(C)(C)C4C=CC23

> <MDLNUMBER>
MFCD07636810

> <IUPAC Name>
(1R)-1,6,6-trimethyl-1H,2H,6H,7H,8H,9H,10H,11H-phenanthro[1,2-b]furan-10,11-dione

> <CAS>
35825-57-1

> <Purity>
95

> <URL>
https://www.enaminestore.com/catalog/EN300-7416850

> <MP>
192-193

> <ROCS_ShapeQuery>
_x0404_0B

> <ROCS_TanimotoCombo>
0.368 

> <ROCS_ShapeTanimoto>
0.299 

> <ROCS_ColorTanimoto>
0.068 

> <ROCS_RefTversky>
0.276 

> <ROCS_RefColorTversky>
0.074 

> <ROCS_RefTverskyCombo>
0.350 

> <ROCS_FitTversky>
1.402 

> <ROCS_FitColorTversky>
0.469 

> <ROCS_FitTverskyCombo>
1.871 

> <ROCS_ColorScore>
-5.352

> <ROCS_Overlap>
1841.223

> <ROCS_Rank>
409                 

$$$$
untitled-dbase-34272_22
  -OEChem-08212314543D

 48 50  0     0  0  0  0  0  0999 V2000
   -9.2599    2.0014   -8.3069 C   0  0  0  0  0  0  0  0  0  0  0  0
   -8.8191    4.0381   -7.9338 C   0  0  0  0  0  0  0  0  0  0  0  0
   -9.0721    3.9617   -9.2839 C   0  0  0  0  0  0  0  0  0  0  0  0
   -8.9534    6.0458  -14.4384 C   0  0  0  0  0  0  0  0  0  0  0  0
   -8.4717    5.3103   -7.2662 C   0  0  0  0  0  0  0  0  0  0  0  0
   -7.7748    4.9506  -11.1830 C   0  0  0  0  0  0  0  0  0  0  0  0
  -10.2800    5.1351  -11.1442 C   0  0  0  0  0  0  0  0  0  0  0  0
   -8.0337    6.3457   -8.3259 C   0  0  0  0  0  0  0  0  0  0  0  0
   -7.7292    6.0124  -12.2822 C   0  0  0  0  0  0  0  0  0  0  0  0
  -10.2072    6.1914  -12.2494 C   0  0  0  0  0  0  0  0  0  0  0  0
   -9.0084    5.0982  -10.2600 C   0  0  0  0  0  0  0  0  0  0  0  0
   -8.8133    3.7105  -16.0875 C   0  0  0  0  0  0  0  0  0  0  0  0
  -11.2051    4.2065  -16.6727 C   0  0  0  0  0  0  0  0  0  0  0  0
   -9.4050    5.8550  -17.2646 C   0  0  0  0  0  0  0  0  0  0  0  0
   -9.6019    1.9770  -10.7698 C   0  0  0  0  0  0  0  0  0  0  0  0
   -9.8650    4.8065  -16.2527 C   0  0  0  0  0  0  0  0  0  0  0  0
   -8.9423    2.8216   -7.3255 N   0  0  0  0  0  0  0  0  0  0  0  0
   -9.3462    2.6447   -9.5159 N   0  0  0  0  0  0  0  0  0  0  0  0
   -8.9339    6.3874   -9.4994 N   0  0  0  0  0  0  0  0  0  0  0  0
   -8.9798    6.0501  -13.0394 N   0  0  0  0  0  0  0  0  0  0  0  0
   -8.0450    6.5237  -15.1158 O   0  0  0  0  0  0  0  0  0  0  0  0
  -10.0573    5.4482  -14.9867 O   0  0  0  0  0  0  0  0  0  0  0  0
   -9.4302    0.9380   -8.2061 H   0  0  0  0  0  0  0  0  0  0  0  0
   -9.3500    5.6825   -6.7258 H   0  0  0  0  0  0  0  0  0  0  0  0
   -7.6676    5.1589   -6.5387 H   0  0  0  0  0  0  0  0  0  0  0  0
   -7.7807    3.9632  -11.6642 H   0  0  0  0  0  0  0  0  0  0  0  0
   -6.8413    4.9882  -10.6078 H   0  0  0  0  0  0  0  0  0  0  0  0
  -11.1724    5.3157  -10.5296 H   0  0  0  0  0  0  0  0  0  0  0  0
  -10.4491    4.1704  -11.6344 H   0  0  0  0  0  0  0  0  0  0  0  0
   -8.0113    7.3400   -7.8656 H   0  0  0  0  0  0  0  0  0  0  0  0
   -7.0082    6.1392   -8.6539 H   0  0  0  0  0  0  0  0  0  0  0  0
   -7.5755    7.0107  -11.8565 H   0  0  0  0  0  0  0  0  0  0  0  0
   -6.8830    5.8139  -12.9481 H   0  0  0  0  0  0  0  0  0  0  0  0
  -11.0973    6.1141  -12.8802 H   0  0  0  0  0  0  0  0  0  0  0  0
  -10.2037    7.2021  -11.8255 H   0  0  0  0  0  0  0  0  0  0  0  0
   -7.8499    4.1372  -15.7861 H   0  0  0  0  0  0  0  0  0  0  0  0
   -9.1155    2.9710  -15.3389 H   0  0  0  0  0  0  0  0  0  0  0  0
   -8.6378    3.1907  -17.0363 H   0  0  0  0  0  0  0  0  0  0  0  0
  -11.9627    4.9894  -16.7924 H   0  0  0  0  0  0  0  0  0  0  0  0
  -11.5852    3.5241  -15.9039 H   0  0  0  0  0  0  0  0  0  0  0  0
  -11.1235    3.6559  -17.6154 H   0  0  0  0  0  0  0  0  0  0  0  0
  -10.1593    6.6413  -17.3833 H   0  0  0  0  0  0  0  0  0  0  0  0
   -8.4630    6.3228  -16.9607 H   0  0  0  0  0  0  0  0  0  0  0  0
   -9.2674    5.4065  -18.2552 H   0  0  0  0  0  0  0  0  0  0  0  0
  -10.6841    1.9483  -10.9221 H   0  0  0  0  0  0  0  0  0  0  0  0
   -9.1162    2.5268  -11.5807 H   0  0  0  0  0  0  0  0  0  0  0  0
   -9.1934    0.9634  -10.7293 H   0  0  0  0  0  0  0  0  0  0  0  0
   -9.8691    6.6284   -9.1680 H   0  0  0  0  0  0  0  0  0  0  0  0
  1 17  2  0  0  0  0
  1 18  1  0  0  0  0
  2  3  2  0  0  0  0
  2  5  1  0  0  0  0
  2 17  1  0  0  0  0
  3 11  1  0  0  0  0
  3 18  1  0  0  0  0
  4 20  1  0  0  0  0
  4 21  2  0  0  0  0
  4 22  1  0  0  0  0
  5  8  1  0  0  0  0
  6  9  1  0  0  0  0
  6 11  1  0  0  0  0
  7 10  1  0  0  0  0
  7 11  1  0  0  0  0
  8 19  1  0  0  0  0
  9 20  1  0  0  0  0
 10 20  1  0  0  0  0
 11 19  1  0  0  0  0
 12 16  1  0  0  0  0
 13 16  1  0  0  0  0
 14 16  1  0  0  0  0
 15 18  1  0  0  0  0
 16 22  1  0  0  0  0
  1 23  1  0  0  0  0
  5 24  1  0  0  0  0
  5 25  1  0  0  0  0
  6 26  1  0  0  0  0
  6 27  1  0  0  0  0
  7 28  1  0  0  0  0
  7 29  1  0  0  0  0
  8 30  1  0  0  0  0
  8 31  1  0  0  0  0
  9 32  1  0  0  0  0
  9 33  1  0  0  0  0
 10 34  1  0  0  0  0
 10 35  1  0  0  0  0
 12 36  1  0  0  0  0
 12 37  1  0  0  0  0
 12 38  1  0  0  0  0
 13 39  1  0  0  0  0
 13 40  1  0  0  0  0
 13 41  1  0  0  0  0
 14 42  1  0  0  0  0
 14 43  1  0  0  0  0
 14 44  1  0  0  0  0
 15 45  1  0  0  0  0
 15 46  1  0  0  0  0
 15 47  1  0  0  0  0
 19 48  1  0  0  0  0
M  END
> <id>
EN300-332658

> <smiles>
CN1C=NC=2CCNC3(CCN(CC3)C(=O)OC(C)(C)C)C21

> <IUPAC Name>
tert-butyl 3-methyl-3,5,6,7-tetrahydrospiro[imidazo[4,5-c]pyridine-4,4'-piperidine]-1'-carboxylate

> <CAS>
2137618-71-2

> <URL>
https://www.enaminestore.com/catalog/EN300-332658

> <ROCS_ShapeQuery>
_x0404_0B

> <ROCS_TanimotoCombo>
0.368 

> <ROCS_ShapeTanimoto>
0.291 

> <ROCS_ColorTanimoto>
0.077 

> <ROCS_RefTversky>
0.269 

> <ROCS_RefColorTversky>
0.084 

> <ROCS_RefTverskyCombo>
0.353 

> <ROCS_FitTversky>
1.387 

> <ROCS_FitColorTversky>
0.490 

> <ROCS_FitTverskyCombo>
1.876 

> <ROCS_ColorScore>
-6.045

> <ROCS_Overlap>
1796.053

> <ROCS_Rank>
410                 

$$$$
untitled-dbase-24110_1
  -OEChem-08212314543D

 42 45  0     1  0  0  0  0  0999 V2000
   -8.9836    6.3829  -12.3640 C   0  0  0  0  0  0  0  0  0  0  0  0
   -9.1600    6.0305  -11.0288 C   0  0  0  0  0  0  0  0  0  0  0  0
   -8.4537    5.4670  -13.2717 C   0  0  0  0  0  0  0  0  0  0  0  0
   -8.0841    4.1817  -12.8180 C   0  0  0  0  0  0  0  0  0  0  0  0
   -8.8022    4.7578  -10.5461 C   0  0  0  0  0  0  0  0  0  0  0  0
   -8.2144    3.8297  -11.4449 C   0  0  0  0  0  0  0  0  0  0  0  0
   -8.2708    5.8356  -14.6721 C   0  0  0  0  0  0  0  0  0  0  0  0
   -7.5835    3.2129  -13.8492 C   0  0  0  0  0  0  0  0  0  0  0  0
   -7.7484    5.0350  -15.5894 C   0  0  0  0  0  0  0  0  0  0  0  0
   -7.2995    3.6933  -15.2500 C   0  0  0  0  0  0  0  0  0  0  0  0
   -7.7547    2.4761  -10.9449 C   0  0  0  0  0  0  0  0  0  0  0  0
   -7.6220    2.3608   -9.4331 C   0  0  0  0  0  0  0  0  0  0  0  0
   -8.8586    2.9286   -8.7654 C   0  0  0  0  0  0  0  0  0  0  0  0
   -8.0578    7.1456  -16.4535 C   0  0  0  0  0  0  0  0  0  0  0  0
   -7.7047    5.7161  -16.8988 C   0  0  2  0  0  0  0  0  0  0  0  0
   -9.0252    4.4378   -9.0588 C   0  0  0  0  0  0  0  0  0  0  0  0
   -8.7228    5.1514  -17.8830 C   0  0  0  0  0  0  0  0  0  0  0  0
   -8.0151    5.2484   -8.2161 C   0  0  0  0  0  0  0  0  0  0  0  0
  -10.4544    4.8164   -8.6021 C   0  0  0  0  0  0  0  0  0  0  0  0
   -7.4148    2.0196  -13.6517 O   0  0  0  0  0  0  0  0  0  0  0  0
   -6.7311    2.9519  -16.0348 O   0  0  0  0  0  0  0  0  0  0  0  0
   -8.6452    7.0916  -15.1308 O   0  0  0  0  0  0  0  0  0  0  0  0
   -9.2647    7.3867  -12.6733 H   0  0  0  0  0  0  0  0  0  0  0  0
   -9.5987    6.7728  -10.3666 H   0  0  0  0  0  0  0  0  0  0  0  0
   -8.4686    1.7038  -11.2530 H   0  0  0  0  0  0  0  0  0  0  0  0
   -6.7827    2.2548  -11.4036 H   0  0  0  0  0  0  0  0  0  0  0  0
   -7.4707    1.3148   -9.1436 H   0  0  0  0  0  0  0  0  0  0  0  0
   -6.7312    2.9077   -9.1030 H   0  0  0  0  0  0  0  0  0  0  0  0
   -9.7444    2.3731   -9.0983 H   0  0  0  0  0  0  0  0  0  0  0  0
   -8.7786    2.7598   -7.6823 H   0  0  0  0  0  0  0  0  0  0  0  0
   -7.1539    7.7652  -16.3863 H   0  0  0  0  0  0  0  0  0  0  0  0
   -8.7580    7.6456  -17.1319 H   0  0  0  0  0  0  0  0  0  0  0  0
   -6.7056    5.6948  -17.3491 H   0  0  0  0  0  0  0  0  0  0  0  0
   -9.7181    5.1704  -17.4399 H   0  0  0  0  0  0  0  0  0  0  0  0
   -8.4659    4.1227  -18.1340 H   0  0  0  0  0  0  0  0  0  0  0  0
   -8.7289    5.7482  -18.7946 H   0  0  0  0  0  0  0  0  0  0  0  0
   -8.1729    5.0224   -7.1696 H   0  0  0  0  0  0  0  0  0  0  0  0
   -8.1762    6.3029   -8.3975 H   0  0  0  0  0  0  0  0  0  0  0  0
   -7.0118    4.9690   -8.5100 H   0  0  0  0  0  0  0  0  0  0  0  0
  -10.5639    4.5738   -7.5524 H   0  0  0  0  0  0  0  0  0  0  0  0
  -11.1710    4.2550   -9.1886 H   0  0  0  0  0  0  0  0  0  0  0  0
  -10.6021    5.8784   -8.7541 H   0  0  0  0  0  0  0  0  0  0  0  0
  1  2  1  0  0  0  0
  1  3  2  0  0  0  0
  2  5  2  0  0  0  0
  3  4  1  0  0  0  0
  3  7  1  0  0  0  0
  4  6  2  0  0  0  0
  4  8  1  0  0  0  0
  5  6  1  0  0  0  0
  5 16  1  0  0  0  0
  6 11  1  0  0  0  0
  7  9  2  0  0  0  0
  7 22  1  0  0  0  0
  8 10  1  0  0  0  0
  8 20  2  0  0  0  0
  9 10  1  0  0  0  0
  9 15  1  0  0  0  0
 10 21  2  0  0  0  0
 11 12  1  0  0  0  0
 12 13  1  0  0  0  0
 13 16  1  0  0  0  0
 14 15  1  0  0  0  0
 14 22  1  0  0  0  0
 15 17  1  0  0  0  0
 16 18  1  0  0  0  0
 16 19  1  0  0  0  0
  1 23  1  0  0  0  0
  2 24  1  0  0  0  0
 11 25  1  0  0  0  0
 11 26  1  0  0  0  0
 12 27  1  0  0  0  0
 12 28  1  0  0  0  0
 13 29  1  0  0  0  0
 13 30  1  0  0  0  0
 14 31  1  0  0  0  0
 14 32  1  0  0  0  0
 15 33  1  0  0  0  0
 17 34  1  0  0  0  0
 17 35  1  0  0  0  0
 17 36  1  0  0  0  0
 18 37  1  0  0  0  0
 18 38  1  0  0  0  0
 18 39  1  0  0  0  0
 19 40  1  0  0  0  0
 19 41  1  0  0  0  0
 19 42  1  0  0  0  0
M  END
> <id>
EN300-18388658

> <smiles>
CC1COC2=C1C(=O)C(=O)C=3C=4CCCC(C)(C)C4C=CC23

> <MDLNUMBER>
MFCD05671363

> <IUPAC Name>
1,6,6-trimethyl-1H,2H,6H,7H,8H,9H,10H,11H-phenanthro[1,2-b]furan-10,11-dione

> <CAS>
17545-07-2

> <URL>
https://www.enaminestore.com/catalog/EN300-18388658

> <ROCS_ShapeQuery>
_x0404_0B

> <ROCS_TanimotoCombo>
0.368 

> <ROCS_ShapeTanimoto>
0.299 

> <ROCS_ColorTanimoto>
0.068 

> <ROCS_RefTversky>
0.276 

> <ROCS_RefColorTversky>
0.074 

> <ROCS_RefTverskyCombo>
0.350 

> <ROCS_FitTversky>
1.402 

> <ROCS_FitColorTversky>
0.469 

> <ROCS_FitTverskyCombo>
1.871 

> <ROCS_ColorScore>
-5.351

> <ROCS_Overlap>
1840.825

> <ROCS_Rank>
411                 

$$$$
untitled-dbase-14670_142
  -OEChem-08212314543D

 45 47  0     1  0  0  0  0  0999 V2000
   -9.2835    2.8586   -9.7563 C   0  0  0  0  0  0  0  0  0  0  0  0
   -9.1531    2.2236   -8.5401 C   0  0  0  0  0  0  0  0  0  0  0  0
   -9.0689    4.2738   -9.6694 C   0  0  0  0  0  0  0  0  0  0  0  0
   -8.7877    4.6333   -8.3629 C   0  0  0  0  0  0  0  0  0  0  0  0
   -8.7417    5.3710  -14.4515 C   0  0  0  0  0  0  0  0  0  0  0  0
   -8.4879    6.0253   -7.9182 C   0  0  0  0  0  0  0  0  0  0  0  0
  -11.2981    4.5224  -12.0078 C   0  0  0  0  0  0  0  0  0  0  0  0
  -10.6303    5.6116  -11.1637 C   0  0  0  0  0  0  0  0  0  0  0  0
   -8.9069    7.0189   -9.0063 C   0  0  0  0  0  0  0  0  0  0  0  0
  -10.4143    4.0070  -13.1412 C   0  0  0  0  0  0  0  0  0  0  0  0
   -8.3510    4.8399  -12.0532 C   0  0  0  0  0  0  0  0  0  0  0  0
   -9.1524    5.3018  -10.7992 C   0  0  2  0  0  0  0  0  0  0  0  0
   -7.2636    5.2164  -16.9505 C   0  0  0  0  0  0  0  0  0  0  0  0
   -9.3743    4.2404  -17.9001 C   0  0  0  0  0  0  0  0  0  0  0  0
   -9.3695    6.5930  -17.0206 C   0  0  0  0  0  0  0  0  0  0  0  0
   -8.7885    5.1893  -16.8567 C   0  0  0  0  0  0  0  0  0  0  0  0
   -8.4905    6.5576  -10.3353 N   0  0  0  0  0  0  0  0  0  0  0  0
   -9.1759    4.7739  -13.2623 N   0  0  0  0  0  0  0  0  0  0  0  0
   -8.0635    6.3952  -14.5000 O   0  0  0  0  0  0  0  0  0  0  0  0
   -9.1577    4.6901  -15.5626 O   0  0  0  0  0  0  0  0  0  0  0  0
   -8.7741    3.3191   -7.2847 S   0  0  0  0  0  0  0  0  0  0  0  0
   -9.5284    2.3182  -10.6591 H   0  0  0  0  0  0  0  0  0  0  0  0
   -9.2642    1.1689   -8.3325 H   0  0  0  0  0  0  0  0  0  0  0  0
   -9.0086    6.2645   -6.9842 H   0  0  0  0  0  0  0  0  0  0  0  0
   -7.4101    6.1152   -7.7335 H   0  0  0  0  0  0  0  0  0  0  0  0
  -11.6054    3.6803  -11.3659 H   0  0  0  0  0  0  0  0  0  0  0  0
  -12.2343    4.9208  -12.4339 H   0  0  0  0  0  0  0  0  0  0  0  0
  -10.6774    6.5475  -11.7394 H   0  0  0  0  0  0  0  0  0  0  0  0
  -11.2351    5.7732  -10.2616 H   0  0  0  0  0  0  0  0  0  0  0  0
   -9.9894    7.1925   -8.9769 H   0  0  0  0  0  0  0  0  0  0  0  0
   -8.4348    7.9867   -8.7992 H   0  0  0  0  0  0  0  0  0  0  0  0
  -10.1986    2.9433  -12.9859 H   0  0  0  0  0  0  0  0  0  0  0  0
  -10.9411    4.0911  -14.1009 H   0  0  0  0  0  0  0  0  0  0  0  0
   -7.5565    5.5603  -12.2840 H   0  0  0  0  0  0  0  0  0  0  0  0
   -7.8605    3.8826  -11.8559 H   0  0  0  0  0  0  0  0  0  0  0  0
   -6.8393    5.8964  -16.2031 H   0  0  0  0  0  0  0  0  0  0  0  0
   -6.8324    4.2214  -16.7998 H   0  0  0  0  0  0  0  0  0  0  0  0
   -6.9386    5.5900  -17.9282 H   0  0  0  0  0  0  0  0  0  0  0  0
  -10.4682    4.2178  -17.8365 H   0  0  0  0  0  0  0  0  0  0  0  0
   -9.0338    3.2129  -17.7281 H   0  0  0  0  0  0  0  0  0  0  0  0
   -9.0921    4.5336  -18.9165 H   0  0  0  0  0  0  0  0  0  0  0  0
  -10.4633    6.5738  -16.9534 H   0  0  0  0  0  0  0  0  0  0  0  0
   -8.9884    7.2789  -16.2572 H   0  0  0  0  0  0  0  0  0  0  0  0
   -9.1276    7.0020  -18.0083 H   0  0  0  0  0  0  0  0  0  0  0  0
   -8.6599    7.2999  -11.0158 H   0  0  0  0  0  0  0  0  0  0  0  0
  1  2  2  0  0  0  0
  1  3  1  0  0  0  0
  2 21  1  0  0  0  0
  3  4  2  0  0  0  0
  3 12  1  0  0  0  0
  4  6  1  0  0  0  0
  4 21  1  0  0  0  0
  5 18  1  0  0  0  0
  5 19  2  0  0  0  0
  5 20  1  0  0  0  0
  6  9  1  0  0  0  0
  7  8  1  0  0  0  0
  7 10  1  0  0  0  0
  8 12  1  0  0  0  0
  9 17  1  0  0  0  0
 10 18  1  0  0  0  0
 11 12  1  0  0  0  0
 11 18  1  0  0  0  0
 12 17  1  0  0  0  0
 13 16  1  0  0  0  0
 14 16  1  0  0  0  0
 15 16  1  0  0  0  0
 16 20  1  0  0  0  0
  1 22  1  0  0  0  0
  2 23  1  0  0  0  0
  6 24  1  0  0  0  0
  6 25  1  0  0  0  0
  7 26  1  0  0  0  0
  7 27  1  0  0  0  0
  8 28  1  0  0  0  0
  8 29  1  0  0  0  0
  9 30  1  0  0  0  0
  9 31  1  0  0  0  0
 10 32  1  0  0  0  0
 10 33  1  0  0  0  0
 11 34  1  0  0  0  0
 11 35  1  0  0  0  0
 13 36  1  0  0  0  0
 13 37  1  0  0  0  0
 13 38  1  0  0  0  0
 14 39  1  0  0  0  0
 14 40  1  0  0  0  0
 14 41  1  0  0  0  0
 15 42  1  0  0  0  0
 15 43  1  0  0  0  0
 15 44  1  0  0  0  0
 17 45  1  0  0  0  0
M  END
> <id>
EN300-1076013

> <smiles>
CC(C)(C)OC(=O)N1CCCC2(C1)NCCC=3SC=CC32

> <IUPAC Name>
tert-butyl 6',7'-dihydro-5'H-spiro[piperidine-3,4'-thieno[3,2-c]pyridine]-1-carboxylate

> <CAS>
2009607-03-6

> <URL>
https://www.enaminestore.com/catalog/EN300-1076013

> <ROCS_ShapeQuery>
_x0404_0B

> <ROCS_TanimotoCombo>
0.368 

> <ROCS_ShapeTanimoto>
0.315 

> <ROCS_ColorTanimoto>
0.052 

> <ROCS_RefTversky>
0.284 

> <ROCS_RefColorTversky>
0.057 

> <ROCS_RefTverskyCombo>
0.341 

> <ROCS_FitTversky>
1.544 

> <ROCS_FitColorTversky>
0.394 

> <ROCS_FitTverskyCombo>
1.938 

> <ROCS_ColorScore>
-4.111

> <ROCS_Overlap>
1893.435

> <ROCS_Rank>
412                 

$$$$
untitled-dbase-14716_53
  -OEChem-08212314543D

 48 50  0     1  0  0  0  0  0999 V2000
   -9.6392    4.1217  -16.6641 C   0  0  0  0  0  0  0  0  0  0  0  0
   -9.9206    4.1380  -18.0130 C   0  0  0  0  0  0  0  0  0  0  0  0
   -8.5052    4.9309  -16.3236 C   0  0  0  0  0  0  0  0  0  0  0  0
   -7.9819    5.5201  -17.4618 C   0  0  0  0  0  0  0  0  0  0  0  0
   -8.8404    4.9983  -11.4202 C   0  0  0  0  0  0  0  0  0  0  0  0
   -6.8116    6.4463  -17.4704 C   0  0  0  0  0  0  0  0  0  0  0  0
   -7.0288    3.9090  -14.5199 C   0  0  0  0  0  0  0  0  0  0  0  0
   -6.0640    6.3452  -16.1365 C   0  0  0  0  0  0  0  0  0  0  0  0
   -8.9815    3.0983  -13.0773 C   0  0  0  0  0  0  0  0  0  0  0  0
   -8.9727    5.4457  -13.8627 C   0  0  0  0  0  0  0  0  0  0  0  0
   -7.8594    2.6990  -14.0484 C   0  0  2  0  0  0  0  0  0  0  0  0
   -7.8868    5.1368  -14.9383 C   0  0  2  0  0  0  0  0  0  0  0  0
   -6.9410    1.6474  -13.4212 C   0  0  0  0  0  0  0  0  0  0  0  0
   -9.9439    5.2716   -8.7932 C   0  0  0  0  0  0  0  0  0  0  0  0
   -8.7263    3.1400   -8.2611 C   0  0  0  0  0  0  0  0  0  0  0  0
   -7.4321    5.1866   -8.9282 C   0  0  0  0  0  0  0  0  0  0  0  0
   -8.7299    4.4030   -9.1196 C   0  0  0  0  0  0  0  0  0  0  0  0
   -6.9916    6.3344  -14.9960 N   0  0  0  0  0  0  0  0  0  0  0  0
   -8.9217    4.5179  -12.7313 N   0  0  0  0  0  0  0  0  0  0  0  0
   -8.7897    6.1897  -11.1199 O   0  0  0  0  0  0  0  0  0  0  0  0
   -8.8175    3.9935  -10.4893 O   0  0  0  0  0  0  0  0  0  0  0  0
   -8.8269    5.1221  -18.8822 S   0  0  0  0  0  0  0  0  0  0  0  0
  -10.2269    3.5442  -15.9655 H   0  0  0  0  0  0  0  0  0  0  0  0
  -10.7161    3.6167  -18.5263 H   0  0  0  0  0  0  0  0  0  0  0  0
   -6.1268    6.2131  -18.2922 H   0  0  0  0  0  0  0  0  0  0  0  0
   -7.1712    7.4724  -17.6128 H   0  0  0  0  0  0  0  0  0  0  0  0
   -6.3580    4.2001  -13.6977 H   0  0  0  0  0  0  0  0  0  0  0  0
   -6.3802    3.5892  -15.3470 H   0  0  0  0  0  0  0  0  0  0  0  0
   -5.4201    5.4563  -16.1197 H   0  0  0  0  0  0  0  0  0  0  0  0
   -5.3934    7.2089  -16.0424 H   0  0  0  0  0  0  0  0  0  0  0  0
   -9.9520    2.8359  -13.5125 H   0  0  0  0  0  0  0  0  0  0  0  0
   -8.8943    2.5377  -12.1367 H   0  0  0  0  0  0  0  0  0  0  0  0
   -8.8117    6.4392  -13.4325 H   0  0  0  0  0  0  0  0  0  0  0  0
   -9.9678    5.4460  -14.3128 H   0  0  0  0  0  0  0  0  0  0  0  0
   -8.3196    2.2211  -14.9341 H   0  0  0  0  0  0  0  0  0  0  0  0
   -6.4569    2.0621  -12.5395 H   0  0  0  0  0  0  0  0  0  0  0  0
   -6.1811    1.3486  -14.1401 H   0  0  0  0  0  0  0  0  0  0  0  0
   -7.5248    0.7756  -13.1331 H   0  0  0  0  0  0  0  0  0  0  0  0
   -9.9502    6.1792   -9.4073 H   0  0  0  0  0  0  0  0  0  0  0  0
  -10.8822    4.7324   -8.9599 H   0  0  0  0  0  0  0  0  0  0  0  0
   -9.9170    5.6048   -7.7494 H   0  0  0  0  0  0  0  0  0  0  0  0
   -7.8569    2.5139   -8.4920 H   0  0  0  0  0  0  0  0  0  0  0  0
   -9.6113    2.5267   -8.4654 H   0  0  0  0  0  0  0  0  0  0  0  0
   -8.7083    3.3779   -7.1926 H   0  0  0  0  0  0  0  0  0  0  0  0
   -6.5611    4.5638   -9.1623 H   0  0  0  0  0  0  0  0  0  0  0  0
   -7.4011    6.0772   -9.5643 H   0  0  0  0  0  0  0  0  0  0  0  0
   -7.3165    5.5000   -7.8843 H   0  0  0  0  0  0  0  0  0  0  0  0
   -6.4584    6.3998  -14.1307 H   0  0  0  0  0  0  0  0  0  0  0  0
  1  2  2  0  0  0  0
  1  3  1  0  0  0  0
  2 22  1  0  0  0  0
  3  4  2  0  0  0  0
  3 12  1  0  0  0  0
  4  6  1  0  0  0  0
  4 22  1  0  0  0  0
  5 19  1  0  0  0  0
  5 20  2  0  0  0  0
  5 21  1  0  0  0  0
  6  8  1  0  0  0  0
  7 11  1  0  0  0  0
  7 12  1  0  0  0  0
  8 18  1  0  0  0  0
  9 11  1  0  0  0  0
  9 19  1  0  0  0  0
 10 12  1  0  0  0  0
 10 19  1  0  0  0  0
 11 13  1  0  0  0  0
 12 18  1  0  0  0  0
 14 17  1  0  0  0  0
 15 17  1  0  0  0  0
 16 17  1  0  0  0  0
 17 21  1  0  0  0  0
  1 23  1  0  0  0  0
  2 24  1  0  0  0  0
  6 25  1  0  0  0  0
  6 26  1  0  0  0  0
  7 27  1  0  0  0  0
  7 28  1  0  0  0  0
  8 29  1  0  0  0  0
  8 30  1  0  0  0  0
  9 31  1  0  0  0  0
  9 32  1  0  0  0  0
 10 33  1  0  0  0  0
 10 34  1  0  0  0  0
 11 35  1  0  0  0  0
 13 36  1  0  0  0  0
 13 37  1  0  0  0  0
 13 38  1  0  0  0  0
 14 39  1  0  0  0  0
 14 40  1  0  0  0  0
 14 41  1  0  0  0  0
 15 42  1  0  0  0  0
 15 43  1  0  0  0  0
 15 44  1  0  0  0  0
 16 45  1  0  0  0  0
 16 46  1  0  0  0  0
 16 47  1  0  0  0  0
 18 48  1  0  0  0  0
M  END
> <id>
EN300-1076140

> <smiles>
CC1CN(CC2(C1)NCCC=3SC=CC32)C(=O)OC(C)(C)C

> <IUPAC Name>
tert-butyl 5-methyl-6',7'-dihydro-5'H-spiro[piperidine-3,4'-thieno[3,2-c]pyridine]-1-carboxylate

> <CAS>
1996331-93-1

> <URL>
https://www.enaminestore.com/catalog/EN300-1076140

> <ROCS_ShapeQuery>
_x0404_0B

> <ROCS_TanimotoCombo>
0.368 

> <ROCS_ShapeTanimoto>
0.338 

> <ROCS_ColorTanimoto>
0.030 

> <ROCS_RefTversky>
0.300 

> <ROCS_RefColorTversky>
0.033 

> <ROCS_RefTverskyCombo>
0.334 

> <ROCS_FitTversky>
1.584 

> <ROCS_FitColorTversky>
0.231 

> <ROCS_FitTverskyCombo>
1.815 

> <ROCS_ColorScore>
-2.417

> <ROCS_Overlap>
2003.381

> <ROCS_Rank>
413                 

$$$$
untitled-dbase-45842_254
  -OEChem-08212314543D

 43 44  0     1  0  0  0  0  0999 V2000
   -8.2874    5.1612  -15.1501 C   0  0  0  0  0  0  0  0  0  0  0  0
   -9.8107    4.2062   -8.3149 C   0  0  0  0  0  0  0  0  0  0  0  0
   -9.1775    4.7909   -9.5761 C   0  0  0  0  0  0  0  0  0  0  0  0
  -10.3535    3.3139  -11.2900 C   0  0  0  0  0  0  0  0  0  0  0  0
   -9.0495    2.9754   -7.8305 C   0  0  0  0  0  0  0  0  0  0  0  0
   -8.2386    2.5142  -10.0603 C   0  0  0  0  0  0  0  0  0  0  0  0
  -10.0721    2.5665  -12.5895 C   0  0  0  0  0  0  0  0  0  0  0  0
   -8.2003    4.3176  -11.8584 C   0  0  0  0  0  0  0  0  0  0  0  0
   -8.9910    3.7219  -10.6733 C   0  0  2  0  0  0  0  0  0  0  0  0
   -9.0553    6.5011  -17.1515 C   0  0  0  0  0  0  0  0  0  0  0  0
   -7.0286    5.5547  -18.2942 C   0  0  0  0  0  0  0  0  0  0  0  0
   -9.1968    4.2879  -18.3417 C   0  0  0  0  0  0  0  0  0  0  0  0
   -8.3058    5.2232  -17.5255 C   0  0  0  0  0  0  0  0  0  0  0  0
   -9.1406    4.3527  -14.3755 N   0  0  0  0  0  0  0  0  0  0  0  0
   -8.9245    1.9697   -8.8848 N   0  0  0  0  0  0  0  0  0  0  0  0
   -7.9249    6.2877  -14.8271 O   0  0  0  0  0  0  0  0  0  0  0  0
   -7.6210    2.3460  -13.4801 O   0  0  0  0  0  0  0  0  0  0  0  0
   -7.9219    4.5508  -16.3205 O   0  0  0  0  0  0  0  0  0  0  0  0
   -8.6437    3.3602  -13.3036 S   0  0  2  0  0  0  0  0  0  0  0  0
   -9.8329    4.9656   -7.5229 H   0  0  0  0  0  0  0  0  0  0  0  0
  -10.8533    3.9357   -8.5203 H   0  0  0  0  0  0  0  0  0  0  0  0
   -9.8235    5.5947   -9.9552 H   0  0  0  0  0  0  0  0  0  0  0  0
   -8.2190    5.2601   -9.3201 H   0  0  0  0  0  0  0  0  0  0  0  0
  -10.9393    4.2138  -11.5168 H   0  0  0  0  0  0  0  0  0  0  0  0
  -10.9517    2.7025  -10.6069 H   0  0  0  0  0  0  0  0  0  0  0  0
   -8.0474    3.2713   -7.5003 H   0  0  0  0  0  0  0  0  0  0  0  0
   -9.5493    2.5378   -6.9575 H   0  0  0  0  0  0  0  0  0  0  0  0
   -8.1230    1.7204  -10.8088 H   0  0  0  0  0  0  0  0  0  0  0  0
   -7.2250    2.7917   -9.7562 H   0  0  0  0  0  0  0  0  0  0  0  0
   -9.8244    1.5170  -12.4047 H   0  0  0  0  0  0  0  0  0  0  0  0
  -10.9161    2.6164  -13.2824 H   0  0  0  0  0  0  0  0  0  0  0  0
   -8.5068    5.3529  -12.0512 H   0  0  0  0  0  0  0  0  0  0  0  0
   -7.1136    4.2954  -11.7438 H   0  0  0  0  0  0  0  0  0  0  0  0
   -9.9728    6.2674  -16.5996 H   0  0  0  0  0  0  0  0  0  0  0  0
   -8.4391    7.1649  -16.5365 H   0  0  0  0  0  0  0  0  0  0  0  0
   -9.3654    7.0492  -18.0486 H   0  0  0  0  0  0  0  0  0  0  0  0
   -6.4875    4.6407  -18.5646 H   0  0  0  0  0  0  0  0  0  0  0  0
   -6.3440    6.1473  -17.6767 H   0  0  0  0  0  0  0  0  0  0  0  0
   -7.2422    6.1149  -19.2103 H   0  0  0  0  0  0  0  0  0  0  0  0
   -8.6594    3.3712  -18.6101 H   0  0  0  0  0  0  0  0  0  0  0  0
  -10.1011    4.0097  -17.7908 H   0  0  0  0  0  0  0  0  0  0  0  0
   -9.4950    4.7590  -19.2853 H   0  0  0  0  0  0  0  0  0  0  0  0
   -8.4131    1.1660   -8.5266 H   0  0  0  0  0  0  0  0  0  0  0  0
  1 14  1  0  0  0  0
  1 16  2  0  0  0  0
  1 18  1  0  0  0  0
  2  3  1  0  0  0  0
  2  5  1  0  0  0  0
  3  9  1  0  0  0  0
  4  7  1  0  0  0  0
  4  9  1  0  0  0  0
  5 15  1  0  0  0  0
  6  9  1  0  0  0  0
  6 15  1  0  0  0  0
  7 19  1  0  0  0  0
  8  9  1  0  0  0  0
  8 19  1  0  0  0  0
 10 13  1  0  0  0  0
 11 13  1  0  0  0  0
 12 13  1  0  0  0  0
 13 18  1  0  0  0  0
 14 19  2  0  0  0  0
 17 19  2  0  0  0  0
  2 20  1  0  0  0  0
  2 21  1  0  0  0  0
  3 22  1  0  0  0  0
  3 23  1  0  0  0  0
  4 24  1  0  0  0  0
  4 25  1  0  0  0  0
  5 26  1  0  0  0  0
  5 27  1  0  0  0  0
  6 28  1  0  0  0  0
  6 29  1  0  0  0  0
  7 30  1  0  0  0  0
  7 31  1  0  0  0  0
  8 32  1  0  0  0  0
  8 33  1  0  0  0  0
 10 34  1  0  0  0  0
 10 35  1  0  0  0  0
 10 36  1  0  0  0  0
 11 37  1  0  0  0  0
 11 38  1  0  0  0  0
 11 39  1  0  0  0  0
 12 40  1  0  0  0  0
 12 41  1  0  0  0  0
 12 42  1  0  0  0  0
 15 43  1  0  0  0  0
M  END
> <id>
EN300-28287727

> <smiles>
CC(C)(C)OC(=O)N=S1(=O)CCC2(C1)CCCNC2

> <IUPAC Name>
tert-butyl N-{2-oxo-2lambda6-thia-7-azaspiro[4.5]decan-2-ylidene}carbamate

> <CAS>
2680687-49-2

> <URL>
https://www.enaminestore.com/catalog/EN300-28287727

> <ROCS_ShapeQuery>
_x0404_0B

> <ROCS_TanimotoCombo>
0.368 

> <ROCS_ShapeTanimoto>
0.266 

> <ROCS_ColorTanimoto>
0.102 

> <ROCS_RefTversky>
0.245 

> <ROCS_RefColorTversky>
0.107 

> <ROCS_RefTverskyCombo>
0.352 

> <ROCS_FitTversky>
1.474 

> <ROCS_FitColorTversky>
0.677 

> <ROCS_FitTverskyCombo>
2.151 

> <ROCS_ColorScore>
-7.708

> <ROCS_Overlap>
1633.524

> <ROCS_Rank>
414                 

$$$$
untitled-dbase-9618_128
  -OEChem-08212314543D

 44 45  0     1  0  0  0  0  0999 V2000
   -8.6476    4.4724  -18.5905 C   0  0  0  0  0  0  0  0  0  0  0  0
   -7.4230    4.7816  -18.1494 C   0  0  0  0  0  0  0  0  0  0  0  0
   -8.6545    5.2677  -11.2561 C   0  0  0  0  0  0  0  0  0  0  0  0
   -9.8975    4.3304  -17.7846 C   0  0  0  0  0  0  0  0  0  0  0  0
   -6.9956    5.0389  -16.7426 C   0  0  0  0  0  0  0  0  0  0  0  0
  -10.1242    5.3797  -16.6995 C   0  0  0  0  0  0  0  0  0  0  0  0
   -9.5861    6.5363  -14.5570 C   0  0  0  0  0  0  0  0  0  0  0  0
   -8.6918    6.6414  -13.3188 C   0  0  0  0  0  0  0  0  0  0  0  0
   -8.1469    4.2263  -13.4980 C   0  0  0  0  0  0  0  0  0  0  0  0
   -9.0512    4.1178  -14.7210 C   0  0  1  0  0  0  0  0  0  0  0  0
   -9.1111    5.4274  -15.5386 C   0  0  1  0  0  0  0  0  0  0  0  0
  -10.6900    3.8362   -9.8422 C   0  0  0  0  0  0  0  0  0  0  0  0
   -8.8731    2.2057   -9.2508 C   0  0  0  0  0  0  0  0  0  0  0  0
   -8.7184    4.5879   -8.4702 C   0  0  0  0  0  0  0  0  0  0  0  0
   -9.1937    3.6604   -9.5876 C   0  0  0  0  0  0  0  0  0  0  0  0
   -8.5403    5.3517  -12.6480 N   0  0  0  0  0  0  0  0  0  0  0  0
   -8.8807    6.2268  -10.5203 O   0  0  0  0  0  0  0  0  0  0  0  0
   -7.8439    5.9011  -16.0071 O   0  0  0  0  0  0  0  0  0  0  0  0
   -8.4852    3.9916  -10.7875 O   0  0  0  0  0  0  0  0  0  0  0  0
   -8.6134    3.0837  -15.4842 F   0  0  0  0  0  0  0  0  0  0  0  0
   -8.7702    4.3436  -19.6683 H   0  0  0  0  0  0  0  0  0  0  0  0
   -6.6210    4.8286  -18.9022 H   0  0  0  0  0  0  0  0  0  0  0  0
  -10.7405    4.4080  -18.4877 H   0  0  0  0  0  0  0  0  0  0  0  0
   -9.9498    3.3147  -17.3742 H   0  0  0  0  0  0  0  0  0  0  0  0
   -7.0173    4.0676  -16.2049 H   0  0  0  0  0  0  0  0  0  0  0  0
   -5.9286    5.3549  -16.7019 H   0  0  0  0  0  0  0  0  0  0  0  0
  -10.1605    6.3692  -17.1922 H   0  0  0  0  0  0  0  0  0  0  0  0
  -11.1396    5.2440  -16.2850 H   0  0  0  0  0  0  0  0  0  0  0  0
  -10.6158    6.3310  -14.2388 H   0  0  0  0  0  0  0  0  0  0  0  0
   -9.5973    7.5124  -15.0522 H   0  0  0  0  0  0  0  0  0  0  0  0
   -7.6869    6.9835  -13.5958 H   0  0  0  0  0  0  0  0  0  0  0  0
   -9.1056    7.3863  -12.6302 H   0  0  0  0  0  0  0  0  0  0  0  0
   -8.1651    3.2802  -12.9509 H   0  0  0  0  0  0  0  0  0  0  0  0
   -7.1052    4.3867  -13.7975 H   0  0  0  0  0  0  0  0  0  0  0  0
  -10.0715    3.8461  -14.3763 H   0  0  0  0  0  0  0  0  0  0  0  0
  -10.9242    4.8790  -10.0843 H   0  0  0  0  0  0  0  0  0  0  0  0
  -11.0365    3.2020  -10.6647 H   0  0  0  0  0  0  0  0  0  0  0  0
  -11.2708    3.5889   -8.9462 H   0  0  0  0  0  0  0  0  0  0  0  0
   -7.8005    2.0749   -9.0674 H   0  0  0  0  0  0  0  0  0  0  0  0
   -9.1256    1.5462  -10.0891 H   0  0  0  0  0  0  0  0  0  0  0  0
   -9.4202    1.8660   -8.3655 H   0  0  0  0  0  0  0  0  0  0  0  0
   -7.6451    4.4620   -8.2874 H   0  0  0  0  0  0  0  0  0  0  0  0
   -8.9069    5.6391   -8.7112 H   0  0  0  0  0  0  0  0  0  0  0  0
   -9.2227    4.3511   -7.5264 H   0  0  0  0  0  0  0  0  0  0  0  0
  1  2  2  0  0  0  0
  1  4  1  0  0  0  0
  2  5  1  0  0  0  0
  3 16  1  0  0  0  0
  3 17  2  0  0  0  0
  3 19  1  0  0  0  0
  4  6  1  0  0  0  0
  5 18  1  0  0  0  0
  6 11  1  0  0  0  0
  7  8  1  0  0  0  0
  7 11  1  0  0  0  0
  8 16  1  0  0  0  0
  9 10  1  0  0  0  0
  9 16  1  0  0  0  0
 10 11  1  0  0  0  0
 10 20  1  0  0  0  0
 11 18  1  0  0  0  0
 12 15  1  0  0  0  0
 13 15  1  0  0  0  0
 14 15  1  0  0  0  0
 15 19  1  0  0  0  0
  1 21  1  0  0  0  0
  2 22  1  0  0  0  0
  4 23  1  0  0  0  0
  4 24  1  0  0  0  0
  5 25  1  0  0  0  0
  5 26  1  0  0  0  0
  6 27  1  0  0  0  0
  6 28  1  0  0  0  0
  7 29  1  0  0  0  0
  7 30  1  0  0  0  0
  8 31  1  0  0  0  0
  8 32  1  0  0  0  0
  9 33  1  0  0  0  0
  9 34  1  0  0  0  0
 10 35  1  0  0  0  0
 12 36  1  0  0  0  0
 12 37  1  0  0  0  0
 12 38  1  0  0  0  0
 13 39  1  0  0  0  0
 13 40  1  0  0  0  0
 13 41  1  0  0  0  0
 14 42  1  0  0  0  0
 14 43  1  0  0  0  0
 14 44  1  0  0  0  0
M  END
> <id>
EN300-330863

> <smiles>
CC(C)(C)OC(=O)N1CCC2(CCC=CCO2)C(F)C1

> <MDLNUMBER>
MFCD30488768

> <IUPAC Name>
tert-butyl 1-fluoro-7-oxa-3-azaspiro[5.6]dodec-9-ene-3-carboxylate

> <CAS>
2060035-95-0

> <URL>
https://www.enaminestore.com/catalog/EN300-330863

> <ROCS_ShapeQuery>
_x0404_0B

> <ROCS_TanimotoCombo>
0.368 

> <ROCS_ShapeTanimoto>
0.325 

> <ROCS_ColorTanimoto>
0.042 

> <ROCS_RefTversky>
0.289 

> <ROCS_RefColorTversky>
0.045 

> <ROCS_RefTverskyCombo>
0.334 

> <ROCS_FitTversky>
1.629 

> <ROCS_FitColorTversky>
0.382 

> <ROCS_FitTverskyCombo>
2.011 

> <ROCS_ColorScore>
-3.261

> <ROCS_Overlap>
1927.623

> <ROCS_Rank>
415                 

$$$$
untitled-dbase-36768_227
  -OEChem-08212314543D

 43 44  0     1  0  0  0  0  0999 V2000
   -7.6480    4.7256   -9.2020 C   0  0  0  0  0  0  0  0  0  0  0  0
   -8.3897    5.5930  -14.3177 C   0  0  0  0  0  0  0  0  0  0  0  0
   -7.8142    4.0882   -7.8431 C   0  0  0  0  0  0  0  0  0  0  0  0
   -8.9688    6.3194  -10.6658 C   0  0  0  0  0  0  0  0  0  0  0  0
   -9.0368    3.8048  -11.1059 C   0  0  0  0  0  0  0  0  0  0  0  0
   -8.2117    6.3858  -11.9906 C   0  0  0  0  0  0  0  0  0  0  0  0
   -9.5194    4.3106  -12.4643 C   0  0  0  0  0  0  0  0  0  0  0  0
   -8.9362    4.9147  -10.0355 C   0  0  0  0  0  0  0  0  0  0  0  0
   -6.6457    5.1979  -16.5506 C   0  0  0  0  0  0  0  0  0  0  0  0
   -7.9482    3.0894  -16.9589 C   0  0  0  0  0  0  0  0  0  0  0  0
   -9.1033    5.3163  -17.0805 C   0  0  0  0  0  0  0  0  0  0  0  0
  -10.5545    5.9321   -8.3383 C   0  0  0  0  0  0  0  0  0  0  0  0
   -8.0007    4.5086  -16.3974 C   0  0  0  0  0  0  0  0  0  0  0  0
   -8.6987    5.4142  -12.9650 N   0  0  0  0  0  0  0  0  0  0  0  0
  -10.0157    4.6907   -8.9716 N   0  0  2  0  0  0  0  0  0  0  0  0
   -6.5368    5.0637   -9.6067 O   0  0  0  0  0  0  0  0  0  0  0  0
   -8.2172    6.6906  -14.8452 O   0  0  0  0  0  0  0  0  0  0  0  0
  -10.0535    3.6938   -6.5089 O   0  0  0  0  0  0  0  0  0  0  0  0
   -9.4633    2.1685   -8.4377 O   0  0  0  0  0  0  0  0  0  0  0  0
   -8.3063    4.4093  -15.0017 O   0  0  0  0  0  0  0  0  0  0  0  0
   -9.4688    3.4773   -7.8150 S   0  0  0  0  0  0  0  0  0  0  0  0
   -7.1230    3.2502   -7.7462 H   0  0  0  0  0  0  0  0  0  0  0  0
   -7.6900    4.8238   -7.0488 H   0  0  0  0  0  0  0  0  0  0  0  0
   -8.5481    7.0620   -9.9790 H   0  0  0  0  0  0  0  0  0  0  0  0
  -10.0019    6.6262  -10.8612 H   0  0  0  0  0  0  0  0  0  0  0  0
   -9.7326    3.0241  -10.7771 H   0  0  0  0  0  0  0  0  0  0  0  0
   -8.0656    3.3089  -11.2317 H   0  0  0  0  0  0  0  0  0  0  0  0
   -8.2665    7.4136  -12.3871 H   0  0  0  0  0  0  0  0  0  0  0  0
   -7.1367    6.1843  -11.8369 H   0  0  0  0  0  0  0  0  0  0  0  0
   -9.4847    3.5124  -13.2191 H   0  0  0  0  0  0  0  0  0  0  0  0
  -10.5720    4.6173  -12.3889 H   0  0  0  0  0  0  0  0  0  0  0  0
   -6.6792    6.2169  -16.1487 H   0  0  0  0  0  0  0  0  0  0  0  0
   -5.8522    4.6468  -16.0353 H   0  0  0  0  0  0  0  0  0  0  0  0
   -6.3718    5.2914  -17.6077 H   0  0  0  0  0  0  0  0  0  0  0  0
   -8.9184    2.5910  -16.8510 H   0  0  0  0  0  0  0  0  0  0  0  0
   -7.2243    2.4781  -16.4079 H   0  0  0  0  0  0  0  0  0  0  0  0
   -7.6715    3.0839  -18.0181 H   0  0  0  0  0  0  0  0  0  0  0  0
  -10.0753    4.8221  -16.9708 H   0  0  0  0  0  0  0  0  0  0  0  0
   -9.1801    6.3261  -16.6646 H   0  0  0  0  0  0  0  0  0  0  0  0
   -8.9171    5.3965  -18.1576 H   0  0  0  0  0  0  0  0  0  0  0  0
  -11.3183    5.6628   -7.5939 H   0  0  0  0  0  0  0  0  0  0  0  0
   -9.7363    6.4760   -7.8437 H   0  0  0  0  0  0  0  0  0  0  0  0
  -11.0055    6.5718   -9.1112 H   0  0  0  0  0  0  0  0  0  0  0  0
  1  3  1  0  0  0  0
  1  8  1  0  0  0  0
  1 16  2  0  0  0  0
  2 14  1  0  0  0  0
  2 17  2  0  0  0  0
  2 20  1  0  0  0  0
  3 21  1  0  0  0  0
  4  6  1  0  0  0  0
  4  8  1  0  0  0  0
  5  7  1  0  0  0  0
  5  8  1  0  0  0  0
  6 14  1  0  0  0  0
  7 14  1  0  0  0  0
  8 15  1  0  0  0  0
  9 13  1  0  0  0  0
 10 13  1  0  0  0  0
 11 13  1  0  0  0  0
 12 15  1  0  0  0  0
 13 20  1  0  0  0  0
 15 21  1  0  0  0  0
 18 21  2  0  0  0  0
 19 21  2  0  0  0  0
  3 22  1  0  0  0  0
  3 23  1  0  0  0  0
  4 24  1  0  0  0  0
  4 25  1  0  0  0  0
  5 26  1  0  0  0  0
  5 27  1  0  0  0  0
  6 28  1  0  0  0  0
  6 29  1  0  0  0  0
  7 30  1  0  0  0  0
  7 31  1  0  0  0  0
  9 32  1  0  0  0  0
  9 33  1  0  0  0  0
  9 34  1  0  0  0  0
 10 35  1  0  0  0  0
 10 36  1  0  0  0  0
 10 37  1  0  0  0  0
 11 38  1  0  0  0  0
 11 39  1  0  0  0  0
 11 40  1  0  0  0  0
 12 41  1  0  0  0  0
 12 42  1  0  0  0  0
 12 43  1  0  0  0  0
M  END
> <id>
EN300-1122862

> <smiles>
CN1C2(CCN(CC2)C(=O)OC(C)(C)C)C(=O)CS1(=O)=O

> <IUPAC Name>
tert-butyl 1-methyl-2,2,4-trioxo-2lambda6-thia-1,8-diazaspiro[4.5]decane-8-carboxylate

> <CAS>
2137548-73-1

> <URL>
https://www.enaminestore.com/catalog/EN300-1122862

> <ROCS_ShapeQuery>
_x0404_0B

> <ROCS_TanimotoCombo>
0.368 

> <ROCS_ShapeTanimoto>
0.304 

> <ROCS_ColorTanimoto>
0.064 

> <ROCS_RefTversky>
0.275 

> <ROCS_RefColorTversky>
0.069 

> <ROCS_RefTverskyCombo>
0.344 

> <ROCS_FitTversky>
1.517 

> <ROCS_FitColorTversky>
0.475 

> <ROCS_FitTverskyCombo>
1.991 

> <ROCS_ColorScore>
-4.951

> <ROCS_Overlap>
1836.175

> <ROCS_Rank>
416                 

$$$$
untitled-dbase-30503_47
  -OEChem-08212314543D

 35 36  0     0  0  0  0  0  0999 V2000
   -8.1065    4.2392  -12.9022 C   0  0  0  0  0  0  0  0  0  0  0  0
   -8.3406    5.5932  -13.0793 C   0  0  0  0  0  0  0  0  0  0  0  0
   -7.6922    3.5345  -13.9989 C   0  0  0  0  0  0  0  0  0  0  0  0
   -7.7791    5.4567  -15.2477 C   0  0  0  0  0  0  0  0  0  0  0  0
   -9.1197    5.1445   -9.5139 C   0  0  0  0  0  0  0  0  0  0  0  0
   -8.3662    3.8235  -11.5023 C   0  0  0  0  0  0  0  0  0  0  0  0
   -8.7849    6.2126  -11.7888 C   0  0  0  0  0  0  0  0  0  0  0  0
   -7.5890    6.1183  -16.5711 C   0  0  0  0  0  0  0  0  0  0  0  0
   -8.9119    4.2824   -6.7975 C   0  0  0  0  0  0  0  0  0  0  0  0
   -9.7110    2.0538   -7.6366 C   0  0  0  0  0  0  0  0  0  0  0  0
   -7.5378    2.9979   -8.4698 C   0  0  0  0  0  0  0  0  0  0  0  0
   -8.9506    3.3297   -7.9915 C   0  0  0  0  0  0  0  0  0  0  0  0
   -8.1908    6.2504  -14.2364 N   0  0  0  0  0  0  0  0  0  0  0  0
   -7.5175    4.1259  -15.2011 N   0  0  0  0  0  0  0  0  0  0  0  0
   -8.7793    5.0756  -10.8545 N   0  0  0  0  0  0  0  0  0  0  0  0
   -8.9602    6.1404   -8.8119 O   0  0  0  0  0  0  0  0  0  0  0  0
   -7.4394    2.1951  -13.9109 O   0  0  0  0  0  0  0  0  0  0  0  0
   -9.6558    3.9687   -9.0616 O   0  0  0  0  0  0  0  0  0  0  0  0
   -9.1821    3.0990  -11.4235 H   0  0  0  0  0  0  0  0  0  0  0  0
   -7.4693    3.4464  -11.0020 H   0  0  0  0  0  0  0  0  0  0  0  0
   -8.0833    6.9733  -11.4349 H   0  0  0  0  0  0  0  0  0  0  0  0
   -9.7980    6.6191  -11.8551 H   0  0  0  0  0  0  0  0  0  0  0  0
   -6.5611    6.4883  -16.6686 H   0  0  0  0  0  0  0  0  0  0  0  0
   -7.7883    5.4226  -17.3963 H   0  0  0  0  0  0  0  0  0  0  0  0
   -8.2770    6.9645  -16.6956 H   0  0  0  0  0  0  0  0  0  0  0  0
   -8.3670    5.1995   -7.0482 H   0  0  0  0  0  0  0  0  0  0  0  0
   -9.9192    4.5558   -6.4669 H   0  0  0  0  0  0  0  0  0  0  0  0
   -8.3814    3.8289   -5.9524 H   0  0  0  0  0  0  0  0  0  0  0  0
   -9.7412    1.3673   -8.4905 H   0  0  0  0  0  0  0  0  0  0  0  0
  -10.7536    2.2783   -7.3840 H   0  0  0  0  0  0  0  0  0  0  0  0
   -9.2533    1.5332   -6.7893 H   0  0  0  0  0  0  0  0  0  0  0  0
   -7.5652    2.3146   -9.3262 H   0  0  0  0  0  0  0  0  0  0  0  0
   -6.9895    3.8988   -8.7639 H   0  0  0  0  0  0  0  0  0  0  0  0
   -6.9706    2.4861   -7.6839 H   0  0  0  0  0  0  0  0  0  0  0  0
   -7.1573    1.8536  -14.7726 H   0  0  0  0  0  0  0  0  0  0  0  0
  1  2  2  0  0  0  0
  1  3  1  0  0  0  0
  1  6  1  0  0  0  0
  2  7  1  0  0  0  0
  2 13  1  0  0  0  0
  3 14  2  0  0  0  0
  3 17  1  0  0  0  0
  4  8  1  0  0  0  0
  4 13  2  0  0  0  0
  4 14  1  0  0  0  0
  5 15  1  0  0  0  0
  5 16  2  0  0  0  0
  5 18  1  0  0  0  0
  6 15  1  0  0  0  0
  7 15  1  0  0  0  0
  9 12  1  0  0  0  0
 10 12  1  0  0  0  0
 11 12  1  0  0  0  0
 12 18  1  0  0  0  0
  6 19  1  0  0  0  0
  6 20  1  0  0  0  0
  7 21  1  0  0  0  0
  7 22  1  0  0  0  0
  8 23  1  0  0  0  0
  8 24  1  0  0  0  0
  8 25  1  0  0  0  0
  9 26  1  0  0  0  0
  9 27  1  0  0  0  0
  9 28  1  0  0  0  0
 10 29  1  0  0  0  0
 10 30  1  0  0  0  0
 10 31  1  0  0  0  0
 11 32  1  0  0  0  0
 11 33  1  0  0  0  0
 11 34  1  0  0  0  0
 17 35  1  0  0  0  0
M  END
> <id>
EN300-6869425

> <smiles>
CC=1N=C2CN(CC2=C(O)N1)C(=O)OC(C)(C)C

> <MDLNUMBER>
MFCD28621046

> <IUPAC Name>
tert-butyl 4-hydroxy-2-methyl-5H,6H,7H-pyrrolo[3,4-d]pyrimidine-6-carboxylate

> <CAS>
1073477-40-3

> <URL>
https://www.enaminestore.com/catalog/EN300-6869425

> <ROCS_ShapeQuery>
_x0404_0B

> <ROCS_TanimotoCombo>
0.367 

> <ROCS_ShapeTanimoto>
0.263 

> <ROCS_ColorTanimoto>
0.104 

> <ROCS_RefTversky>
0.244 

> <ROCS_RefColorTversky>
0.109 

> <ROCS_RefTverskyCombo>
0.353 

> <ROCS_FitTversky>
1.443 

> <ROCS_FitColorTversky>
0.690 

> <ROCS_FitTverskyCombo>
2.134 

> <ROCS_ColorScore>
-7.877

> <ROCS_Overlap>
1624.764

> <ROCS_Rank>
417                 

$$$$
untitled-dbase-42360_18
  -OEChem-08212314543D

 41 42  0     0  0  0  0  0  0999 V2000
   -8.3892    5.8809  -14.4480 C   0  0  0  0  0  0  0  0  0  0  0  0
   -9.2573    3.2101  -12.8909 C   0  0  0  0  0  0  0  0  0  0  0  0
   -7.2711    3.8203  -12.2209 C   0  0  0  0  0  0  0  0  0  0  0  0
   -9.3224    6.9168  -12.4172 C   0  0  0  0  0  0  0  0  0  0  0  0
   -8.7175    7.0937  -11.0307 C   0  0  0  0  0  0  0  0  0  0  0  0
   -9.2445    4.7661  -10.8632 C   0  0  0  0  0  0  0  0  0  0  0  0
   -8.6660    4.4921  -12.2579 C   0  0  0  0  0  0  0  0  0  0  0  0
   -7.8984    2.4841  -12.7013 C   0  0  0  0  0  0  0  0  0  0  0  0
   -6.3905    5.8677  -16.4999 C   0  0  0  0  0  0  0  0  0  0  0  0
   -6.9172    3.4230  -16.7344 C   0  0  0  0  0  0  0  0  0  0  0  0
   -8.6935    5.1356  -17.2034 C   0  0  0  0  0  0  0  0  0  0  0  0
   -7.9249    1.3818  -11.6495 C   0  0  0  0  0  0  0  0  0  0  0  0
   -7.4692    4.7953  -16.3547 C   0  0  0  0  0  0  0  0  0  0  0  0
   -8.7559    5.7480  -13.0961 N   0  0  0  0  0  0  0  0  0  0  0  0
   -8.5140    6.9181  -15.0980 O   0  0  0  0  0  0  0  0  0  0  0  0
   -8.5875    5.8879  -10.2799 O   0  0  0  0  0  0  0  0  0  0  0  0
   -7.3330    1.9540  -13.9206 O   0  0  0  0  0  0  0  0  0  0  0  0
   -7.8694    4.7345  -14.9809 O   0  0  0  0  0  0  0  0  0  0  0  0
   -8.8221    0.4406  -11.9858 F   0  0  0  0  0  0  0  0  0  0  0  0
   -6.7149    0.8075  -11.5484 F   0  0  0  0  0  0  0  0  0  0  0  0
   -8.2619    1.8903  -10.4528 F   0  0  0  0  0  0  0  0  0  0  0  0
  -10.1052    2.7706  -12.3561 H   0  0  0  0  0  0  0  0  0  0  0  0
   -9.5228    3.2665  -13.9515 H   0  0  0  0  0  0  0  0  0  0  0  0
   -6.5456    4.2282  -12.9367 H   0  0  0  0  0  0  0  0  0  0  0  0
   -6.7819    3.7788  -11.2416 H   0  0  0  0  0  0  0  0  0  0  0  0
  -10.4246    6.8597  -12.3388 H   0  0  0  0  0  0  0  0  0  0  0  0
   -9.1039    7.8016  -13.0466 H   0  0  0  0  0  0  0  0  0  0  0  0
   -7.7011    7.5335  -11.1230 H   0  0  0  0  0  0  0  0  0  0  0  0
   -9.3018    7.8296  -10.4311 H   0  0  0  0  0  0  0  0  0  0  0  0
  -10.3252    4.9532  -10.9107 H   0  0  0  0  0  0  0  0  0  0  0  0
   -9.0964    3.9170  -10.1910 H   0  0  0  0  0  0  0  0  0  0  0  0
   -6.7828    6.8543  -16.2283 H   0  0  0  0  0  0  0  0  0  0  0  0
   -5.5213    5.6535  -15.8694 H   0  0  0  0  0  0  0  0  0  0  0  0
   -6.0531    5.9448  -17.5398 H   0  0  0  0  0  0  0  0  0  0  0  0
   -7.6879    2.6504  -16.6317 H   0  0  0  0  0  0  0  0  0  0  0  0
   -6.0985    3.1330  -16.0658 H   0  0  0  0  0  0  0  0  0  0  0  0
   -6.5460    3.4076  -17.7641 H   0  0  0  0  0  0  0  0  0  0  0  0
   -9.4674    4.3665  -17.0995 H   0  0  0  0  0  0  0  0  0  0  0  0
   -9.1252    6.1009  -16.9197 H   0  0  0  0  0  0  0  0  0  0  0  0
   -8.4327    5.1700  -18.2674 H   0  0  0  0  0  0  0  0  0  0  0  0
   -6.5046    1.5373  -13.6574 H   0  0  0  0  0  0  0  0  0  0  0  0
  1 14  1  0  0  0  0
  1 15  2  0  0  0  0
  1 18  1  0  0  0  0
  2  7  1  0  0  0  0
  2  8  1  0  0  0  0
  3  7  1  0  0  0  0
  3  8  1  0  0  0  0
  4  5  1  0  0  0  0
  4 14  1  0  0  0  0
  5 16  1  0  0  0  0
  6  7  1  6  0  0  0
  6 16  1  0  0  0  0
  7 14  1  0  0  0  0
  8 12  1  0  0  0  0
  8 17  1  1  0  0  0
  9 13  1  0  0  0  0
 10 13  1  0  0  0  0
 11 13  1  0  0  0  0
 12 19  1  0  0  0  0
 12 20  1  0  0  0  0
 12 21  1  0  0  0  0
 13 18  1  0  0  0  0
  2 22  1  0  0  0  0
  2 23  1  0  0  0  0
  3 24  1  0  0  0  0
  3 25  1  0  0  0  0
  4 26  1  0  0  0  0
  4 27  1  0  0  0  0
  5 28  1  0  0  0  0
  5 29  1  0  0  0  0
  6 30  1  0  0  0  0
  6 31  1  0  0  0  0
  9 32  1  0  0  0  0
  9 33  1  0  0  0  0
  9 34  1  0  0  0  0
 10 35  1  0  0  0  0
 10 36  1  0  0  0  0
 10 37  1  0  0  0  0
 11 38  1  0  0  0  0
 11 39  1  0  0  0  0
 11 40  1  0  0  0  0
 17 41  1  0  0  0  0
M  END
> <id>
EN300-27718654

> <smiles>
CC(C)(C)OC(=O)N1CCOC[C@]21C[C@@](O)(C2)C(F)(F)F

> <IUPAC Name>
tert-butyl (2s,4s)-2-hydroxy-2-(trifluoromethyl)-8-oxa-5-azaspiro[3.5]nonane-5-carboxylate

> <CAS>
2580184-88-7

> <URL>
https://www.enaminestore.com/catalog/EN300-27718654

> <ROCS_ShapeQuery>
_x0404_0B

> <ROCS_TanimotoCombo>
0.367 

> <ROCS_ShapeTanimoto>
0.244 

> <ROCS_ColorTanimoto>
0.123 

> <ROCS_RefTversky>
0.233 

> <ROCS_RefColorTversky>
0.125 

> <ROCS_RefTverskyCombo>
0.358 

> <ROCS_FitTversky>
1.249 

> <ROCS_FitColorTversky>
0.866 

> <ROCS_FitTverskyCombo>
2.115 

> <ROCS_ColorScore>
-9.037

> <ROCS_Overlap>
1555.273

> <ROCS_Rank>
418                 

$$$$
untitled-dbase-45469_445
  -OEChem-08212314543D

 41 42  0     1  0  0  0  0  0999 V2000
   -8.5988    5.7992  -15.2578 C   0  0  0  0  0  0  0  0  0  0  0  0
   -8.2706    6.4109  -10.2817 C   0  0  0  0  0  0  0  0  0  0  0  0
   -9.2498    3.0481  -12.8014 C   0  0  0  0  0  0  0  0  0  0  0  0
   -8.9348    3.2869  -15.1705 C   0  0  0  0  0  0  0  0  0  0  0  0
   -9.6202    5.5570  -12.2757 C   0  0  0  0  0  0  0  0  0  0  0  0
   -7.5456    4.9785  -12.3365 C   0  0  0  0  0  0  0  0  0  0  0  0
   -8.7457    2.2999  -14.0309 C   0  0  1  0  0  0  0  0  0  0  0  0
   -8.8229    4.5003  -13.0569 C   0  0  0  0  0  0  0  0  0  0  0  0
   -8.4875    4.1270   -8.4539 C   0  0  0  0  0  0  0  0  0  0  0  0
   -6.2914    4.9288   -7.5353 C   0  0  0  0  0  0  0  0  0  0  0  0
   -8.3321    6.3803   -7.3434 C   0  0  0  0  0  0  0  0  0  0  0  0
   -8.5503    5.6624  -16.7598 C   0  0  0  0  0  0  0  0  0  0  0  0
   -7.6021    5.3460   -8.1989 C   0  0  0  0  0  0  0  0  0  0  0  0
   -8.7812    4.6146  -14.5510 N   0  0  0  0  0  0  0  0  0  0  0  0
   -8.4082    5.7994  -11.5058 N   0  0  0  0  0  0  0  0  0  0  0  0
   -8.4703    6.9098  -14.7405 O   0  0  0  0  0  0  0  0  0  0  0  0
   -9.0310    7.2946   -9.8868 O   0  0  0  0  0  0  0  0  0  0  0  0
   -7.3625    1.9980  -13.8907 O   0  0  0  0  0  0  0  0  0  0  0  0
   -7.2754    5.9461   -9.4626 O   0  0  0  0  0  0  0  0  0  0  0  0
   -8.6987    4.3757  -17.1207 F   0  0  0  0  0  0  0  0  0  0  0  0
   -9.5344    6.3781  -17.3319 F   0  0  0  0  0  0  0  0  0  0  0  0
   -7.3739    6.1030  -17.2394 F   0  0  0  0  0  0  0  0  0  0  0  0
  -10.3437    2.9839  -12.7618 H   0  0  0  0  0  0  0  0  0  0  0  0
   -8.8407    2.6533  -11.8666 H   0  0  0  0  0  0  0  0  0  0  0  0
   -8.2039    3.1579  -15.9733 H   0  0  0  0  0  0  0  0  0  0  0  0
   -9.9498    3.2393  -15.5788 H   0  0  0  0  0  0  0  0  0  0  0  0
   -9.9676    6.4297  -12.8335 H   0  0  0  0  0  0  0  0  0  0  0  0
  -10.4337    5.1772  -11.6502 H   0  0  0  0  0  0  0  0  0  0  0  0
   -7.0043    4.2229  -11.7583 H   0  0  0  0  0  0  0  0  0  0  0  0
   -6.8380    5.5603  -12.9349 H   0  0  0  0  0  0  0  0  0  0  0  0
   -9.2856    1.3632  -14.1942 H   0  0  0  0  0  0  0  0  0  0  0  0
   -9.4292    4.4223   -8.9302 H   0  0  0  0  0  0  0  0  0  0  0  0
   -7.9886    3.3931   -9.0952 H   0  0  0  0  0  0  0  0  0  0  0  0
   -8.7580    3.6363   -7.5120 H   0  0  0  0  0  0  0  0  0  0  0  0
   -5.6530    5.8003   -7.3505 H   0  0  0  0  0  0  0  0  0  0  0  0
   -5.7191    4.2597   -8.1880 H   0  0  0  0  0  0  0  0  0  0  0  0
   -6.4656    4.4183   -6.5826 H   0  0  0  0  0  0  0  0  0  0  0  0
   -7.6973    7.2547   -7.1604 H   0  0  0  0  0  0  0  0  0  0  0  0
   -9.2570    6.7188   -7.8216 H   0  0  0  0  0  0  0  0  0  0  0  0
   -8.5801    5.9668   -6.3592 H   0  0  0  0  0  0  0  0  0  0  0  0
   -7.0972    1.5255  -14.6959 H   0  0  0  0  0  0  0  0  0  0  0  0
  1 12  1  0  0  0  0
  1 14  1  0  0  0  0
  1 16  2  0  0  0  0
  2 15  1  0  0  0  0
  2 17  2  0  0  0  0
  2 19  1  0  0  0  0
  3  7  1  0  0  0  0
  3  8  1  0  0  0  0
  4  7  1  0  0  0  0
  4 14  1  0  0  0  0
  5  8  1  0  0  0  0
  5 15  1  0  0  0  0
  6  8  1  0  0  0  0
  6 15  1  0  0  0  0
  7 18  1  0  0  0  0
  8 14  1  0  0  0  0
  9 13  1  0  0  0  0
 10 13  1  0  0  0  0
 11 13  1  0  0  0  0
 12 20  1  0  0  0  0
 12 21  1  0  0  0  0
 12 22  1  0  0  0  0
 13 19  1  0  0  0  0
  3 23  1  0  0  0  0
  3 24  1  0  0  0  0
  4 25  1  0  0  0  0
  4 26  1  0  0  0  0
  5 27  1  0  0  0  0
  5 28  1  0  0  0  0
  6 29  1  0  0  0  0
  6 30  1  0  0  0  0
  7 31  1  0  0  0  0
  9 32  1  0  0  0  0
  9 33  1  0  0  0  0
  9 34  1  0  0  0  0
 10 35  1  0  0  0  0
 10 36  1  0  0  0  0
 10 37  1  0  0  0  0
 11 38  1  0  0  0  0
 11 39  1  0  0  0  0
 11 40  1  0  0  0  0
 18 41  1  0  0  0  0
M  END
> <id>
EN300-28308872

> <smiles>
CC(C)(C)OC(=O)N1CC2(C1)CC(O)CN2C(=O)C(F)(F)F

> <IUPAC Name>
tert-butyl 7-hydroxy-5-(2,2,2-trifluoroacetyl)-2,5-diazaspiro[3.4]octane-2-carboxylate

> <CAS>
2680561-06-0

> <URL>
https://www.enaminestore.com/catalog/EN300-28308872

> <ROCS_ShapeQuery>
_x0404_0B

> <ROCS_TanimotoCombo>
0.367 

> <ROCS_ShapeTanimoto>
0.265 

> <ROCS_ColorTanimoto>
0.102 

> <ROCS_RefTversky>
0.250 

> <ROCS_RefColorTversky>
0.106 

> <ROCS_RefTverskyCombo>
0.356 

> <ROCS_FitTversky>
1.288 

> <ROCS_FitColorTversky>
0.734 

> <ROCS_FitTverskyCombo>
2.022 

> <ROCS_ColorScore>
-7.666

> <ROCS_Overlap>
1669.545

> <ROCS_Rank>
419                 

$$$$
untitled-dbase-30603_23
  -OEChem-08212314543D

 41 42  0     1  0  0  0  0  0999 V2000
   -8.5444    5.4538  -14.2956 C   0  0  0  0  0  0  0  0  0  0  0  0
   -8.9487    3.1408  -11.5224 C   0  0  0  0  0  0  0  0  0  0  0  0
   -8.8319    4.6109   -7.9209 C   0  0  0  0  0  0  0  0  0  0  0  0
   -9.5197    3.7139  -12.8194 C   0  0  0  0  0  0  0  0  0  0  0  0
   -9.2740    6.0264  -11.9451 C   0  0  0  0  0  0  0  0  0  0  0  0
   -8.3646    5.9930   -8.3567 C   0  0  0  0  0  0  0  0  0  0  0  0
   -9.2105    4.0847  -10.3423 C   0  0  2  0  0  0  0  0  0  0  0  0
   -8.6665    5.4871  -10.6516 C   0  0  2  0  0  0  0  0  0  0  0  0
   -8.6083    3.5779   -9.0261 C   0  0  2  0  0  0  0  0  0  0  0  0
   -7.5074    5.6925  -16.9527 C   0  0  0  0  0  0  0  0  0  0  0  0
   -8.6077    3.4757  -17.3823 C   0  0  0  0  0  0  0  0  0  0  0  0
  -10.0070    5.4673  -16.7630 C   0  0  0  0  0  0  0  0  0  0  0  0
   -8.6622    4.7679  -16.5702 C   0  0  0  0  0  0  0  0  0  0  0  0
   -9.0664    5.0862  -13.0512 N   0  0  0  0  0  0  0  0  0  0  0  0
   -8.1423    6.5826  -14.5723 O   0  0  0  0  0  0  0  0  0  0  0  0
   -8.9866    6.3820   -9.5829 O   0  0  0  0  0  0  0  0  0  0  0  0
   -9.2231    2.3487   -8.6577 O   0  0  0  0  0  0  0  0  0  0  0  0
   -8.5255    4.4153  -15.1888 O   0  0  0  0  0  0  0  0  0  0  0  0
   -9.4051    2.1618  -11.3391 H   0  0  0  0  0  0  0  0  0  0  0  0
   -7.8703    2.9760  -11.6404 H   0  0  0  0  0  0  0  0  0  0  0  0
   -8.3223    4.3017   -7.0013 H   0  0  0  0  0  0  0  0  0  0  0  0
   -9.9027    4.6473   -7.6807 H   0  0  0  0  0  0  0  0  0  0  0  0
   -9.2480    3.0688  -13.6609 H   0  0  0  0  0  0  0  0  0  0  0  0
  -10.6148    3.7428  -12.7702 H   0  0  0  0  0  0  0  0  0  0  0  0
  -10.3558    6.1730  -11.8337 H   0  0  0  0  0  0  0  0  0  0  0  0
   -8.8561    7.0136  -12.1647 H   0  0  0  0  0  0  0  0  0  0  0  0
   -8.6339    6.7337   -7.5972 H   0  0  0  0  0  0  0  0  0  0  0  0
   -7.2752    6.0242   -8.4761 H   0  0  0  0  0  0  0  0  0  0  0  0
  -10.3000    4.1469  -10.2018 H   0  0  0  0  0  0  0  0  0  0  0  0
   -7.5737    5.4597  -10.7666 H   0  0  0  0  0  0  0  0  0  0  0  0
   -7.5328    3.3957   -9.1471 H   0  0  0  0  0  0  0  0  0  0  0  0
   -7.5430    6.6211  -16.3719 H   0  0  0  0  0  0  0  0  0  0  0  0
   -6.5363    5.2151  -16.7860 H   0  0  0  0  0  0  0  0  0  0  0  0
   -7.5730    5.9846  -18.0070 H   0  0  0  0  0  0  0  0  0  0  0  0
   -9.4344    2.8093  -17.1112 H   0  0  0  0  0  0  0  0  0  0  0  0
   -7.6845    2.9227  -17.1744 H   0  0  0  0  0  0  0  0  0  0  0  0
   -8.6593    3.6722  -18.4581 H   0  0  0  0  0  0  0  0  0  0  0  0
  -10.8355    4.8043  -16.4887 H   0  0  0  0  0  0  0  0  0  0  0  0
  -10.0784    6.3776  -16.1589 H   0  0  0  0  0  0  0  0  0  0  0  0
  -10.1600    5.7345  -17.8149 H   0  0  0  0  0  0  0  0  0  0  0  0
   -8.8041    2.0650   -7.8297 H   0  0  0  0  0  0  0  0  0  0  0  0
  1 14  1  0  0  0  0
  1 15  2  0  0  0  0
  1 18  1  0  0  0  0
  2  4  1  0  0  0  0
  2  7  1  0  0  0  0
  3  6  1  0  0  0  0
  3  9  1  0  0  0  0
  4 14  1  0  0  0  0
  5  8  1  0  0  0  0
  5 14  1  0  0  0  0
  6 16  1  0  0  0  0
  7  8  1  0  0  0  0
  7  9  1  0  0  0  0
  8 16  1  0  0  0  0
  9 17  1  0  0  0  0
 10 13  1  0  0  0  0
 11 13  1  0  0  0  0
 12 13  1  0  0  0  0
 13 18  1  0  0  0  0
  2 19  1  0  0  0  0
  2 20  1  0  0  0  0
  3 21  1  0  0  0  0
  3 22  1  0  0  0  0
  4 23  1  0  0  0  0
  4 24  1  0  0  0  0
  5 25  1  0  0  0  0
  5 26  1  0  0  0  0
  6 27  1  0  0  0  0
  6 28  1  0  0  0  0
  7 29  1  0  0  0  0
  8 30  1  0  0  0  0
  9 31  1  0  0  0  0
 10 32  1  0  0  0  0
 10 33  1  0  0  0  0
 10 34  1  0  0  0  0
 11 35  1  0  0  0  0
 11 36  1  0  0  0  0
 11 37  1  0  0  0  0
 12 38  1  0  0  0  0
 12 39  1  0  0  0  0
 12 40  1  0  0  0  0
 17 41  1  0  0  0  0
M  END
> <id>
EN300-26666145

> <smiles>
CC(C)(C)OC(=O)N1CCC2C(O)CCOC2C1

> <IUPAC Name>
tert-butyl 4-hydroxy-octahydro-2H-pyrano[2,3-c]pyridine-7-carboxylate

> <CAS>
2413867-41-9

> <URL>
https://www.enaminestore.com/catalog/EN300-26666145

> <ROCS_ShapeQuery>
_x0404_0B

> <ROCS_TanimotoCombo>
0.367 

> <ROCS_ShapeTanimoto>
0.294 

> <ROCS_ColorTanimoto>
0.073 

> <ROCS_RefTversky>
0.264 

> <ROCS_RefColorTversky>
0.078 

> <ROCS_RefTverskyCombo>
0.343 

> <ROCS_FitTversky>
1.609 

> <ROCS_FitColorTversky>
0.542 

> <ROCS_FitTverskyCombo>
2.151 

> <ROCS_ColorScore>
-5.650

> <ROCS_Overlap>
1761.794

> <ROCS_Rank>
420                 

$$$$
untitled-dbase-30470_19
  -OEChem-08212314543D

 36 37  0     0  0  0  0  0  0999 V2000
   -7.4555    3.9929  -15.4147 C   0  0  0  0  0  0  0  0  0  0  0  0
   -7.6902    5.3310  -15.6732 C   0  0  0  0  0  0  0  0  0  0  0  0
   -8.1010    4.4167  -13.1260 C   0  0  0  0  0  0  0  0  0  0  0  0
   -7.6664    3.5354  -14.1197 C   0  0  0  0  0  0  0  0  0  0  0  0
   -8.3200    5.7471  -13.4905 C   0  0  0  0  0  0  0  0  0  0  0  0
   -8.5339    4.8423   -9.3929 C   0  0  0  0  0  0  0  0  0  0  0  0
   -8.3365    3.9188  -11.7265 C   0  0  0  0  0  0  0  0  0  0  0  0
   -8.7651    6.7484  -12.4603 C   0  0  0  0  0  0  0  0  0  0  0  0
   -9.5061    6.0821  -11.3081 C   0  0  0  0  0  0  0  0  0  0  0  0
  -10.1866    3.0494   -8.4246 C   0  0  0  0  0  0  0  0  0  0  0  0
   -8.3288    1.3607   -8.5029 C   0  0  0  0  0  0  0  0  0  0  0  0
   -8.3257    3.1423   -6.7325 C   0  0  0  0  0  0  0  0  0  0  0  0
   -8.6989    2.8058   -8.1755 C   0  0  0  0  0  0  0  0  0  0  0  0
   -8.1131    6.2176  -14.7455 N   0  0  0  0  0  0  0  0  0  0  0  0
   -8.7317    4.9637  -10.7732 N   0  0  0  0  0  0  0  0  0  0  0  0
   -8.8522    5.6963   -8.5676 O   0  0  0  0  0  0  0  0  0  0  0  0
   -7.4425    2.2201  -13.8405 O   0  0  0  0  0  0  0  0  0  0  0  0
   -7.9456    3.6529   -9.0507 O   0  0  0  0  0  0  0  0  0  0  0  0
   -7.1185    3.3269  -16.2014 H   0  0  0  0  0  0  0  0  0  0  0  0
   -7.5393    5.7398  -16.6668 H   0  0  0  0  0  0  0  0  0  0  0  0
   -9.1086    3.1418  -11.7439 H   0  0  0  0  0  0  0  0  0  0  0  0
   -7.4118    3.4774  -11.3360 H   0  0  0  0  0  0  0  0  0  0  0  0
   -7.8940    7.2864  -12.0684 H   0  0  0  0  0  0  0  0  0  0  0  0
   -9.4160    7.4829  -12.9493 H   0  0  0  0  0  0  0  0  0  0  0  0
   -9.6596    6.7891  -10.4831 H   0  0  0  0  0  0  0  0  0  0  0  0
  -10.4941    5.7491  -11.6418 H   0  0  0  0  0  0  0  0  0  0  0  0
  -10.4563    4.0856   -8.1908 H   0  0  0  0  0  0  0  0  0  0  0  0
  -10.4602    2.8452   -9.4649 H   0  0  0  0  0  0  0  0  0  0  0  0
  -10.8008    2.4160   -7.7744 H   0  0  0  0  0  0  0  0  0  0  0  0
   -7.2622    1.1814   -8.3256 H   0  0  0  0  0  0  0  0  0  0  0  0
   -8.5066    1.1427   -9.5622 H   0  0  0  0  0  0  0  0  0  0  0  0
   -8.9045    0.6500   -7.9012 H   0  0  0  0  0  0  0  0  0  0  0  0
   -7.2586    2.9676   -6.5536 H   0  0  0  0  0  0  0  0  0  0  0  0
   -8.5503    4.1863   -6.4909 H   0  0  0  0  0  0  0  0  0  0  0  0
   -8.8666    2.4981   -6.0298 H   0  0  0  0  0  0  0  0  0  0  0  0
   -7.1471    1.7546  -14.6383 H   0  0  0  0  0  0  0  0  0  0  0  0
  1  2  2  0  0  0  0
  1  4  1  0  0  0  0
  2 14  1  0  0  0  0
  3  4  2  0  0  0  0
  3  5  1  0  0  0  0
  3  7  1  0  0  0  0
  4 17  1  0  0  0  0
  5  8  1  0  0  0  0
  5 14  2  0  0  0  0
  6 15  1  0  0  0  0
  6 16  2  0  0  0  0
  6 18  1  0  0  0  0
  7 15  1  0  0  0  0
  8  9  1  0  0  0  0
  9 15  1  0  0  0  0
 10 13  1  0  0  0  0
 11 13  1  0  0  0  0
 12 13  1  0  0  0  0
 13 18  1  0  0  0  0
  1 19  1  0  0  0  0
  2 20  1  0  0  0  0
  7 21  1  0  0  0  0
  7 22  1  0  0  0  0
  8 23  1  0  0  0  0
  8 24  1  0  0  0  0
  9 25  1  0  0  0  0
  9 26  1  0  0  0  0
 10 27  1  0  0  0  0
 10 28  1  0  0  0  0
 10 29  1  0  0  0  0
 11 30  1  0  0  0  0
 11 31  1  0  0  0  0
 11 32  1  0  0  0  0
 12 33  1  0  0  0  0
 12 34  1  0  0  0  0
 12 35  1  0  0  0  0
 17 36  1  0  0  0  0
M  END
> <id>
EN300-6717362

> <smiles>
CC(C)(C)OC(=O)N1CCC=2N=CC=C(O)C2C1

> <MDLNUMBER>
MFCD28133553

> <IUPAC Name>
tert-butyl 4-hydroxy-5,6,7,8-tetrahydro-1,6-naphthyridine-6-carboxylate

> <CAS>
1823566-38-6

> <URL>
https://www.enaminestore.com/catalog/EN300-6717362

> <ROCS_ShapeQuery>
_x0404_0B

> <ROCS_TanimotoCombo>
0.367 

> <ROCS_ShapeTanimoto>
0.254 

> <ROCS_ColorTanimoto>
0.113 

> <ROCS_RefTversky>
0.236 

> <ROCS_RefColorTversky>
0.116 

> <ROCS_RefTverskyCombo>
0.353 

> <ROCS_FitTversky>
1.413 

> <ROCS_FitColorTversky>
0.805 

> <ROCS_FitTverskyCombo>
2.218 

> <ROCS_ColorScore>
-8.398

> <ROCS_Overlap>
1576.077

> <ROCS_Rank>
421                 

$$$$
untitled-dbase-45502_166
  -OEChem-08212314543D

 43 44  0     1  0  0  0  0  0999 V2000
   -8.0162    4.5803  -15.0145 C   0  0  0  0  0  0  0  0  0  0  0  0
   -9.1815    2.9614  -10.9014 C   0  0  0  0  0  0  0  0  0  0  0  0
   -7.7331    4.1009   -9.2111 C   0  0  0  0  0  0  0  0  0  0  0  0
   -9.5772    5.4444  -10.3492 C   0  0  0  0  0  0  0  0  0  0  0  0
   -9.9596    2.3274   -9.7464 C   0  0  0  0  0  0  0  0  0  0  0  0
   -8.5670    3.4407   -8.1128 C   0  0  0  0  0  0  0  0  0  0  0  0
  -10.0520    5.8387  -11.7436 C   0  0  0  0  0  0  0  0  0  0  0  0
   -7.5957    4.8120  -11.6356 C   0  0  0  0  0  0  0  0  0  0  0  0
   -8.5325    4.3121  -10.5134 C   0  0  0  0  0  0  0  0  0  0  0  0
   -6.7818    5.1596  -17.5275 C   0  0  0  0  0  0  0  0  0  0  0  0
   -9.0803    4.9022  -18.5072 C   0  0  0  0  0  0  0  0  0  0  0  0
   -8.6332    6.7132  -16.8254 C   0  0  0  0  0  0  0  0  0  0  0  0
   -8.2813    5.2930  -17.2658 C   0  0  0  0  0  0  0  0  0  0  0  0
   -8.9284    4.8710  -13.9826 N   0  0  0  0  0  0  0  0  0  0  0  0
   -9.1221    2.1648   -8.5599 N   0  0  0  0  0  0  0  0  0  0  0  0
   -6.8003    4.5224  -14.8633 O   0  0  0  0  0  0  0  0  0  0  0  0
   -8.0419    7.1057  -12.8180 O   0  0  0  0  0  0  0  0  0  0  0  0
   -8.6432    4.3874  -16.2169 O   0  0  0  0  0  0  0  0  0  0  0  0
   -8.5967    5.7653  -12.7702 S   0  0  1  0  0  0  0  0  0  0  0  0
   -8.4167    2.2561  -11.2509 H   0  0  0  0  0  0  0  0  0  0  0  0
   -9.8640    3.1164  -11.7490 H   0  0  0  0  0  0  0  0  0  0  0  0
   -7.3790    5.0727   -8.8420 H   0  0  0  0  0  0  0  0  0  0  0  0
   -6.8380    3.4944   -9.3824 H   0  0  0  0  0  0  0  0  0  0  0  0
   -9.1739    6.3086   -9.8128 H   0  0  0  0  0  0  0  0  0  0  0  0
  -10.4339    5.0743   -9.7725 H   0  0  0  0  0  0  0  0  0  0  0  0
  -10.8120    2.9689   -9.4902 H   0  0  0  0  0  0  0  0  0  0  0  0
  -10.3818    1.3593  -10.0458 H   0  0  0  0  0  0  0  0  0  0  0  0
   -7.9757    3.2924   -7.2043 H   0  0  0  0  0  0  0  0  0  0  0  0
   -9.3924    4.1049   -7.8387 H   0  0  0  0  0  0  0  0  0  0  0  0
  -10.8164    5.1598  -12.1250 H   0  0  0  0  0  0  0  0  0  0  0  0
  -10.4339    6.8620  -11.7643 H   0  0  0  0  0  0  0  0  0  0  0  0
   -6.7698    5.4379  -11.2820 H   0  0  0  0  0  0  0  0  0  0  0  0
   -7.1744    3.9693  -12.1996 H   0  0  0  0  0  0  0  0  0  0  0  0
   -6.2047    5.4392  -16.6388 H   0  0  0  0  0  0  0  0  0  0  0  0
   -6.5111    4.1370  -17.8102 H   0  0  0  0  0  0  0  0  0  0  0  0
   -6.4629    5.8361  -18.3286 H   0  0  0  0  0  0  0  0  0  0  0  0
  -10.1567    4.9964  -18.3240 H   0  0  0  0  0  0  0  0  0  0  0  0
   -8.9028    3.8534  -18.7713 H   0  0  0  0  0  0  0  0  0  0  0  0
   -8.8193    5.5255  -19.3685 H   0  0  0  0  0  0  0  0  0  0  0  0
   -9.7087    6.8092  -16.6377 H   0  0  0  0  0  0  0  0  0  0  0  0
   -8.0967    6.9976  -15.9145 H   0  0  0  0  0  0  0  0  0  0  0  0
   -8.3909    7.4365  -17.6125 H   0  0  0  0  0  0  0  0  0  0  0  0
   -9.6878    1.7693   -7.8079 H   0  0  0  0  0  0  0  0  0  0  0  0
  1 14  1  0  0  0  0
  1 16  2  0  0  0  0
  1 18  1  0  0  0  0
  2  5  1  0  0  0  0
  2  9  1  0  0  0  0
  3  6  1  0  0  0  0
  3  9  1  0  0  0  0
  4  7  1  0  0  0  0
  4  9  1  0  0  0  0
  5 15  1  0  0  0  0
  6 15  1  0  0  0  0
  7 19  1  0  0  0  0
  8  9  1  0  0  0  0
  8 19  1  0  0  0  0
 10 13  1  0  0  0  0
 11 13  1  0  0  0  0
 12 13  1  0  0  0  0
 13 18  1  0  0  0  0
 14 19  2  0  0  0  0
 17 19  2  0  0  0  0
  2 20  1  0  0  0  0
  2 21  1  0  0  0  0
  3 22  1  0  0  0  0
  3 23  1  0  0  0  0
  4 24  1  0  0  0  0
  4 25  1  0  0  0  0
  5 26  1  0  0  0  0
  5 27  1  0  0  0  0
  6 28  1  0  0  0  0
  6 29  1  0  0  0  0
  7 30  1  0  0  0  0
  7 31  1  0  0  0  0
  8 32  1  0  0  0  0
  8 33  1  0  0  0  0
 10 34  1  0  0  0  0
 10 35  1  0  0  0  0
 10 36  1  0  0  0  0
 11 37  1  0  0  0  0
 11 38  1  0  0  0  0
 11 39  1  0  0  0  0
 12 40  1  0  0  0  0
 12 41  1  0  0  0  0
 12 42  1  0  0  0  0
 15 43  1  0  0  0  0
M  END
> <id>
EN300-28287725

> <smiles>
CC(C)(C)OC(=O)N=S1(=O)CCC2(C1)CCNCC2

> <IUPAC Name>
tert-butyl N-{2-oxo-2lambda6-thia-8-azaspiro[4.5]decan-2-ylidene}carbamate

> <CAS>
2680831-60-9

> <URL>
https://www.enaminestore.com/catalog/EN300-28287725

> <ROCS_ShapeQuery>
_x0404_0B

> <ROCS_TanimotoCombo>
0.367 

> <ROCS_ShapeTanimoto>
0.293 

> <ROCS_ColorTanimoto>
0.074 

> <ROCS_RefTversky>
0.265 

> <ROCS_RefColorTversky>
0.079 

> <ROCS_RefTverskyCombo>
0.344 

> <ROCS_FitTversky>
1.591 

> <ROCS_FitColorTversky>
0.504 

> <ROCS_FitTverskyCombo>
2.095 

> <ROCS_ColorScore>
-5.732

> <ROCS_Overlap>
1763.602

> <ROCS_Rank>
422                 

$$$$
untitled-dbase-2833_179
  -OEChem-08212314543D

 40 40  0     0  0  0  0  0  0999 V2000
   -8.7358    4.9141   -8.8066 C   0  0  0  0  0  0  0  0  0  0  0  0
   -8.5513    5.5294  -14.3653 C   0  0  0  0  0  0  0  0  0  0  0  0
   -8.7736    6.4138  -10.7711 C   0  0  0  0  0  0  0  0  0  0  0  0
   -7.8092    4.1675  -11.0546 C   0  0  0  0  0  0  0  0  0  0  0  0
   -9.4497    6.3034  -12.1353 C   0  0  0  0  0  0  0  0  0  0  0  0
   -8.5037    4.0173  -12.4006 C   0  0  0  0  0  0  0  0  0  0  0  0
   -6.9403    5.1335  -16.6977 C   0  0  0  0  0  0  0  0  0  0  0  0
   -8.3395    3.0847  -17.0898 C   0  0  0  0  0  0  0  0  0  0  0  0
   -9.4159    5.3539  -17.0945 C   0  0  0  0  0  0  0  0  0  0  0  0
   -8.0878    3.4360   -6.9136 C   0  0  0  0  0  0  0  0  0  0  0  0
   -8.3102    4.4891  -16.4908 C   0  0  0  0  0  0  0  0  0  0  0  0
   -8.5442    5.0940  -10.1853 N   0  0  0  0  0  0  0  0  0  0  0  0
   -8.7854    5.3224  -13.0015 N   0  0  0  0  0  0  0  0  0  0  0  0
   -9.1378    2.5318   -8.8919 N   0  0  0  0  0  0  0  0  0  0  0  0
   -8.5277    3.6336   -8.2860 N   0  0  0  0  0  0  0  0  0  0  0  0
   -9.0944    5.8487   -8.0779 O   0  0  0  0  0  0  0  0  0  0  0  0
   -8.3653    6.6323  -14.8767 O   0  0  0  0  0  0  0  0  0  0  0  0
   -8.5468    4.3631  -15.0839 O   0  0  0  0  0  0  0  0  0  0  0  0
   -7.8351    6.9539  -10.9152 H   0  0  0  0  0  0  0  0  0  0  0  0
   -9.4053    6.9797  -10.0774 H   0  0  0  0  0  0  0  0  0  0  0  0
   -7.7760    3.2039  -10.5375 H   0  0  0  0  0  0  0  0  0  0  0  0
   -6.7791    4.4998  -11.1959 H   0  0  0  0  0  0  0  0  0  0  0  0
  -10.5073    6.0613  -12.0001 H   0  0  0  0  0  0  0  0  0  0  0  0
   -9.4017    7.2662  -12.6584 H   0  0  0  0  0  0  0  0  0  0  0  0
   -7.8652    3.4670  -13.1035 H   0  0  0  0  0  0  0  0  0  0  0  0
   -9.4283    3.4416  -12.2813 H   0  0  0  0  0  0  0  0  0  0  0  0
   -6.9152    6.1418  -16.2691 H   0  0  0  0  0  0  0  0  0  0  0  0
   -6.1423    4.5407  -16.2389 H   0  0  0  0  0  0  0  0  0  0  0  0
   -6.7181    5.2458  -17.7650 H   0  0  0  0  0  0  0  0  0  0  0  0
   -9.3206    2.6185  -16.9437 H   0  0  0  0  0  0  0  0  0  0  0  0
   -7.6112    2.4333  -16.5932 H   0  0  0  0  0  0  0  0  0  0  0  0
   -8.1182    3.0980  -18.1619 H   0  0  0  0  0  0  0  0  0  0  0  0
  -10.3987    4.8919  -16.9463 H   0  0  0  0  0  0  0  0  0  0  0  0
   -9.4337    6.3542  -16.6499 H   0  0  0  0  0  0  0  0  0  0  0  0
   -9.2827    5.4566  -18.1776 H   0  0  0  0  0  0  0  0  0  0  0  0
   -8.9651    3.3524   -6.2553 H   0  0  0  0  0  0  0  0  0  0  0  0
   -7.4918    2.5138   -6.8489 H   0  0  0  0  0  0  0  0  0  0  0  0
   -7.4736    4.2925   -6.5987 H   0  0  0  0  0  0  0  0  0  0  0  0
   -9.3499    1.8591   -8.1560 H   0  0  0  0  0  0  0  0  0  0  0  0
  -10.0334    2.8479   -9.2616 H   0  0  0  0  0  0  0  0  0  0  0  0
  1 12  1  0  0  0  0
  1 15  1  0  0  0  0
  1 16  2  0  0  0  0
  2 13  1  0  0  0  0
  2 17  2  0  0  0  0
  2 18  1  0  0  0  0
  3  5  1  0  0  0  0
  3 12  1  0  0  0  0
  4  6  1  0  0  0  0
  4 12  1  0  0  0  0
  5 13  1  0  0  0  0
  6 13  1  0  0  0  0
  7 11  1  0  0  0  0
  8 11  1  0  0  0  0
  9 11  1  0  0  0  0
 10 15  1  0  0  0  0
 11 18  1  0  0  0  0
 14 15  1  0  0  0  0
  3 19  1  0  0  0  0
  3 20  1  0  0  0  0
  4 21  1  0  0  0  0
  4 22  1  0  0  0  0
  5 23  1  0  0  0  0
  5 24  1  0  0  0  0
  6 25  1  0  0  0  0
  6 26  1  0  0  0  0
  7 27  1  0  0  0  0
  7 28  1  0  0  0  0
  7 29  1  0  0  0  0
  8 30  1  0  0  0  0
  8 31  1  0  0  0  0
  8 32  1  0  0  0  0
  9 33  1  0  0  0  0
  9 34  1  0  0  0  0
  9 35  1  0  0  0  0
 10 36  1  0  0  0  0
 10 37  1  0  0  0  0
 10 38  1  0  0  0  0
 14 39  1  0  0  0  0
 14 40  1  0  0  0  0
M  END
> <id>
EN300-124921

> <smiles>
CN(N)C(=O)N1CCN(CC1)C(=O)OC(C)(C)C

> <MDLNUMBER>
MFCD24369103

> <IUPAC Name>
tert-butyl 4-(N-methylhydrazinecarbonyl)piperazine-1-carboxylate

> <CAS>
1432680-23-3

> <Purity>
95

> <URL>
https://www.enaminestore.com/catalog/EN300-124921

> <ROCS_ShapeQuery>
_x0404_0B

> <ROCS_TanimotoCombo>
0.367 

> <ROCS_ShapeTanimoto>
0.295 

> <ROCS_ColorTanimoto>
0.072 

> <ROCS_RefTversky>
0.265 

> <ROCS_RefColorTversky>
0.075 

> <ROCS_RefTverskyCombo>
0.340 

> <ROCS_FitTversky>
1.620 

> <ROCS_FitColorTversky>
0.635 

> <ROCS_FitTverskyCombo>
2.255 

> <ROCS_ColorScore>
-5.412

> <ROCS_Overlap>
1766.861

> <ROCS_Rank>
423                 

$$$$
untitled-dbase-23473_2576
  -OEChem-08212314543D

 38 39  0     0  0  0  0  0  0999 V2000
   -8.3884    5.3906  -14.8938 C   0  0  0  0  0  0  0  0  0  0  0  0
   -8.6247    5.0508  -10.8606 C   0  0  0  0  0  0  0  0  0  0  0  0
   -8.8640    4.3552  -18.9087 C   0  0  0  0  0  0  0  0  0  0  0  0
   -9.7259    2.4998   -7.7465 C   0  0  0  0  0  0  0  0  0  0  0  0
  -10.0405    4.4727  -17.9390 C   0  0  0  0  0  0  0  0  0  0  0  0
   -7.6490    5.1260  -18.3911 C   0  0  0  0  0  0  0  0  0  0  0  0
   -9.8843    4.0187   -7.6679 C   0  0  0  0  0  0  0  0  0  0  0  0
   -9.6211    2.0349   -9.1995 C   0  0  0  0  0  0  0  0  0  0  0  0
   -9.6393    4.0498  -16.5290 C   0  0  0  0  0  0  0  0  0  0  0  0
   -7.2824    4.6945  -16.9741 C   0  0  0  0  0  0  0  0  0  0  0  0
   -8.7701    4.7310   -8.4290 C   0  0  0  0  0  0  0  0  0  0  0  0
   -8.5113    2.7762   -9.9392 C   0  0  0  0  0  0  0  0  0  0  0  0
   -8.4424    4.7597  -16.0930 N   0  0  0  0  0  0  0  0  0  0  0  0
   -8.6593    4.2191   -9.7900 N   0  0  0  0  0  0  0  0  0  0  0  0
   -8.8318    6.9848  -14.6919 S   0  0  0  0  0  0  0  0  0  0  0  0
   -7.9923    6.5914  -10.7870 S   0  0  0  0  0  0  0  0  0  0  0  0
   -7.7640    4.3767  -13.6090 S   0  0  0  0  0  0  0  0  0  0  0  0
   -9.3520    4.3574  -12.2955 S   0  0  0  0  0  0  0  0  0  0  0  0
   -8.5994    3.2983  -19.0361 H   0  0  0  0  0  0  0  0  0  0  0  0
   -9.1542    4.7357  -19.8942 H   0  0  0  0  0  0  0  0  0  0  0  0
   -8.8241    2.1975   -7.2001 H   0  0  0  0  0  0  0  0  0  0  0  0
  -10.5767    2.0109   -7.2595 H   0  0  0  0  0  0  0  0  0  0  0  0
  -10.4011    5.5086  -17.9228 H   0  0  0  0  0  0  0  0  0  0  0  0
  -10.8703    3.8489  -18.2896 H   0  0  0  0  0  0  0  0  0  0  0  0
   -6.7965    4.9615  -19.0594 H   0  0  0  0  0  0  0  0  0  0  0  0
   -7.8643    6.2016  -18.4028 H   0  0  0  0  0  0  0  0  0  0  0  0
  -10.8567    4.3086   -8.0845 H   0  0  0  0  0  0  0  0  0  0  0  0
   -9.8763    4.3359   -6.6192 H   0  0  0  0  0  0  0  0  0  0  0  0
   -9.4278    0.9568   -9.2282 H   0  0  0  0  0  0  0  0  0  0  0  0
  -10.5779    2.2040   -9.7090 H   0  0  0  0  0  0  0  0  0  0  0  0
  -10.4617    4.2328  -15.8291 H   0  0  0  0  0  0  0  0  0  0  0  0
   -9.4118    2.9777  -16.5006 H   0  0  0  0  0  0  0  0  0  0  0  0
   -6.9266    3.6575  -16.9695 H   0  0  0  0  0  0  0  0  0  0  0  0
   -6.4757    5.3235  -16.5823 H   0  0  0  0  0  0  0  0  0  0  0  0
   -8.9476    5.8122   -8.4417 H   0  0  0  0  0  0  0  0  0  0  0  0
   -7.8018    4.5605   -7.9427 H   0  0  0  0  0  0  0  0  0  0  0  0
   -7.5302    2.5104   -9.5271 H   0  0  0  0  0  0  0  0  0  0  0  0
   -8.5098    2.5007  -10.9998 H   0  0  0  0  0  0  0  0  0  0  0  0
  1 13  1  0  0  0  0
  1 15  2  0  0  0  0
  1 17  1  0  0  0  0
  2 14  1  0  0  0  0
  2 16  2  0  0  0  0
  2 18  1  0  0  0  0
  3  5  1  0  0  0  0
  3  6  1  0  0  0  0
  4  7  1  0  0  0  0
  4  8  1  0  0  0  0
  5  9  1  0  0  0  0
  6 10  1  0  0  0  0
  7 11  1  0  0  0  0
  8 12  1  0  0  0  0
  9 13  1  0  0  0  0
 10 13  1  0  0  0  0
 11 14  1  0  0  0  0
 12 14  1  0  0  0  0
 17 18  1  0  0  0  0
  3 19  1  0  0  0  0
  3 20  1  0  0  0  0
  4 21  1  0  0  0  0
  4 22  1  0  0  0  0
  5 23  1  0  0  0  0
  5 24  1  0  0  0  0
  6 25  1  0  0  0  0
  6 26  1  0  0  0  0
  7 27  1  0  0  0  0
  7 28  1  0  0  0  0
  8 29  1  0  0  0  0
  8 30  1  0  0  0  0
  9 31  1  0  0  0  0
  9 32  1  0  0  0  0
 10 33  1  0  0  0  0
 10 34  1  0  0  0  0
 11 35  1  0  0  0  0
 11 36  1  0  0  0  0
 12 37  1  0  0  0  0
 12 38  1  0  0  0  0
M  END
> <id>
EN300-18532247

> <smiles>
S=C(SSC(=S)N1CCCCC1)N2CCCCC2

> <MDLNUMBER>
MFCD00006488

> <IUPAC Name>
1-(piperidine-1-carbothioyldisulfanylcarbothioyl)piperidine

> <CAS>
94-37-1

> <URL>
https://www.enaminestore.com/catalog/EN300-18532247

> <MP>
113-116

> <ROCS_ShapeQuery>
_x0404_0B

> <ROCS_TanimotoCombo>
0.367 

> <ROCS_ShapeTanimoto>
0.309 

> <ROCS_ColorTanimoto>
0.058 

> <ROCS_RefTversky>
0.273 

> <ROCS_RefColorTversky>
0.060 

> <ROCS_RefTverskyCombo>
0.333 

> <ROCS_FitTversky>
1.770 

> <ROCS_FitColorTversky>
0.573 

> <ROCS_FitTverskyCombo>
2.344 

> <ROCS_ColorScore>
-4.347

> <ROCS_Overlap>
1815.787

> <ROCS_Rank>
424                 

$$$$
untitled-dbase-45541_82
  -OEChem-08212314543D

 43 45  0     1  0  0  0  0  0999 V2000
   -8.8809    4.0977   -7.0059 C   0  0  0  0  0  0  0  0  0  0  0  0
   -9.1150    2.7234   -7.0647 C   0  0  0  0  0  0  0  0  0  0  0  0
   -9.1754    2.7966   -9.4957 C   0  0  0  0  0  0  0  0  0  0  0  0
   -8.7853    4.8007   -8.1961 C   0  0  0  0  0  0  0  0  0  0  0  0
   -8.9335    4.1612   -9.4355 C   0  0  0  0  0  0  0  0  0  0  0  0
   -9.2610    2.0774   -8.3009 C   0  0  0  0  0  0  0  0  0  0  0  0
   -7.9989    5.6442  -14.1191 C   0  0  0  0  0  0  0  0  0  0  0  0
   -8.5735    6.2716   -8.3677 C   0  0  0  0  0  0  0  0  0  0  0  0
   -8.1247    6.3335   -9.8351 C   0  0  0  0  0  0  0  0  0  0  0  0
  -10.1974    5.5583  -11.1340 C   0  0  0  0  0  0  0  0  0  0  0  0
   -9.8534    6.1689  -12.4873 C   0  0  0  0  0  0  0  0  0  0  0  0
   -8.0611    4.7065  -11.8074 C   0  0  0  0  0  0  0  0  0  0  0  0
   -8.8276    5.1529  -10.5603 C   0  0  2  0  0  0  0  0  0  0  0  0
   -6.5082    5.4073  -16.5458 C   0  0  0  0  0  0  0  0  0  0  0  0
   -6.3714    2.9578  -16.0066 C   0  0  0  0  0  0  0  0  0  0  0  0
   -8.6087    4.0280  -16.4034 C   0  0  0  0  0  0  0  0  0  0  0  0
   -7.1979    4.2327  -15.8533 C   0  0  0  0  0  0  0  0  0  0  0  0
   -8.6074    5.5241  -12.8813 N   0  0  0  0  0  0  0  0  0  0  0  0
   -8.0824    6.6388  -14.8362 O   0  0  0  0  0  0  0  0  0  0  0  0
   -7.2917    4.5203  -14.4536 O   0  0  0  0  0  0  0  0  0  0  0  0
   -9.5852    0.2145   -8.3506 Br  0  0  0  0  0  0  0  0  0  0  0  0
   -8.7747    4.5978   -6.0490 H   0  0  0  0  0  0  0  0  0  0  0  0
   -9.1834    2.1622   -6.1359 H   0  0  0  0  0  0  0  0  0  0  0  0
   -9.2997    2.2995  -10.4525 H   0  0  0  0  0  0  0  0  0  0  0  0
   -9.5146    6.8109   -8.2146 H   0  0  0  0  0  0  0  0  0  0  0  0
   -7.8023    6.6657   -7.6989 H   0  0  0  0  0  0  0  0  0  0  0  0
   -8.3402    7.3056  -10.2876 H   0  0  0  0  0  0  0  0  0  0  0  0
   -7.0359    6.1922   -9.8783 H   0  0  0  0  0  0  0  0  0  0  0  0
  -10.6616    6.3273  -10.5059 H   0  0  0  0  0  0  0  0  0  0  0  0
  -10.9012    4.7268  -11.2325 H   0  0  0  0  0  0  0  0  0  0  0  0
  -10.6097    5.9369  -13.2443 H   0  0  0  0  0  0  0  0  0  0  0  0
   -9.7264    7.2546  -12.4404 H   0  0  0  0  0  0  0  0  0  0  0  0
   -6.9959    4.9502  -11.7366 H   0  0  0  0  0  0  0  0  0  0  0  0
   -8.1614    3.6443  -12.0463 H   0  0  0  0  0  0  0  0  0  0  0  0
   -7.0984    6.3243  -16.4379 H   0  0  0  0  0  0  0  0  0  0  0  0
   -5.5088    5.5867  -16.1361 H   0  0  0  0  0  0  0  0  0  0  0  0
   -6.4134    5.2255  -17.6224 H   0  0  0  0  0  0  0  0  0  0  0  0
   -6.8626    2.1125  -15.5112 H   0  0  0  0  0  0  0  0  0  0  0  0
   -5.3911    3.0683  -15.5290 H   0  0  0  0  0  0  0  0  0  0  0  0
   -6.2171    2.7006  -17.0595 H   0  0  0  0  0  0  0  0  0  0  0  0
   -9.1036    3.1856  -15.9069 H   0  0  0  0  0  0  0  0  0  0  0  0
   -9.2277    4.9209  -16.2685 H   0  0  0  0  0  0  0  0  0  0  0  0
   -8.5787    3.7832  -17.4713 H   0  0  0  0  0  0  0  0  0  0  0  0
  1  2  1  0  0  0  0
  1  4  2  0  0  0  0
  2  6  2  0  0  0  0
  3  5  2  0  0  0  0
  3  6  1  0  0  0  0
  4  5  1  0  0  0  0
  4  8  1  0  0  0  0
  5 13  1  0  0  0  0
  6 21  1  0  0  0  0
  7 18  1  0  0  0  0
  7 19  2  0  0  0  0
  7 20  1  0  0  0  0
  8  9  1  0  0  0  0
  9 13  1  0  0  0  0
 10 11  1  0  0  0  0
 10 13  1  0  0  0  0
 11 18  1  0  0  0  0
 12 13  1  0  0  0  0
 12 18  1  0  0  0  0
 14 17  1  0  0  0  0
 15 17  1  0  0  0  0
 16 17  1  0  0  0  0
 17 20  1  0  0  0  0
  1 22  1  0  0  0  0
  2 23  1  0  0  0  0
  3 24  1  0  0  0  0
  8 25  1  0  0  0  0
  8 26  1  0  0  0  0
  9 27  1  0  0  0  0
  9 28  1  0  0  0  0
 10 29  1  0  0  0  0
 10 30  1  0  0  0  0
 11 31  1  0  0  0  0
 11 32  1  0  0  0  0
 12 33  1  0  0  0  0
 12 34  1  0  0  0  0
 14 35  1  0  0  0  0
 14 36  1  0  0  0  0
 14 37  1  0  0  0  0
 15 38  1  0  0  0  0
 15 39  1  0  0  0  0
 15 40  1  0  0  0  0
 16 41  1  0  0  0  0
 16 42  1  0  0  0  0
 16 43  1  0  0  0  0
M  END
> <id>
EN300-28298769

> <smiles>
CC(C)(C)OC(=O)N1CCC2(CCC=3C=CC(Br)=CC32)C1

> <IUPAC Name>
tert-butyl 6-bromo-2,3-dihydrospiro[indene-1,3'-pyrrolidine]-1'-carboxylate

> <CAS>
2680694-87-3

> <URL>
https://www.enaminestore.com/catalog/EN300-28298769

> <ROCS_ShapeQuery>
_x0404_0B

> <ROCS_TanimotoCombo>
0.367 

> <ROCS_ShapeTanimoto>
0.291 

> <ROCS_ColorTanimoto>
0.075 

> <ROCS_RefTversky>
0.268 

> <ROCS_RefColorTversky>
0.079 

> <ROCS_RefTverskyCombo>
0.347 

> <ROCS_FitTversky>
1.441 

> <ROCS_FitColorTversky>
0.602 

> <ROCS_FitTverskyCombo>
2.043 

> <ROCS_ColorScore>
-5.716

> <ROCS_Overlap>
1785.232

> <ROCS_Rank>
425                 

$$$$
untitled-dbase-39382_912
  -OEChem-08212314543D

 54 54  0     0  0  0  0  0  0999 V2000
   -8.2838    5.2992  -15.9963 C   0  0  0  0  0  0  0  0  0  0  0  0
   -8.8028    4.8019  -10.4198 C   0  0  0  0  0  0  0  0  0  0  0  0
   -8.6095    1.7867  -14.6025 C   0  0  0  0  0  0  0  0  0  0  0  0
   -7.4525    1.8713  -12.4295 C   0  0  0  0  0  0  0  0  0  0  0  0
   -8.8705    2.8638  -15.6651 C   0  0  0  0  0  0  0  0  0  0  0  0
   -8.5515    2.6095  -11.6406 C   0  0  0  0  0  0  0  0  0  0  0  0
   -9.3733    4.6095  -13.8935 C   0  0  0  0  0  0  0  0  0  0  0  0
   -8.2874    4.8418  -12.8341 C   0  0  0  0  0  0  0  0  0  0  0  0
   -6.1246    6.5009  -17.4394 C   0  0  0  0  0  0  0  0  0  0  0  0
   -6.9523    5.1820  -19.4103 C   0  0  0  0  0  0  0  0  0  0  0  0
   -8.4301    6.9190  -18.3582 C   0  0  0  0  0  0  0  0  0  0  0  0
  -10.6675    5.5644   -8.3839 C   0  0  0  0  0  0  0  0  0  0  0  0
   -9.8210    3.5658   -7.1197 C   0  0  0  0  0  0  0  0  0  0  0  0
   -8.2547    5.4483   -7.6774 C   0  0  0  0  0  0  0  0  0  0  0  0
   -7.3469    5.8713  -18.1059 C   0  0  0  0  0  0  0  0  0  0  0  0
   -9.4704    4.6466   -8.1401 C   0  0  0  0  0  0  0  0  0  0  0  0
   -7.3700    2.0306  -13.8778 N   0  0  0  0  0  0  0  0  0  0  0  0
   -8.7955    4.2627  -15.1980 N   0  0  0  0  0  0  0  0  0  0  0  0
   -8.5017    4.0850  -11.5953 N   0  0  0  0  0  0  0  0  0  0  0  0
   -8.2082    6.4731  -15.6360 O   0  0  0  0  0  0  0  0  0  0  0  0
   -8.7767    6.0284  -10.3276 O   0  0  0  0  0  0  0  0  0  0  0  0
   -7.8771    4.8687  -17.2314 O   0  0  0  0  0  0  0  0  0  0  0  0
   -9.1422    3.9891   -9.3696 O   0  0  0  0  0  0  0  0  0  0  0  0
   -9.4850    1.7139  -13.9465 H   0  0  0  0  0  0  0  0  0  0  0  0
   -8.5461    0.8104  -15.1014 H   0  0  0  0  0  0  0  0  0  0  0  0
   -6.4786    2.2393  -12.0139 H   0  0  0  0  0  0  0  0  0  0  0  0
   -7.4217    0.7800  -12.1529 H   0  0  0  0  0  0  0  0  0  0  0  0
   -8.1617    2.7203  -16.5016 H   0  0  0  0  0  0  0  0  0  0  0  0
   -9.8746    2.7192  -16.1053 H   0  0  0  0  0  0  0  0  0  0  0  0
   -9.5324    2.3355  -12.0772 H   0  0  0  0  0  0  0  0  0  0  0  0
   -8.5845    2.2217  -10.6029 H   0  0  0  0  0  0  0  0  0  0  0  0
  -10.0748    3.8443  -13.5839 H   0  0  0  0  0  0  0  0  0  0  0  0
   -9.9269    5.5352  -14.0221 H   0  0  0  0  0  0  0  0  0  0  0  0
   -7.2881    4.6454  -13.2193 H   0  0  0  0  0  0  0  0  0  0  0  0
   -8.3127    5.9017  -12.5685 H   0  0  0  0  0  0  0  0  0  0  0  0
   -6.4037    6.9967  -16.5027 H   0  0  0  0  0  0  0  0  0  0  0  0
   -5.3544    5.7539  -17.2213 H   0  0  0  0  0  0  0  0  0  0  0  0
   -5.6851    7.2744  -18.0795 H   0  0  0  0  0  0  0  0  0  0  0  0
   -7.8262    4.7288  -19.8920 H   0  0  0  0  0  0  0  0  0  0  0  0
   -6.2456    4.3656  -19.2220 H   0  0  0  0  0  0  0  0  0  0  0  0
   -6.4927    5.8828  -20.1147 H   0  0  0  0  0  0  0  0  0  0  0  0
   -9.3070    6.4676  -18.8364 H   0  0  0  0  0  0  0  0  0  0  0  0
   -8.7521    7.3983  -17.4280 H   0  0  0  0  0  0  0  0  0  0  0  0
   -8.0697    7.6950  -19.0432 H   0  0  0  0  0  0  0  0  0  0  0  0
  -10.4200    6.3416   -9.1158 H   0  0  0  0  0  0  0  0  0  0  0  0
  -11.5357    5.0064   -8.7495 H   0  0  0  0  0  0  0  0  0  0  0  0
  -10.9540    6.0863   -7.4637 H   0  0  0  0  0  0  0  0  0  0  0  0
   -8.9649    2.9050   -6.9416 H   0  0  0  0  0  0  0  0  0  0  0  0
  -10.6316    2.9278   -7.4898 H   0  0  0  0  0  0  0  0  0  0  0  0
  -10.1298    3.9986   -6.1627 H   0  0  0  0  0  0  0  0  0  0  0  0
   -7.3958    4.7902   -7.5024 H   0  0  0  0  0  0  0  0  0  0  0  0
   -7.9660    6.2046   -8.4145 H   0  0  0  0  0  0  0  0  0  0  0  0
   -8.4586    5.9505   -6.7248 H   0  0  0  0  0  0  0  0  0  0  0  0
   -6.6474    1.3946  -14.2445 H   0  0  0  0  0  0  0  0  0  0  0  0
  1 18  1  0  0  0  0
  1 20  2  0  0  0  0
  1 22  1  0  0  0  0
  2 19  1  0  0  0  0
  2 21  2  0  0  0  0
  2 23  1  0  0  0  0
  3  5  1  0  0  0  0
  3 17  1  0  0  0  0
  4  6  1  0  0  0  0
  4 17  1  0  0  0  0
  5 18  1  0  0  0  0
  6 19  1  0  0  0  0
  7  8  1  0  0  0  0
  7 18  1  0  0  0  0
  8 19  1  0  0  0  0
  9 15  1  0  0  0  0
 10 15  1  0  0  0  0
 11 15  1  0  0  0  0
 12 16  1  0  0  0  0
 13 16  1  0  0  0  0
 14 16  1  0  0  0  0
 15 22  1  0  0  0  0
 16 23  1  0  0  0  0
  3 24  1  0  0  0  0
  3 25  1  0  0  0  0
  4 26  1  0  0  0  0
  4 27  1  0  0  0  0
  5 28  1  0  0  0  0
  5 29  1  0  0  0  0
  6 30  1  0  0  0  0
  6 31  1  0  0  0  0
  7 32  1  0  0  0  0
  7 33  1  0  0  0  0
  8 34  1  0  0  0  0
  8 35  1  0  0  0  0
  9 36  1  0  0  0  0
  9 37  1  0  0  0  0
  9 38  1  0  0  0  0
 10 39  1  0  0  0  0
 10 40  1  0  0  0  0
 10 41  1  0  0  0  0
 11 42  1  0  0  0  0
 11 43  1  0  0  0  0
 11 44  1  0  0  0  0
 12 45  1  0  0  0  0
 12 46  1  0  0  0  0
 12 47  1  0  0  0  0
 13 48  1  0  0  0  0
 13 49  1  0  0  0  0
 13 50  1  0  0  0  0
 14 51  1  0  0  0  0
 14 52  1  0  0  0  0
 14 53  1  0  0  0  0
 17 54  1  0  0  0  0
M  END
> <id>
EN300-395810

> <smiles>
CC(C)(C)OC(=O)N1CCNCCN(CC1)C(=O)OC(C)(C)C

> <MDLNUMBER>
MFCD30532166

> <IUPAC Name>
1,4-di-tert-butyl 1,4,7-triazonane-1,4-dicarboxylate

> <CAS>
174138-01-3

> <Purity>
95

> <URL>
https://www.enaminestore.com/catalog/EN300-395810

> <ROCS_ShapeQuery>
_x0404_0B

> <ROCS_TanimotoCombo>
0.367 

> <ROCS_ShapeTanimoto>
0.306 

> <ROCS_ColorTanimoto>
0.061 

> <ROCS_RefTversky>
0.280 

> <ROCS_RefColorTversky>
0.065 

> <ROCS_RefTverskyCombo>
0.344 

> <ROCS_FitTversky>
1.448 

> <ROCS_FitColorTversky>
0.491 

> <ROCS_FitTverskyCombo>
1.940 

> <ROCS_ColorScore>
-4.658

> <ROCS_Overlap>
1866.718

> <ROCS_Rank>
426                 

$$$$
untitled-dbase-10311_8
  -OEChem-08212314543D

 38 39  0     0  0  0  0  0  0999 V2000
   -8.4816    6.4886   -9.4397 C   0  0  0  0  0  0  0  0  0  0  0  0
   -8.3563    5.9605   -8.1549 C   0  0  0  0  0  0  0  0  0  0  0  0
   -8.8444    5.6661  -10.5157 C   0  0  0  0  0  0  0  0  0  0  0  0
   -9.1017    4.3019  -10.2856 C   0  0  0  0  0  0  0  0  0  0  0  0
   -8.9598    3.7789   -8.9929 C   0  0  0  0  0  0  0  0  0  0  0  0
   -8.5929    4.6065   -7.9322 C   0  0  0  0  0  0  0  0  0  0  0  0
   -8.6797    5.5025  -14.2286 C   0  0  0  0  0  0  0  0  0  0  0  0
   -9.4683    3.3869  -11.4263 C   0  0  0  0  0  0  0  0  0  0  0  0
   -8.9822    6.2721  -11.8907 C   0  0  0  0  0  0  0  0  0  0  0  0
  -10.0667    4.1570  -12.5988 C   0  0  0  0  0  0  0  0  0  0  0  0
   -7.7708    5.4558  -16.9417 C   0  0  0  0  0  0  0  0  0  0  0  0
   -9.4122    3.5822  -17.2646 C   0  0  0  0  0  0  0  0  0  0  0  0
  -10.2322    5.8648  -16.6125 C   0  0  0  0  0  0  0  0  0  0  0  0
   -9.0958    4.8524  -16.4780 C   0  0  0  0  0  0  0  0  0  0  0  0
   -9.2018    5.2854  -12.9498 N   0  0  0  0  0  0  0  0  0  0  0  0
   -9.1792    2.3980   -8.7596 N   0  0  0  0  0  0  0  0  0  0  0  0
   -8.0256    6.4935  -14.5488 O   0  0  0  0  0  0  0  0  0  0  0  0
   -8.9720    4.4863  -15.0990 O   0  0  0  0  0  0  0  0  0  0  0  0
   -8.4132    3.9982   -6.3243 Cl  0  0  0  0  0  0  0  0  0  0  0  0
   -8.2927    7.5473   -9.5995 H   0  0  0  0  0  0  0  0  0  0  0  0
   -8.0703    6.6201   -7.3394 H   0  0  0  0  0  0  0  0  0  0  0  0
   -8.5686    2.8472  -11.7515 H   0  0  0  0  0  0  0  0  0  0  0  0
  -10.2089    2.6421  -11.1083 H   0  0  0  0  0  0  0  0  0  0  0  0
   -9.8465    6.9435  -11.9033 H   0  0  0  0  0  0  0  0  0  0  0  0
   -8.0852    6.8548  -12.1161 H   0  0  0  0  0  0  0  0  0  0  0  0
  -10.2035    3.4908  -13.4529 H   0  0  0  0  0  0  0  0  0  0  0  0
  -11.0460    4.5714  -12.3384 H   0  0  0  0  0  0  0  0  0  0  0  0
   -7.5400    6.3678  -16.3795 H   0  0  0  0  0  0  0  0  0  0  0  0
   -6.9415    4.7517  -16.8177 H   0  0  0  0  0  0  0  0  0  0  0  0
   -7.8220    5.7478  -17.9969 H   0  0  0  0  0  0  0  0  0  0  0  0
  -10.3621    3.1458  -16.9352 H   0  0  0  0  0  0  0  0  0  0  0  0
   -8.6459    2.8171  -17.0953 H   0  0  0  0  0  0  0  0  0  0  0  0
   -9.4750    3.7780  -18.3399 H   0  0  0  0  0  0  0  0  0  0  0  0
  -11.1828    5.4322  -16.2800 H   0  0  0  0  0  0  0  0  0  0  0  0
  -10.0393    6.7681  -16.0248 H   0  0  0  0  0  0  0  0  0  0  0  0
  -10.3740    6.1546  -17.6600 H   0  0  0  0  0  0  0  0  0  0  0  0
   -9.4793    1.8241   -9.5171 H   0  0  0  0  0  0  0  0  0  0  0  0
   -9.1200    2.0528   -7.8266 H   0  0  0  0  0  0  0  0  0  0  0  0
  1  2  1  0  0  0  0
  1  3  2  0  0  0  0
  2  6  2  0  0  0  0
  3  4  1  0  0  0  0
  3  9  1  0  0  0  0
  4  5  2  0  0  0  0
  4  8  1  0  0  0  0
  5  6  1  0  0  0  0
  5 16  1  0  0  0  0
  6 19  1  0  0  0  0
  7 15  1  0  0  0  0
  7 17  2  0  0  0  0
  7 18  1  0  0  0  0
  8 10  1  0  0  0  0
  9 15  1  0  0  0  0
 10 15  1  0  0  0  0
 11 14  1  0  0  0  0
 12 14  1  0  0  0  0
 13 14  1  0  0  0  0
 14 18  1  0  0  0  0
  1 20  1  0  0  0  0
  2 21  1  0  0  0  0
  8 22  1  0  0  0  0
  8 23  1  0  0  0  0
  9 24  1  0  0  0  0
  9 25  1  0  0  0  0
 10 26  1  0  0  0  0
 10 27  1  0  0  0  0
 11 28  1  0  0  0  0
 11 29  1  0  0  0  0
 11 30  1  0  0  0  0
 12 31  1  0  0  0  0
 12 32  1  0  0  0  0
 12 33  1  0  0  0  0
 13 34  1  0  0  0  0
 13 35  1  0  0  0  0
 13 36  1  0  0  0  0
 16 37  1  0  0  0  0
 16 38  1  0  0  0  0
M  END
> <id>
EN300-359390

> <smiles>
CC(C)(C)OC(=O)N1CCC=2C(N)=C(Cl)C=CC2C1

> <MDLNUMBER>
MFCD30727079

> <IUPAC Name>
tert-butyl 5-amino-6-chloro-1,2,3,4-tetrahydroisoquinoline-2-carboxylate

> <CAS>
950987-28-7

> <URL>
https://www.enaminestore.com/catalog/EN300-359390

> <ROCS_ShapeQuery>
_x0404_0B

> <ROCS_TanimotoCombo>
0.367 

> <ROCS_ShapeTanimoto>
0.297 

> <ROCS_ColorTanimoto>
0.070 

> <ROCS_RefTversky>
0.268 

> <ROCS_RefColorTversky>
0.074 

> <ROCS_RefTverskyCombo>
0.342 

> <ROCS_FitTversky>
1.565 

> <ROCS_FitColorTversky>
0.559 

> <ROCS_FitTverskyCombo>
2.124 

> <ROCS_ColorScore>
-5.304

> <ROCS_Overlap>
1789.121

> <ROCS_Rank>
427                 

$$$$
untitled-dbase-30867_1258
  -OEChem-08212314543D

 44 44  0     1  0  0  0  0  0999 V2000
   -8.8199    5.2811   -9.5104 C   0  0  0  0  0  0  0  0  0  0  0  0
   -8.6020    5.1295  -14.4436 C   0  0  0  0  0  0  0  0  0  0  0  0
   -8.1275    3.9652   -9.1837 C   0  0  0  0  0  0  0  0  0  0  0  0
   -9.3269    5.5352  -10.9217 C   0  0  0  0  0  0  0  0  0  0  0  0
   -8.9325    2.7265   -9.5729 C   0  0  0  0  0  0  0  0  0  0  0  0
   -8.1215    1.6305  -10.2718 C   0  0  0  0  0  0  0  0  0  0  0  0
   -7.4034    1.9752  -11.5826 C   0  0  0  0  0  0  0  0  0  0  0  0
   -8.2691    5.2951  -11.9962 C   0  0  0  0  0  0  0  0  0  0  0  0
   -9.2933    3.1855  -12.9832 C   0  0  0  0  0  0  0  0  0  0  0  0
   -8.2635    2.0565  -12.8505 C   0  0  1  0  0  0  0  0  0  0  0  0
   -7.4777    5.0901  -17.0771 C   0  0  0  0  0  0  0  0  0  0  0  0
   -9.5350    3.8084  -17.7357 C   0  0  0  0  0  0  0  0  0  0  0  0
   -9.7484    6.1551  -16.8664 C   0  0  0  0  0  0  0  0  0  0  0  0
   -8.9574    4.8506  -16.7805 C   0  0  0  0  0  0  0  0  0  0  0  0
   -8.7472    4.5477  -13.1689 N   0  0  0  0  0  0  0  0  0  0  0  0
   -8.9717    6.1364   -8.6341 O   0  0  0  0  0  0  0  0  0  0  0  0
   -8.0979    6.2320  -14.6516 O   0  0  0  0  0  0  0  0  0  0  0  0
   -7.3898    2.0982  -13.9830 O   0  0  0  0  0  0  0  0  0  0  0  0
   -9.0775    4.3312  -15.4513 O   0  0  0  0  0  0  0  0  0  0  0  0
   -7.1170    3.9377   -9.6235 H   0  0  0  0  0  0  0  0  0  0  0  0
   -7.9713    3.9756   -8.0907 H   0  0  0  0  0  0  0  0  0  0  0  0
  -10.1644    4.8396  -11.0680 H   0  0  0  0  0  0  0  0  0  0  0  0
   -9.7539    6.5416  -10.9941 H   0  0  0  0  0  0  0  0  0  0  0  0
   -9.3482    2.2862   -8.6579 H   0  0  0  0  0  0  0  0  0  0  0  0
   -9.7944    2.9961  -10.1931 H   0  0  0  0  0  0  0  0  0  0  0  0
   -7.3540    1.2646   -9.5609 H   0  0  0  0  0  0  0  0  0  0  0  0
   -8.7842    0.7583  -10.4398 H   0  0  0  0  0  0  0  0  0  0  0  0
   -6.8435    2.9175  -11.4211 H   0  0  0  0  0  0  0  0  0  0  0  0
   -6.6126    1.2093  -11.7375 H   0  0  0  0  0  0  0  0  0  0  0  0
   -7.8049    6.2335  -12.3428 H   0  0  0  0  0  0  0  0  0  0  0  0
   -7.4515    4.7031  -11.5518 H   0  0  0  0  0  0  0  0  0  0  0  0
   -9.9819    2.9487  -13.8122 H   0  0  0  0  0  0  0  0  0  0  0  0
   -9.9400    3.2123  -12.0890 H   0  0  0  0  0  0  0  0  0  0  0  0
   -8.8223    1.0789  -12.9980 H   0  0  0  0  0  0  0  0  0  0  0  0
   -7.0593    5.8377  -16.3936 H   0  0  0  0  0  0  0  0  0  0  0  0
   -6.8934    4.1688  -16.9846 H   0  0  0  0  0  0  0  0  0  0  0  0
   -7.3410    5.4864  -18.0897 H   0  0  0  0  0  0  0  0  0  0  0  0
  -10.5965    3.6334  -17.5265 H   0  0  0  0  0  0  0  0  0  0  0  0
   -9.0323    2.8426  -17.6099 H   0  0  0  0  0  0  0  0  0  0  0  0
   -9.4341    4.1183  -18.7808 H   0  0  0  0  0  0  0  0  0  0  0  0
  -10.8098    5.9835  -16.6538 H   0  0  0  0  0  0  0  0  0  0  0  0
   -9.3711    6.9027  -16.1612 H   0  0  0  0  0  0  0  0  0  0  0  0
   -9.6996    6.5745  -17.8778 H   0  0  0  0  0  0  0  0  0  0  0  0
   -7.9596    2.1491  -14.7646 H   0  0  0  0  0  0  0  0  0  0  0  0
  1  3  1  0  0  0  0
  1  4  1  0  0  0  0
  1 16  2  0  0  0  0
  2 15  1  0  0  0  0
  2 17  2  0  0  0  0
  2 19  1  0  0  0  0
  3  5  1  0  0  0  0
  4  8  1  0  0  0  0
  5  6  1  0  0  0  0
  6  7  1  0  0  0  0
  7 10  1  0  0  0  0
  8 15  1  0  0  0  0
  9 10  1  0  0  0  0
  9 15  1  0  0  0  0
 10 18  1  0  0  0  0
 11 14  1  0  0  0  0
 12 14  1  0  0  0  0
 13 14  1  0  0  0  0
 14 19  1  0  0  0  0
  3 20  1  0  0  0  0
  3 21  1  0  0  0  0
  4 22  1  0  0  0  0
  4 23  1  0  0  0  0
  5 24  1  0  0  0  0
  5 25  1  0  0  0  0
  6 26  1  0  0  0  0
  6 27  1  0  0  0  0
  7 28  1  0  0  0  0
  7 29  1  0  0  0  0
  8 30  1  0  0  0  0
  8 31  1  0  0  0  0
  9 32  1  0  0  0  0
  9 33  1  0  0  0  0
 10 34  1  0  0  0  0
 11 35  1  0  0  0  0
 11 36  1  0  0  0  0
 11 37  1  0  0  0  0
 12 38  1  0  0  0  0
 12 39  1  0  0  0  0
 12 40  1  0  0  0  0
 13 41  1  0  0  0  0
 13 42  1  0  0  0  0
 13 43  1  0  0  0  0
 18 44  1  0  0  0  0
M  END
> <id>
EN300-26860643

> <smiles>
CC(C)(C)OC(=O)N1CCC(=O)CCCCC(O)C1

> <MDLNUMBER>
MFCD32679022

> <IUPAC Name>
tert-butyl 3-hydroxy-8-oxoazecane-1-carboxylate

> <CAS>
2418708-02-6

> <Purity>
95

> <URL>
https://www.enaminestore.com/catalog/EN300-26860643

> <ROCS_ShapeQuery>
_x0404_0B

> <ROCS_TanimotoCombo>
0.367 

> <ROCS_ShapeTanimoto>
0.264 

> <ROCS_ColorTanimoto>
0.102 

> <ROCS_RefTversky>
0.244 

> <ROCS_RefColorTversky>
0.104 

> <ROCS_RefTverskyCombo>
0.348 

> <ROCS_FitTversky>
1.468 

> <ROCS_FitColorTversky>
0.877 

> <ROCS_FitTverskyCombo>
2.345 

> <ROCS_ColorScore>
-7.478

> <ROCS_Overlap>
1624.938

> <ROCS_Rank>
428                 

$$$$
untitled-dbase-30541_75
  -OEChem-08212314543D

 37 38  0     1  0  0  0  0  0999 V2000
   -8.8236    4.2999  -10.4952 C   0  0  0  0  0  0  0  0  0  0  0  0
   -8.6721    5.6188  -10.0815 C   0  0  0  0  0  0  0  0  0  0  0  0
   -8.6052    6.3142  -12.3940 C   0  0  0  0  0  0  0  0  0  0  0  0
   -8.8533    3.9714  -11.8632 C   0  0  0  0  0  0  0  0  0  0  0  0
   -8.7244    4.9860  -12.8379 C   0  0  0  0  0  0  0  0  0  0  0  0
   -8.5702    6.6257  -11.0313 C   0  0  0  0  0  0  0  0  0  0  0  0
   -8.3290    5.4537  -15.3001 C   0  0  0  0  0  0  0  0  0  0  0  0
   -9.0645    2.5197  -12.2236 C   0  0  0  0  0  0  0  0  0  0  0  0
   -9.3569    3.3380  -14.5698 C   0  0  0  0  0  0  0  0  0  0  0  0
   -8.8010    2.2280  -13.6926 C   0  0  1  0  0  0  0  0  0  0  0  0
   -5.7405    5.3046  -15.7328 C   0  0  0  0  0  0  0  0  0  0  0  0
   -6.1940    3.6740  -17.5888 C   0  0  0  0  0  0  0  0  0  0  0  0
   -6.6811    6.1153  -17.9221 C   0  0  0  0  0  0  0  0  0  0  0  0
   -6.6482    4.9668  -16.9147 C   0  0  0  0  0  0  0  0  0  0  0  0
   -8.7711    4.6432  -14.2353 N   0  0  0  0  0  0  0  0  0  0  0  0
   -8.3256    6.6845  -15.2640 O   0  0  0  0  0  0  0  0  0  0  0  0
   -7.3973    2.0909  -13.9050 O   0  0  0  0  0  0  0  0  0  0  0  0
   -7.9767    4.7535  -16.4228 O   0  0  0  0  0  0  0  0  0  0  0  0
   -8.4186    8.2652  -10.5262 Cl  0  0  0  0  0  0  0  0  0  0  0  0
   -8.9195    3.5204   -9.7433 H   0  0  0  0  0  0  0  0  0  0  0  0
   -8.6457    5.8444   -9.0183 H   0  0  0  0  0  0  0  0  0  0  0  0
   -8.5762    7.1460  -13.0868 H   0  0  0  0  0  0  0  0  0  0  0  0
   -8.4064    1.8917  -11.6054 H   0  0  0  0  0  0  0  0  0  0  0  0
  -10.1056    2.2631  -11.9802 H   0  0  0  0  0  0  0  0  0  0  0  0
   -9.1456    3.0874  -15.6094 H   0  0  0  0  0  0  0  0  0  0  0  0
  -10.4390    3.4260  -14.4520 H   0  0  0  0  0  0  0  0  0  0  0  0
   -9.2589    1.2703  -13.9576 H   0  0  0  0  0  0  0  0  0  0  0  0
   -6.0632    6.2320  -15.2462 H   0  0  0  0  0  0  0  0  0  0  0  0
   -5.7355    4.5038  -14.9862 H   0  0  0  0  0  0  0  0  0  0  0  0
   -4.7102    5.4730  -16.0666 H   0  0  0  0  0  0  0  0  0  0  0  0
   -6.8425    3.4278  -18.4374 H   0  0  0  0  0  0  0  0  0  0  0  0
   -6.2593    2.8282  -16.8948 H   0  0  0  0  0  0  0  0  0  0  0  0
   -5.1631    3.7473  -17.9500 H   0  0  0  0  0  0  0  0  0  0  0  0
   -7.3321    5.8732  -18.7699 H   0  0  0  0  0  0  0  0  0  0  0  0
   -7.0400    7.0429  -17.4646 H   0  0  0  0  0  0  0  0  0  0  0  0
   -5.6839    6.2960  -18.3396 H   0  0  0  0  0  0  0  0  0  0  0  0
   -7.1050    1.3536  -13.3473 H   0  0  0  0  0  0  0  0  0  0  0  0
  1  2  1  0  0  0  0
  1  4  2  0  0  0  0
  2  6  2  0  0  0  0
  3  5  2  0  0  0  0
  3  6  1  0  0  0  0
  4  5  1  0  0  0  0
  4  8  1  0  0  0  0
  5 15  1  0  0  0  0
  6 19  1  0  0  0  0
  7 15  1  0  0  0  0
  7 16  2  0  0  0  0
  7 18  1  0  0  0  0
  8 10  1  0  0  0  0
  9 10  1  0  0  0  0
  9 15  1  0  0  0  0
 10 17  1  0  0  0  0
 11 14  1  0  0  0  0
 12 14  1  0  0  0  0
 13 14  1  0  0  0  0
 14 18  1  0  0  0  0
  1 20  1  0  0  0  0
  2 21  1  0  0  0  0
  3 22  1  0  0  0  0
  8 23  1  0  0  0  0
  8 24  1  0  0  0  0
  9 25  1  0  0  0  0
  9 26  1  0  0  0  0
 10 27  1  0  0  0  0
 11 28  1  0  0  0  0
 11 29  1  0  0  0  0
 11 30  1  0  0  0  0
 12 31  1  0  0  0  0
 12 32  1  0  0  0  0
 12 33  1  0  0  0  0
 13 34  1  0  0  0  0
 13 35  1  0  0  0  0
 13 36  1  0  0  0  0
 17 37  1  0  0  0  0
M  END
> <id>
EN300-26666151

> <smiles>
CC(C)(C)OC(=O)N1CC(O)CC=2C=CC(Cl)=CC12

> <IUPAC Name>
tert-butyl 7-chloro-3-hydroxy-1,2,3,4-tetrahydroquinoline-1-carboxylate

> <CAS>
2413898-58-3

> <URL>
https://www.enaminestore.com/catalog/EN300-26666151

> <ROCS_ShapeQuery>
_x0404_0B

> <ROCS_TanimotoCombo>
0.367 

> <ROCS_ShapeTanimoto>
0.250 

> <ROCS_ColorTanimoto>
0.117 

> <ROCS_RefTversky>
0.234 

> <ROCS_RefColorTversky>
0.118 

> <ROCS_RefTverskyCombo>
0.353 

> <ROCS_FitTversky>
1.364 

> <ROCS_FitColorTversky>
0.899 

> <ROCS_FitTverskyCombo>
2.263 

> <ROCS_ColorScore>
-8.529

> <ROCS_Overlap>
1561.591

> <ROCS_Rank>
429                 

$$$$
untitled-dbase-2992_10
  -OEChem-08212314543D

 42 45  0     0  0  0  0  0  0999 V2000
   -9.2343    2.4621   -8.5684 C   0  0  0  0  0  0  0  0  0  0  0  0
   -9.2198    3.5476   -7.7123 C   0  0  0  0  0  0  0  0  0  0  0  0
   -9.0584    2.6686   -9.9351 C   0  0  0  0  0  0  0  0  0  0  0  0
   -9.0392    4.8255   -8.2360 C   0  0  0  0  0  0  0  0  0  0  0  0
   -9.1675    7.2950  -13.5240 C   0  0  0  0  0  0  0  0  0  0  0  0
   -8.8879    6.3116  -12.4993 C   0  0  0  0  0  0  0  0  0  0  0  0
   -8.8726    3.9552  -10.4893 C   0  0  0  0  0  0  0  0  0  0  0  0
   -8.8692    5.0558   -9.6239 C   0  0  0  0  0  0  0  0  0  0  0  0
   -9.3010    8.5744  -13.0435 C   0  0  0  0  0  0  0  0  0  0  0  0
   -8.8880    6.9191  -11.2551 C   0  0  0  0  0  0  0  0  0  0  0  0
   -8.6295    4.8946  -12.7421 C   0  0  0  0  0  0  0  0  0  0  0  0
   -9.1897    3.6962  -14.7958 C   0  0  0  0  0  0  0  0  0  0  0  0
   -7.1920    5.2180  -14.6905 C   0  0  0  0  0  0  0  0  0  0  0  0
   -9.5854    4.3815  -16.1004 C   0  0  0  0  0  0  0  0  0  0  0  0
   -7.6609    5.8485  -15.9984 C   0  0  0  0  0  0  0  0  0  0  0  0
   -9.5899    9.8158  -13.7920 C   0  0  0  0  0  0  0  0  0  0  0  0
   -8.7878    5.4731  -18.0948 C   0  0  0  0  0  0  0  0  0  0  0  0
   -8.6333    3.9407  -11.8650 N   0  0  0  0  0  0  0  0  0  0  0  0
   -8.7520    6.3969  -10.0189 N   0  0  0  0  0  0  0  0  0  0  0  0
   -8.3553    4.6221  -14.0098 N   0  0  0  0  0  0  0  0  0  0  0  0
   -8.3991    4.8745  -16.8178 N   0  0  0  0  0  0  0  0  0  0  0  0
   -9.1000    8.6273  -11.3613 S   0  0  0  0  0  0  0  0  0  0  0  0
   -9.3894    1.4594   -8.1827 H   0  0  0  0  0  0  0  0  0  0  0  0
   -9.3442    3.4073   -6.6430 H   0  0  0  0  0  0  0  0  0  0  0  0
   -9.0776    1.7986  -10.5912 H   0  0  0  0  0  0  0  0  0  0  0  0
   -9.0198    5.6641   -7.5410 H   0  0  0  0  0  0  0  0  0  0  0  0
   -9.2768    7.0760  -14.5790 H   0  0  0  0  0  0  0  0  0  0  0  0
  -10.0927    3.4043  -14.2459 H   0  0  0  0  0  0  0  0  0  0  0  0
   -8.6121    2.7839  -14.9911 H   0  0  0  0  0  0  0  0  0  0  0  0
   -6.4534    4.4284  -14.8782 H   0  0  0  0  0  0  0  0  0  0  0  0
   -6.7098    5.9809  -14.0672 H   0  0  0  0  0  0  0  0  0  0  0  0
  -10.1151    3.6492  -16.7219 H   0  0  0  0  0  0  0  0  0  0  0  0
  -10.2878    5.2001  -15.8932 H   0  0  0  0  0  0  0  0  0  0  0  0
   -8.2781    6.7319  -15.7865 H   0  0  0  0  0  0  0  0  0  0  0  0
   -6.7757    6.1957  -16.5453 H   0  0  0  0  0  0  0  0  0  0  0  0
  -10.6750    9.9928  -13.8599 H   0  0  0  0  0  0  0  0  0  0  0  0
   -9.1335   10.6993  -13.3158 H   0  0  0  0  0  0  0  0  0  0  0  0
   -9.1894    9.7800  -14.8188 H   0  0  0  0  0  0  0  0  0  0  0  0
   -7.8911    5.8363  -18.6182 H   0  0  0  0  0  0  0  0  0  0  0  0
   -9.2935    4.7181  -18.7147 H   0  0  0  0  0  0  0  0  0  0  0  0
   -9.4717    6.3151  -17.9119 H   0  0  0  0  0  0  0  0  0  0  0  0
   -8.3778    7.0068   -9.2969 H   0  0  0  0  0  0  0  0  0  0  0  0
  1  2  2  0  0  0  0
  1  3  1  0  0  0  0
  2  4  1  0  0  0  0
  3  7  2  0  0  0  0
  4  8  2  0  0  0  0
  5  6  1  0  0  0  0
  5  9  2  0  0  0  0
  6 10  2  0  0  0  0
  6 11  1  0  0  0  0
  7  8  1  0  0  0  0
  7 18  1  0  0  0  0
  8 19  1  0  0  0  0
  9 16  1  0  0  0  0
  9 22  1  0  0  0  0
 10 19  1  0  0  0  0
 10 22  1  0  0  0  0
 11 18  2  0  0  0  0
 11 20  1  0  0  0  0
 12 14  1  0  0  0  0
 12 20  1  0  0  0  0
 13 15  1  0  0  0  0
 13 20  1  0  0  0  0
 14 21  1  0  0  0  0
 15 21  1  0  0  0  0
 17 21  1  0  0  0  0
  1 23  1  0  0  0  0
  2 24  1  0  0  0  0
  3 25  1  0  0  0  0
  4 26  1  0  0  0  0
  5 27  1  0  0  0  0
 12 28  1  0  0  0  0
 12 29  1  0  0  0  0
 13 30  1  0  0  0  0
 13 31  1  0  0  0  0
 14 32  1  0  0  0  0
 14 33  1  0  0  0  0
 15 34  1  0  0  0  0
 15 35  1  0  0  0  0
 16 36  1  0  0  0  0
 16 37  1  0  0  0  0
 16 38  1  0  0  0  0
 17 39  1  0  0  0  0
 17 40  1  0  0  0  0
 17 41  1  0  0  0  0
 19 42  1  0  0  0  0
M  END
> <id>
EN300-119499

> <smiles>
CN1CCN(CC1)C2=NC=3C=CC=CC3NC=4SC(C)=CC24

> <MDLNUMBER>
MFCD00866702

> <IUPAC Name>
5-methyl-8-(4-methylpiperazin-1-yl)-4-thia-2,9-diazatricyclo[8.4.0.0,3,7]tetradeca-1(10),3(7),5,8,11,13-hexaene

> <CAS>
132539-06-1

> <Purity>
95

> <URL>
https://www.enaminestore.com/catalog/EN300-119499

> <ROCS_ShapeQuery>
_x0404_0B

> <ROCS_TanimotoCombo>
0.367 

> <ROCS_ShapeTanimoto>
0.331 

> <ROCS_ColorTanimoto>
0.036 

> <ROCS_RefTversky>
0.297 

> <ROCS_RefColorTversky>
0.039 

> <ROCS_RefTverskyCombo>
0.336 

> <ROCS_FitTversky>
1.525 

> <ROCS_FitColorTversky>
0.273 

> <ROCS_FitTverskyCombo>
1.799 

> <ROCS_ColorScore>
-2.850

> <ROCS_Overlap>
1982.312

> <ROCS_Rank>
430                 

$$$$
untitled-dbase-26279_84
  -OEChem-08212314543D

 46 47  0     0  0  0  0  0  0999 V2000
   -9.2202    2.9037   -7.7262 C   0  0  0  0  0  0  0  0  0  0  0  0
   -8.2376    5.7523  -14.5293 C   0  0  0  0  0  0  0  0  0  0  0  0
  -10.0569    5.2242   -7.8889 C   0  0  0  0  0  0  0  0  0  0  0  0
   -7.6326    4.6698   -8.4396 C   0  0  0  0  0  0  0  0  0  0  0  0
  -10.4050    5.2695   -9.3801 C   0  0  0  0  0  0  0  0  0  0  0  0
   -7.9035    5.7473   -9.4925 C   0  0  0  0  0  0  0  0  0  0  0  0
   -9.4720    6.7193  -11.2327 C   0  0  0  0  0  0  0  0  0  0  0  0
   -9.0264    4.2591  -11.2545 C   0  0  0  0  0  0  0  0  0  0  0  0
   -8.4442    6.9061  -12.3470 C   0  0  0  0  0  0  0  0  0  0  0  0
   -8.0042    4.4600  -12.3729 C   0  0  0  0  0  0  0  0  0  0  0  0
   -8.8571    4.3265   -7.5788 C   0  0  0  0  0  0  0  0  0  0  0  0
   -9.1858    5.4930  -10.3253 C   0  0  0  0  0  0  0  0  0  0  0  0
   -6.8491    5.3784  -17.0040 C   0  0  0  0  0  0  0  0  0  0  0  0
   -7.8168    3.0606  -16.9835 C   0  0  0  0  0  0  0  0  0  0  0  0
   -9.3436    5.0524  -17.0817 C   0  0  0  0  0  0  0  0  0  0  0  0
   -8.0196    4.5095  -16.5459 C   0  0  0  0  0  0  0  0  0  0  0  0
   -9.5056    1.7851   -7.8421 N   0  0  0  0  0  0  0  0  0  0  0  0
   -8.2701    5.6855  -13.1314 N   0  0  0  0  0  0  0  0  0  0  0  0
   -8.3476    6.7925  -15.1760 O   0  0  0  0  0  0  0  0  0  0  0  0
   -8.0660    4.5255  -15.1143 O   0  0  0  0  0  0  0  0  0  0  0  0
   -9.8420    6.2424   -7.5393 H   0  0  0  0  0  0  0  0  0  0  0  0
  -10.9394    4.8908   -7.3265 H   0  0  0  0  0  0  0  0  0  0  0  0
   -7.2588    3.7658   -8.9419 H   0  0  0  0  0  0  0  0  0  0  0  0
   -6.8184    5.0034   -7.7817 H   0  0  0  0  0  0  0  0  0  0  0  0
  -10.9053    4.3271   -9.6547 H   0  0  0  0  0  0  0  0  0  0  0  0
  -11.1552    6.0583   -9.5453 H   0  0  0  0  0  0  0  0  0  0  0  0
   -7.9427    6.7189   -8.9891 H   0  0  0  0  0  0  0  0  0  0  0  0
   -7.0391    5.7978  -10.1680 H   0  0  0  0  0  0  0  0  0  0  0  0
   -9.5262    7.6436  -10.6481 H   0  0  0  0  0  0  0  0  0  0  0  0
  -10.4599    6.5999  -11.6986 H   0  0  0  0  0  0  0  0  0  0  0  0
   -9.9967    4.0206  -11.7142 H   0  0  0  0  0  0  0  0  0  0  0  0
   -8.7440    3.3752  -10.6666 H   0  0  0  0  0  0  0  0  0  0  0  0
   -8.7548    7.7433  -12.9812 H   0  0  0  0  0  0  0  0  0  0  0  0
   -7.4627    7.1725  -11.9361 H   0  0  0  0  0  0  0  0  0  0  0  0
   -6.9890    4.5405  -11.9696 H   0  0  0  0  0  0  0  0  0  0  0  0
   -8.0148    3.5901  -13.0377 H   0  0  0  0  0  0  0  0  0  0  0  0
   -8.5826    4.4759   -6.5229 H   0  0  0  0  0  0  0  0  0  0  0  0
   -6.9909    6.4193  -16.6918 H   0  0  0  0  0  0  0  0  0  0  0  0
   -5.8975    5.0201  -16.5979 H   0  0  0  0  0  0  0  0  0  0  0  0
   -6.7759    5.3909  -18.0975 H   0  0  0  0  0  0  0  0  0  0  0  0
   -8.6543    2.4335  -16.6569 H   0  0  0  0  0  0  0  0  0  0  0  0
   -6.9164    2.6366  -16.5245 H   0  0  0  0  0  0  0  0  0  0  0  0
   -7.7241    2.9762  -18.0711 H   0  0  0  0  0  0  0  0  0  0  0  0
  -10.1833    4.4294  -16.7532 H   0  0  0  0  0  0  0  0  0  0  0  0
   -9.5234    6.0792  -16.7470 H   0  0  0  0  0  0  0  0  0  0  0  0
   -9.3565    5.0360  -18.1775 H   0  0  0  0  0  0  0  0  0  0  0  0
  1 11  1  0  0  0  0
  1 17  3  0  0  0  0
  2 18  1  0  0  0  0
  2 19  2  0  0  0  0
  2 20  1  0  0  0  0
  3  5  1  0  0  0  0
  3 11  1  0  0  0  0
  4  6  1  0  0  0  0
  4 11  1  0  0  0  0
  5 12  1  0  0  0  0
  6 12  1  0  0  0  0
  7  9  1  0  0  0  0
  7 12  1  0  0  0  0
  8 10  1  0  0  0  0
  8 12  1  0  0  0  0
  9 18  1  0  0  0  0
 10 18  1  0  0  0  0
 13 16  1  0  0  0  0
 14 16  1  0  0  0  0
 15 16  1  0  0  0  0
 16 20  1  0  0  0  0
  3 21  1  0  0  0  0
  3 22  1  0  0  0  0
  4 23  1  0  0  0  0
  4 24  1  0  0  0  0
  5 25  1  0  0  0  0
  5 26  1  0  0  0  0
  6 27  1  0  0  0  0
  6 28  1  0  0  0  0
  7 29  1  0  0  0  0
  7 30  1  0  0  0  0
  8 31  1  0  0  0  0
  8 32  1  0  0  0  0
  9 33  1  0  0  0  0
  9 34  1  0  0  0  0
 10 35  1  0  0  0  0
 10 36  1  0  0  0  0
 11 37  1  0  0  0  0
 13 38  1  0  0  0  0
 13 39  1  0  0  0  0
 13 40  1  0  0  0  0
 14 41  1  0  0  0  0
 14 42  1  0  0  0  0
 14 43  1  0  0  0  0
 15 44  1  0  0  0  0
 15 45  1  0  0  0  0
 15 46  1  0  0  0  0
M  END
> <id>
EN300-6732474

> <smiles>
CC(C)(C)OC(=O)N1CCC2(CCC(CC2)C#N)CC1

> <MDLNUMBER>
MFCD18426549

> <IUPAC Name>
tert-butyl 9-cyano-3-azaspiro[5.5]undecane-3-carboxylate

> <CAS>
1281872-59-0

> <Purity>
95

> <URL>
https://www.enaminestore.com/catalog/EN300-6732474

> <ROCS_ShapeQuery>
_x0404_0B

> <ROCS_TanimotoCombo>
0.367 

> <ROCS_ShapeTanimoto>
0.302 

> <ROCS_ColorTanimoto>
0.064 

> <ROCS_RefTversky>
0.273 

> <ROCS_RefColorTversky>
0.067 

> <ROCS_RefTverskyCombo>
0.340 

> <ROCS_FitTversky>
1.560 

> <ROCS_FitColorTversky>
0.569 

> <ROCS_FitTverskyCombo>
2.129 

> <ROCS_ColorScore>
-4.853

> <ROCS_Overlap>
1819.334

> <ROCS_Rank>
431                 

$$$$
untitled-dbase-42885_153
  -OEChem-08212314543D

 37 38  0     1  0  0  0  0  0999 V2000
   -9.4258    6.7410  -12.2950 C   0  0  0  0  0  0  0  0  0  0  0  0
   -9.5568    6.9996  -10.9254 C   0  0  0  0  0  0  0  0  0  0  0  0
   -8.3357    4.9986  -10.4298 C   0  0  0  0  0  0  0  0  0  0  0  0
   -8.2135    4.7204  -11.8034 C   0  0  0  0  0  0  0  0  0  0  0  0
   -8.7349    5.6126  -12.7697 C   0  0  0  0  0  0  0  0  0  0  0  0
   -9.0045    6.1347   -9.9925 C   0  0  0  0  0  0  0  0  0  0  0  0
   -8.8201    6.2916  -15.1979 C   0  0  0  0  0  0  0  0  0  0  0  0
   -7.4804    3.4714  -12.2028 C   0  0  0  0  0  0  0  0  0  0  0  0
   -7.9496    4.0545  -14.5678 C   0  0  0  0  0  0  0  0  0  0  0  0
   -8.0320    2.9602  -13.5176 C   0  0  1  0  0  0  0  0  0  0  0  0
   -6.7878    6.3200  -16.8746 C   0  0  0  0  0  0  0  0  0  0  0  0
   -8.0828    4.8018  -18.4001 C   0  0  0  0  0  0  0  0  0  0  0  0
   -8.7054    7.2289  -18.2278 C   0  0  0  0  0  0  0  0  0  0  0  0
   -8.1588    6.0157  -17.4767 C   0  0  0  0  0  0  0  0  0  0  0  0
   -8.5571    5.3403  -14.1819 N   0  0  0  0  0  0  0  0  0  0  0  0
   -8.8224    7.5132  -15.0782 O   0  0  0  0  0  0  0  0  0  0  0  0
   -7.2829    1.8278  -13.9451 O   0  0  0  0  0  0  0  0  0  0  0  0
   -9.0625    5.6927  -16.4127 O   0  0  0  0  0  0  0  0  0  0  0  0
   -9.1258    6.3855   -8.6831 F   0  0  0  0  0  0  0  0  0  0  0  0
   -9.9209    7.4433  -12.9558 H   0  0  0  0  0  0  0  0  0  0  0  0
  -10.1057    7.8766  -10.5926 H   0  0  0  0  0  0  0  0  0  0  0  0
   -7.9066    4.3240   -9.6939 H   0  0  0  0  0  0  0  0  0  0  0  0
   -6.4205    3.6847  -12.3092 H   0  0  0  0  0  0  0  0  0  0  0  0
   -7.6323    2.7272  -11.4257 H   0  0  0  0  0  0  0  0  0  0  0  0
   -6.8844    4.2079  -14.8148 H   0  0  0  0  0  0  0  0  0  0  0  0
   -8.4424    3.7362  -15.5054 H   0  0  0  0  0  0  0  0  0  0  0  0
   -9.0623    2.6397  -13.3837 H   0  0  0  0  0  0  0  0  0  0  0  0
   -6.8381    7.1907  -16.2111 H   0  0  0  0  0  0  0  0  0  0  0  0
   -6.4002    5.4698  -16.3038 H   0  0  0  0  0  0  0  0  0  0  0  0
   -6.0634    6.5699  -17.6582 H   0  0  0  0  0  0  0  0  0  0  0  0
   -9.0643    4.5798  -18.8344 H   0  0  0  0  0  0  0  0  0  0  0  0
   -7.7817    3.9066  -17.8441 H   0  0  0  0  0  0  0  0  0  0  0  0
   -7.3701    4.9590  -19.2162 H   0  0  0  0  0  0  0  0  0  0  0  0
   -9.6888    7.0108  -18.6598 H   0  0  0  0  0  0  0  0  0  0  0  0
   -8.8017    8.0999  -17.5715 H   0  0  0  0  0  0  0  0  0  0  0  0
   -8.0516    7.4951  -19.0662 H   0  0  0  0  0  0  0  0  0  0  0  0
   -7.3744    1.1586  -13.2496 H   0  0  0  0  0  0  0  0  0  0  0  0
  1  2  1  0  0  0  0
  1  5  2  0  0  0  0
  2  6  2  0  0  0  0
  3  4  2  0  0  0  0
  3  6  1  0  0  0  0
  4  5  1  0  0  0  0
  4  8  1  0  0  0  0
  5 15  1  0  0  0  0
  6 19  1  0  0  0  0
  7 15  1  0  0  0  0
  7 16  2  0  0  0  0
  7 18  1  0  0  0  0
  8 10  1  0  0  0  0
  9 10  1  0  0  0  0
  9 15  1  0  0  0  0
 10 17  1  0  0  0  0
 11 14  1  0  0  0  0
 12 14  1  0  0  0  0
 13 14  1  0  0  0  0
 14 18  1  0  0  0  0
  1 20  1  0  0  0  0
  2 21  1  0  0  0  0
  3 22  1  0  0  0  0
  8 23  1  0  0  0  0
  8 24  1  0  0  0  0
  9 25  1  0  0  0  0
  9 26  1  0  0  0  0
 10 27  1  0  0  0  0
 11 28  1  0  0  0  0
 11 29  1  0  0  0  0
 11 30  1  0  0  0  0
 12 31  1  0  0  0  0
 12 32  1  0  0  0  0
 12 33  1  0  0  0  0
 13 34  1  0  0  0  0
 13 35  1  0  0  0  0
 13 36  1  0  0  0  0
 17 37  1  0  0  0  0
M  END
> <id>
EN300-27718515

> <smiles>
CC(C)(C)OC(=O)N1CC(O)CC=2C=C(F)C=CC12

> <IUPAC Name>
tert-butyl 6-fluoro-3-hydroxy-1,2,3,4-tetrahydroquinoline-1-carboxylate

> <CAS>
2580199-38-6

> <URL>
https://www.enaminestore.com/catalog/EN300-27718515

> <ROCS_ShapeQuery>
_x0404_0B

> <ROCS_TanimotoCombo>
0.366 

> <ROCS_ShapeTanimoto>
0.264 

> <ROCS_ColorTanimoto>
0.103 

> <ROCS_RefTversky>
0.245 

> <ROCS_RefColorTversky>
0.105 

> <ROCS_RefTverskyCombo>
0.350 

> <ROCS_FitTversky>
1.413 

> <ROCS_FitColorTversky>
0.801 

> <ROCS_FitTverskyCombo>
2.214 

> <ROCS_ColorScore>
-7.594

> <ROCS_Overlap>
1633.530

> <ROCS_Rank>
432                 

$$$$
untitled-dbase-4578_28
  -OEChem-08212314543D

 40 41  0     0  0  0  0  0  0999 V2000
   -8.1957    5.6170   -8.8007 C   0  0  0  0  0  0  0  0  0  0  0  0
   -8.4839    4.6767   -7.8126 C   0  0  0  0  0  0  0  0  0  0  0  0
   -9.0734    3.0831   -9.5192 C   0  0  0  0  0  0  0  0  0  0  0  0
   -8.3478    5.3079  -10.1649 C   0  0  0  0  0  0  0  0  0  0  0  0
   -8.7936    4.0210  -10.5298 C   0  0  0  0  0  0  0  0  0  0  0  0
   -8.9231    3.4091   -8.1720 C   0  0  0  0  0  0  0  0  0  0  0  0
   -8.8563    5.8827  -14.4552 C   0  0  0  0  0  0  0  0  0  0  0  0
   -8.0044    6.3697  -11.1845 C   0  0  0  0  0  0  0  0  0  0  0  0
   -8.9615    3.5959  -11.9705 C   0  0  0  0  0  0  0  0  0  0  0  0
   -9.1721    6.7328  -12.1014 C   0  0  0  0  0  0  0  0  0  0  0  0
   -9.9531    4.4571  -12.7529 C   0  0  0  0  0  0  0  0  0  0  0  0
   -8.0097    5.7070  -17.1835 C   0  0  0  0  0  0  0  0  0  0  0  0
   -9.6484    3.8132  -17.3766 C   0  0  0  0  0  0  0  0  0  0  0  0
  -10.4651    6.1216  -16.8176 C   0  0  0  0  0  0  0  0  0  0  0  0
   -9.3206    5.1215  -16.6604 C   0  0  0  0  0  0  0  0  0  0  0  0
   -9.3593    5.7312  -13.1551 N   0  0  0  0  0  0  0  0  0  0  0  0
   -8.2145    6.8587  -14.8404 O   0  0  0  0  0  0  0  0  0  0  0  0
   -9.2024    2.4861   -7.2120 O   0  0  0  0  0  0  0  0  0  0  0  0
   -9.1633    4.8237  -15.2684 O   0  0  0  0  0  0  0  0  0  0  0  0
   -7.8491    6.6019   -8.4956 H   0  0  0  0  0  0  0  0  0  0  0  0
   -8.3596    4.9405   -6.7660 H   0  0  0  0  0  0  0  0  0  0  0  0
   -9.4134    2.0836   -9.7832 H   0  0  0  0  0  0  0  0  0  0  0  0
   -7.6955    7.2855  -10.6645 H   0  0  0  0  0  0  0  0  0  0  0  0
   -7.1295    6.0497  -11.7641 H   0  0  0  0  0  0  0  0  0  0  0  0
   -7.9799    3.5790  -12.4608 H   0  0  0  0  0  0  0  0  0  0  0  0
   -9.3255    2.5609  -12.0040 H   0  0  0  0  0  0  0  0  0  0  0  0
  -10.1115    6.8296  -11.5443 H   0  0  0  0  0  0  0  0  0  0  0  0
   -8.9731    7.7080  -12.5568 H   0  0  0  0  0  0  0  0  0  0  0  0
  -10.2570    3.9098  -13.6521 H   0  0  0  0  0  0  0  0  0  0  0  0
  -10.8628    4.6604  -12.1759 H   0  0  0  0  0  0  0  0  0  0  0  0
   -7.7708    6.6463  -16.6719 H   0  0  0  0  0  0  0  0  0  0  0  0
   -7.1742    5.0132  -17.0446 H   0  0  0  0  0  0  0  0  0  0  0  0
   -8.0867    5.9470  -18.2501 H   0  0  0  0  0  0  0  0  0  0  0  0
  -10.5882    3.3895  -17.0044 H   0  0  0  0  0  0  0  0  0  0  0  0
   -8.8744    3.0604  -17.1880 H   0  0  0  0  0  0  0  0  0  0  0  0
   -9.7369    3.9560  -18.4584 H   0  0  0  0  0  0  0  0  0  0  0  0
  -11.4055    5.7019  -16.4425 H   0  0  0  0  0  0  0  0  0  0  0  0
  -10.2634    7.0533  -16.2792 H   0  0  0  0  0  0  0  0  0  0  0  0
  -10.6324    6.3593  -17.8744 H   0  0  0  0  0  0  0  0  0  0  0  0
   -9.0471    2.8601   -6.3299 H   0  0  0  0  0  0  0  0  0  0  0  0
  1  2  1  0  0  0  0
  1  4  2  0  0  0  0
  2  6  2  0  0  0  0
  3  5  2  0  0  0  0
  3  6  1  0  0  0  0
  4  5  1  0  0  0  0
  4  8  1  0  0  0  0
  5  9  1  0  0  0  0
  6 18  1  0  0  0  0
  7 16  1  0  0  0  0
  7 17  2  0  0  0  0
  7 19  1  0  0  0  0
  8 10  1  0  0  0  0
  9 11  1  0  0  0  0
 10 16  1  0  0  0  0
 11 16  1  0  0  0  0
 12 15  1  0  0  0  0
 13 15  1  0  0  0  0
 14 15  1  0  0  0  0
 15 19  1  0  0  0  0
  1 20  1  0  0  0  0
  2 21  1  0  0  0  0
  3 22  1  0  0  0  0
  8 23  1  0  0  0  0
  8 24  1  0  0  0  0
  9 25  1  0  0  0  0
  9 26  1  0  0  0  0
 10 27  1  0  0  0  0
 10 28  1  0  0  0  0
 11 29  1  0  0  0  0
 11 30  1  0  0  0  0
 12 31  1  0  0  0  0
 12 32  1  0  0  0  0
 12 33  1  0  0  0  0
 13 34  1  0  0  0  0
 13 35  1  0  0  0  0
 13 36  1  0  0  0  0
 14 37  1  0  0  0  0
 14 38  1  0  0  0  0
 14 39  1  0  0  0  0
 18 40  1  0  0  0  0
M  END
> <id>
EN300-194201

> <smiles>
CC(C)(C)OC(=O)N1CCC=2C=CC(O)=CC2CC1

> <MDLNUMBER>
MFCD12408171

> <IUPAC Name>
tert-butyl 7-hydroxy-2,3,4,5-tetrahydro-1H-3-benzazepine-3-carboxylate

> <CAS>
149354-10-9

> <Purity>
95

> <URL>
https://www.enaminestore.com/catalog/EN300-194201

> <MP>
145-147

> <ROCS_ShapeQuery>
_x0404_0B

> <ROCS_TanimotoCombo>
0.366 

> <ROCS_ShapeTanimoto>
0.301 

> <ROCS_ColorTanimoto>
0.065 

> <ROCS_RefTversky>
0.271 

> <ROCS_RefColorTversky>
0.069 

> <ROCS_RefTverskyCombo>
0.341 

> <ROCS_FitTversky>
1.579 

> <ROCS_FitColorTversky>
0.527 

> <ROCS_FitTverskyCombo>
2.106 

> <ROCS_ColorScore>
-4.996

> <ROCS_Overlap>
1808.710

> <ROCS_Rank>
433                 

$$$$
untitled-dbase-5149_0
  -OEChem-08212314543D

 31 32  0     0  0  0  0  0  0999 V2000
   -9.1763    3.4251   -9.4541 C   0  0  0  0  0  0  0  0  0  0  0  0
   -8.5881    6.5220  -12.2524 C   0  0  0  0  0  0  0  0  0  0  0  0
   -8.8553    2.9433  -12.5242 C   0  0  0  0  0  0  0  0  0  0  0  0
   -8.7343    6.7060  -10.8857 C   0  0  0  0  0  0  0  0  0  0  0  0
   -8.6738    3.2643  -13.8465 C   0  0  0  0  0  0  0  0  0  0  0  0
   -8.9772    4.4438  -10.4239 C   0  0  0  0  0  0  0  0  0  0  0  0
   -8.8417    4.1488  -11.7853 C   0  0  0  0  0  0  0  0  0  0  0  0
   -8.6473    5.1955  -12.6956 C   0  0  0  0  0  0  0  0  0  0  0  0
   -8.3461    5.3346  -15.1761 C   0  0  0  0  0  0  0  0  0  0  0  0
   -6.7709    5.8187  -17.4858 C   0  0  0  0  0  0  0  0  0  0  0  0
   -8.0658    3.9387  -18.5337 C   0  0  0  0  0  0  0  0  0  0  0  0
   -9.2627    6.0144  -17.7806 C   0  0  0  0  0  0  0  0  0  0  0  0
   -8.0993    5.0639  -17.5017 C   0  0  0  0  0  0  0  0  0  0  0  0
   -9.3391    2.5929   -8.6618 N   0  0  0  0  0  0  0  0  0  0  0  0
   -8.9231    5.7207   -9.9840 N   0  0  0  0  0  0  0  0  0  0  0  0
   -8.5445    4.6364  -13.9732 N   0  0  0  0  0  0  0  0  0  0  0  0
   -8.2419    6.5499  -15.1995 O   0  0  0  0  0  0  0  0  0  0  0  0
   -8.2980    4.4651  -16.2175 O   0  0  0  0  0  0  0  0  0  0  0  0
   -8.4396    7.3644  -12.9147 H   0  0  0  0  0  0  0  0  0  0  0  0
   -8.9839    1.9404  -12.1401 H   0  0  0  0  0  0  0  0  0  0  0  0
   -8.7008    7.7066  -10.4646 H   0  0  0  0  0  0  0  0  0  0  0  0
   -8.6270    2.6135  -14.7094 H   0  0  0  0  0  0  0  0  0  0  0  0
   -6.7909    6.6272  -16.7463 H   0  0  0  0  0  0  0  0  0  0  0  0
   -5.9323    5.1546  -17.2523 H   0  0  0  0  0  0  0  0  0  0  0  0
   -6.5782    6.2916  -18.4556 H   0  0  0  0  0  0  0  0  0  0  0  0
   -9.0169    3.3944  -18.5485 H   0  0  0  0  0  0  0  0  0  0  0  0
   -7.2929    3.2028  -18.2838 H   0  0  0  0  0  0  0  0  0  0  0  0
   -7.8688    4.3200  -19.5408 H   0  0  0  0  0  0  0  0  0  0  0  0
  -10.2157    5.4731  -17.7920 H   0  0  0  0  0  0  0  0  0  0  0  0
   -9.3248    6.8075  -17.0285 H   0  0  0  0  0  0  0  0  0  0  0  0
   -9.1587    6.4783  -18.7681 H   0  0  0  0  0  0  0  0  0  0  0  0
  1  6  1  0  0  0  0
  1 14  3  0  0  0  0
  2  4  1  0  0  0  0
  2  8  2  0  0  0  0
  3  5  2  0  0  0  0
  3  7  1  0  0  0  0
  4 15  2  0  0  0  0
  5 16  1  0  0  0  0
  6  7  2  0  0  0  0
  6 15  1  0  0  0  0
  7  8  1  0  0  0  0
  8 16  1  0  0  0  0
  9 16  1  0  0  0  0
  9 17  2  0  0  0  0
  9 18  1  0  0  0  0
 10 13  1  0  0  0  0
 11 13  1  0  0  0  0
 12 13  1  0  0  0  0
 13 18  1  0  0  0  0
  2 19  1  0  0  0  0
  3 20  1  0  0  0  0
  4 21  1  0  0  0  0
  5 22  1  0  0  0  0
 10 23  1  0  0  0  0
 10 24  1  0  0  0  0
 10 25  1  0  0  0  0
 11 26  1  0  0  0  0
 11 27  1  0  0  0  0
 11 28  1  0  0  0  0
 12 29  1  0  0  0  0
 12 30  1  0  0  0  0
 12 31  1  0  0  0  0
M  END
> <id>
EN300-203331

> <smiles>
CC(C)(C)OC(=O)N1C=CC=2C(C#N)=NC=CC12

> <MDLNUMBER>
MFCD28397385

> <IUPAC Name>
tert-butyl 4-cyano-1H-pyrrolo[3,2-c]pyridine-1-carboxylate

> <CAS>
1803586-12-0

> <Purity>
95

> <URL>
https://www.enaminestore.com/catalog/EN300-203331

> <ROCS_ShapeQuery>
_x0404_0B

> <ROCS_TanimotoCombo>
0.366 

> <ROCS_ShapeTanimoto>
0.308 

> <ROCS_ColorTanimoto>
0.059 

> <ROCS_RefTversky>
0.275 

> <ROCS_RefColorTversky>
0.063 

> <ROCS_RefTverskyCombo>
0.338 

> <ROCS_FitTversky>
1.620 

> <ROCS_FitColorTversky>
0.475 

> <ROCS_FitTverskyCombo>
2.095 

> <ROCS_ColorScore>
-4.511

> <ROCS_Overlap>
1836.555

> <ROCS_Rank>
434                 

$$$$
untitled-dbase-45048_2
  -OEChem-08212314543D

 37 38  0     0  0  0  0  0  0999 V2000
   -9.1659    3.0732   -8.5696 C   0  0  0  0  0  0  0  0  0  0  0  0
   -8.2144    6.6420   -8.2889 C   0  0  0  0  0  0  0  0  0  0  0  0
   -8.5139    5.3220   -7.9618 C   0  0  0  0  0  0  0  0  0  0  0  0
   -8.2851    7.0649   -9.6160 C   0  0  0  0  0  0  0  0  0  0  0  0
   -8.8895    4.4242   -8.9603 C   0  0  0  0  0  0  0  0  0  0  0  0
   -8.6579    6.1709  -10.6302 C   0  0  0  0  0  0  0  0  0  0  0  0
   -8.9770    4.8430  -10.2949 C   0  0  0  0  0  0  0  0  0  0  0  0
   -8.6866    5.7089  -14.3864 C   0  0  0  0  0  0  0  0  0  0  0  0
   -9.3564    3.8567  -11.3681 C   0  0  0  0  0  0  0  0  0  0  0  0
   -8.7201    6.6626  -12.0555 C   0  0  0  0  0  0  0  0  0  0  0  0
   -9.9453    4.5603  -12.5845 C   0  0  0  0  0  0  0  0  0  0  0  0
   -7.2381    4.6769  -16.6281 C   0  0  0  0  0  0  0  0  0  0  0  0
   -9.3062    3.3362  -17.1126 C   0  0  0  0  0  0  0  0  0  0  0  0
   -9.4028    5.8455  -17.1598 C   0  0  0  0  0  0  0  0  0  0  0  0
   -8.7600    4.6252  -16.5023 C   0  0  0  0  0  0  0  0  0  0  0  0
   -9.3897    1.9793   -8.2533 N   0  0  0  0  0  0  0  0  0  0  0  0
   -9.0552    5.6254  -13.0393 N   0  0  0  0  0  0  0  0  0  0  0  0
   -8.0552    6.6427  -14.8774 O   0  0  0  0  0  0  0  0  0  0  0  0
   -9.1025    4.6231  -15.1117 O   0  0  0  0  0  0  0  0  0  0  0  0
   -7.9223    7.3419   -7.5115 H   0  0  0  0  0  0  0  0  0  0  0  0
   -8.4460    5.0080   -6.9227 H   0  0  0  0  0  0  0  0  0  0  0  0
   -8.0445    8.0974   -9.8577 H   0  0  0  0  0  0  0  0  0  0  0  0
   -8.4655    3.2862  -11.6581 H   0  0  0  0  0  0  0  0  0  0  0  0
  -10.1084    3.1481  -11.0029 H   0  0  0  0  0  0  0  0  0  0  0  0
   -9.4965    7.4324  -12.1381 H   0  0  0  0  0  0  0  0  0  0  0  0
   -7.7583    7.1149  -12.3204 H   0  0  0  0  0  0  0  0  0  0  0  0
  -10.1261    3.8348  -13.3842 H   0  0  0  0  0  0  0  0  0  0  0  0
  -10.9085    5.0257  -12.3407 H   0  0  0  0  0  0  0  0  0  0  0  0
   -6.8421    5.6007  -16.1912 H   0  0  0  0  0  0  0  0  0  0  0  0
   -6.7630    3.8253  -16.1303 H   0  0  0  0  0  0  0  0  0  0  0  0
   -6.9325    4.6770  -17.6806 H   0  0  0  0  0  0  0  0  0  0  0  0
  -10.3979    3.2949  -17.0245 H   0  0  0  0  0  0  0  0  0  0  0  0
   -8.9202    2.4587  -16.5813 H   0  0  0  0  0  0  0  0  0  0  0  0
   -9.0400    3.2457  -18.1706 H   0  0  0  0  0  0  0  0  0  0  0  0
  -10.4945    5.8087  -17.0697 H   0  0  0  0  0  0  0  0  0  0  0  0
   -9.0502    6.7790  -16.7094 H   0  0  0  0  0  0  0  0  0  0  0  0
   -9.1819    5.8715  -18.2330 H   0  0  0  0  0  0  0  0  0  0  0  0
  1  5  1  0  0  0  0
  1 16  3  0  0  0  0
  2  3  2  0  0  0  0
  2  4  1  0  0  0  0
  3  5  1  0  0  0  0
  4  6  2  0  0  0  0
  5  7  2  0  0  0  0
  6  7  1  0  0  0  0
  6 10  1  0  0  0  0
  7  9  1  0  0  0  0
  8 17  1  0  0  0  0
  8 18  2  0  0  0  0
  8 19  1  0  0  0  0
  9 11  1  0  0  0  0
 10 17  1  0  0  0  0
 11 17  1  0  0  0  0
 12 15  1  0  0  0  0
 13 15  1  0  0  0  0
 14 15  1  0  0  0  0
 15 19  1  0  0  0  0
  2 20  1  0  0  0  0
  3 21  1  0  0  0  0
  4 22  1  0  0  0  0
  9 23  1  0  0  0  0
  9 24  1  0  0  0  0
 10 25  1  0  0  0  0
 10 26  1  0  0  0  0
 11 27  1  0  0  0  0
 11 28  1  0  0  0  0
 12 29  1  0  0  0  0
 12 30  1  0  0  0  0
 12 31  1  0  0  0  0
 13 32  1  0  0  0  0
 13 33  1  0  0  0  0
 13 34  1  0  0  0  0
 14 35  1  0  0  0  0
 14 36  1  0  0  0  0
 14 37  1  0  0  0  0
M  END
> <id>
EN300-12464877

> <smiles>
CC(C)(C)OC(=O)N1CCC=2C(C#N)=CC=CC2C1

> <MDLNUMBER>
MFCD24466046

> <IUPAC Name>
tert-butyl 5-cyano-1,2,3,4-tetrahydroisoquinoline-2-carboxylate

> <CAS>
601514-57-2

> <URL>
https://www.enaminestore.com/catalog/EN300-12464877

> <ROCS_ShapeQuery>
_x0404_0B

> <ROCS_TanimotoCombo>
0.366 

> <ROCS_ShapeTanimoto>
0.302 

> <ROCS_ColorTanimoto>
0.064 

> <ROCS_RefTversky>
0.272 

> <ROCS_RefColorTversky>
0.068 

> <ROCS_RefTverskyCombo>
0.340 

> <ROCS_FitTversky>
1.575 

> <ROCS_FitColorTversky>
0.571 

> <ROCS_FitTverskyCombo>
2.146 

> <ROCS_ColorScore>
-4.875

> <ROCS_Overlap>
1813.735

> <ROCS_Rank>
435                 

$$$$
untitled-dbase-8790_17
  -OEChem-08212314543D

 38 40  0     0  0  0  0  0  0999 V2000
   -8.0019    3.2992  -16.6328 C   0  0  0  0  0  0  0  0  0  0  0  0
   -8.2697    3.8948  -17.8652 C   0  0  0  0  0  0  0  0  0  0  0  0
   -7.9312    4.0922  -15.4845 C   0  0  0  0  0  0  0  0  0  0  0  0
   -8.1414    5.4697  -15.5607 C   0  0  0  0  0  0  0  0  0  0  0  0
   -8.4594    5.2741  -17.9499 C   0  0  0  0  0  0  0  0  0  0  0  0
   -8.3917    6.0616  -16.8001 C   0  0  0  0  0  0  0  0  0  0  0  0
   -7.5996    3.4919  -14.1804 C   0  0  0  0  0  0  0  0  0  0  0  0
   -9.2266    5.1062   -9.2317 C   0  0  0  0  0  0  0  0  0  0  0  0
   -7.3696    4.4646  -13.0551 C   0  0  0  0  0  0  0  0  0  0  0  0
   -9.7907    5.3519  -12.9933 C   0  0  0  0  0  0  0  0  0  0  0  0
   -7.8759    6.7597  -12.1438 C   0  0  0  0  0  0  0  0  0  0  0  0
  -10.0929    4.8394  -11.5865 C   0  0  0  0  0  0  0  0  0  0  0  0
   -8.8013    6.8529  -10.9284 C   0  0  0  0  0  0  0  0  0  0  0  0
   -8.2938    5.6888  -13.1908 C   0  0  0  0  0  0  0  0  0  0  0  0
   -9.9116    3.8000   -8.9103 C   0  0  0  0  0  0  0  0  0  0  0  0
   -9.3468    5.5550  -10.5480 N   0  0  0  0  0  0  0  0  0  0  0  0
   -7.4599    2.2822  -14.0475 O   0  0  0  0  0  0  0  0  0  0  0  0
   -8.6020    5.6986   -8.3488 O   0  0  0  0  0  0  0  0  0  0  0  0
   -8.1063    6.3095  -14.4807 O   0  0  0  0  0  0  0  0  0  0  0  0
   -8.7119    5.8402  -19.1633 O   0  0  0  0  0  0  0  0  0  0  0  0
   -8.5848    7.4090  -16.8916 O   0  0  0  0  0  0  0  0  0  0  0  0
   -7.8424    2.2257  -16.5894 H   0  0  0  0  0  0  0  0  0  0  0  0
   -8.3224    3.2783  -18.7587 H   0  0  0  0  0  0  0  0  0  0  0  0
   -7.5446    3.9559  -12.1027 H   0  0  0  0  0  0  0  0  0  0  0  0
   -6.3171    4.7626  -13.1064 H   0  0  0  0  0  0  0  0  0  0  0  0
  -10.1005    4.5918  -13.7243 H   0  0  0  0  0  0  0  0  0  0  0  0
  -10.4205    6.2326  -13.1713 H   0  0  0  0  0  0  0  0  0  0  0  0
   -7.8480    7.7532  -12.6259 H   0  0  0  0  0  0  0  0  0  0  0  0
   -6.8474    6.5566  -11.7943 H   0  0  0  0  0  0  0  0  0  0  0  0
  -11.1643    4.9537  -11.3518 H   0  0  0  0  0  0  0  0  0  0  0  0
   -9.8817    3.7595  -11.5382 H   0  0  0  0  0  0  0  0  0  0  0  0
   -8.2540    7.3265  -10.1034 H   0  0  0  0  0  0  0  0  0  0  0  0
   -9.6566    7.5125  -11.1463 H   0  0  0  0  0  0  0  0  0  0  0  0
   -9.2192    2.9835   -9.0865 H   0  0  0  0  0  0  0  0  0  0  0  0
  -10.7840    3.6903   -9.5465 H   0  0  0  0  0  0  0  0  0  0  0  0
  -10.2197    3.8073   -7.8698 H   0  0  0  0  0  0  0  0  0  0  0  0
   -8.8211    6.7994  -19.0691 H   0  0  0  0  0  0  0  0  0  0  0  0
   -8.5182    7.8154  -16.0140 H   0  0  0  0  0  0  0  0  0  0  0  0
  1  2  1  0  0  0  0
  1  3  2  0  0  0  0
  2  5  2  0  0  0  0
  3  4  1  0  0  0  0
  3  7  1  0  0  0  0
  4  6  2  0  0  0  0
  4 19  1  0  0  0  0
  5  6  1  0  0  0  0
  5 20  1  0  0  0  0
  6 21  1  0  0  0  0
  7  9  1  0  0  0  0
  7 17  2  0  0  0  0
  8 15  1  0  0  0  0
  8 16  1  0  0  0  0
  8 18  2  0  0  0  0
  9 14  1  0  0  0  0
 10 12  1  0  0  0  0
 10 14  1  0  0  0  0
 11 13  1  0  0  0  0
 11 14  1  0  0  0  0
 12 16  1  0  0  0  0
 13 16  1  0  0  0  0
 14 19  1  0  0  0  0
  1 22  1  0  0  0  0
  2 23  1  0  0  0  0
  9 24  1  0  0  0  0
  9 25  1  0  0  0  0
 10 26  1  0  0  0  0
 10 27  1  0  0  0  0
 11 28  1  0  0  0  0
 11 29  1  0  0  0  0
 12 30  1  0  0  0  0
 12 31  1  0  0  0  0
 13 32  1  0  0  0  0
 13 33  1  0  0  0  0
 15 34  1  0  0  0  0
 15 35  1  0  0  0  0
 15 36  1  0  0  0  0
 20 37  1  0  0  0  0
 21 38  1  0  0  0  0
M  END
> <id>
EN300-303114

> <smiles>
CC(=O)N1CCC2(CC1)CC(=O)C=3C=CC(O)=C(O)C3O2

> <MDLNUMBER>
MFCD08741816

> <IUPAC Name>
1'-acetyl-7,8-dihydroxy-3,4-dihydrospiro[1-benzopyran-2,4'-piperidin]-4-one

> <CAS>
924775-38-2

> <URL>
https://www.enaminestore.com/catalog/EN300-303114

> <ROCS_ShapeQuery>
_x0404_0B

> <ROCS_TanimotoCombo>
0.366 

> <ROCS_ShapeTanimoto>
0.281 

> <ROCS_ColorTanimoto>
0.085 

> <ROCS_RefTversky>
0.261 

> <ROCS_RefColorTversky>
0.093 

> <ROCS_RefTverskyCombo>
0.354 

> <ROCS_FitTversky>
1.380 

> <ROCS_FitColorTversky>
0.506 

> <ROCS_FitTverskyCombo>
1.887 

> <ROCS_ColorScore>
-6.729

> <ROCS_Overlap>
1740.843

> <ROCS_Rank>
436                 

$$$$
untitled-dbase-15510_14
  -OEChem-08212314543D

 36 37  0     0  0  0  0  0  0999 V2000
   -7.6924    5.3328  -15.6904 C   0  0  0  0  0  0  0  0  0  0  0  0
   -8.0974    4.4110  -13.1450 C   0  0  0  0  0  0  0  0  0  0  0  0
   -7.6632    3.5331  -14.1419 C   0  0  0  0  0  0  0  0  0  0  0  0
   -7.4551    3.9944  -15.4359 C   0  0  0  0  0  0  0  0  0  0  0  0
   -8.3192    5.7420  -13.5055 C   0  0  0  0  0  0  0  0  0  0  0  0
   -8.5248    4.8259   -9.4101 C   0  0  0  0  0  0  0  0  0  0  0  0
   -8.3298    3.9089  -11.7465 C   0  0  0  0  0  0  0  0  0  0  0  0
   -8.7641    6.7398  -12.4719 C   0  0  0  0  0  0  0  0  0  0  0  0
   -9.5021    6.0692  -11.3202 C   0  0  0  0  0  0  0  0  0  0  0  0
  -10.1730    3.0278   -8.4438 C   0  0  0  0  0  0  0  0  0  0  0  0
   -8.3127    1.3422   -8.5298 C   0  0  0  0  0  0  0  0  0  0  0  0
   -8.3094    3.1190   -6.7546 C   0  0  0  0  0  0  0  0  0  0  0  0
   -8.6845    2.7857   -8.1979 C   0  0  0  0  0  0  0  0  0  0  0  0
   -8.1151    6.2162  -14.7596 N   0  0  0  0  0  0  0  0  0  0  0  0
   -8.7250    4.9506  -10.7897 N   0  0  0  0  0  0  0  0  0  0  0  0
   -8.8430    5.6771   -8.5820 O   0  0  0  0  0  0  0  0  0  0  0  0
   -7.4433    2.2207  -13.8359 O   0  0  0  0  0  0  0  0  0  0  0  0
   -7.9340    3.6364   -9.0721 O   0  0  0  0  0  0  0  0  0  0  0  0
   -6.8691    2.8624  -16.8297 Br  0  0  0  0  0  0  0  0  0  0  0  0
   -7.5497    5.7598  -16.6786 H   0  0  0  0  0  0  0  0  0  0  0  0
   -9.1013    3.1316  -11.7642 H   0  0  0  0  0  0  0  0  0  0  0  0
   -7.4038    3.4683  -11.3582 H   0  0  0  0  0  0  0  0  0  0  0  0
   -7.8930    7.2778  -12.0803 H   0  0  0  0  0  0  0  0  0  0  0  0
   -9.4174    7.4745  -12.9571 H   0  0  0  0  0  0  0  0  0  0  0  0
   -9.6564    6.7735  -10.4930 H   0  0  0  0  0  0  0  0  0  0  0  0
  -10.4902    5.7357  -11.6535 H   0  0  0  0  0  0  0  0  0  0  0  0
  -10.4439    4.0628   -8.2068 H   0  0  0  0  0  0  0  0  0  0  0  0
  -10.4480    2.8259   -9.4842 H   0  0  0  0  0  0  0  0  0  0  0  0
  -10.7851    2.3916   -7.7944 H   0  0  0  0  0  0  0  0  0  0  0  0
   -7.2455    1.1641   -8.3548 H   0  0  0  0  0  0  0  0  0  0  0  0
   -8.4919    1.1267   -9.5894 H   0  0  0  0  0  0  0  0  0  0  0  0
   -8.8863    0.6290   -7.9291 H   0  0  0  0  0  0  0  0  0  0  0  0
   -7.2418    2.9455   -6.5780 H   0  0  0  0  0  0  0  0  0  0  0  0
   -8.5352    4.1619   -6.5098 H   0  0  0  0  0  0  0  0  0  0  0  0
   -8.8481    2.4721   -6.0528 H   0  0  0  0  0  0  0  0  0  0  0  0
   -7.1478    1.7410  -14.6243 H   0  0  0  0  0  0  0  0  0  0  0  0
  1  4  2  0  0  0  0
  1 14  1  0  0  0  0
  2  3  2  0  0  0  0
  2  5  1  0  0  0  0
  2  7  1  0  0  0  0
  3  4  1  0  0  0  0
  3 17  1  0  0  0  0
  4 19  1  0  0  0  0
  5  8  1  0  0  0  0
  5 14  2  0  0  0  0
  6 15  1  0  0  0  0
  6 16  2  0  0  0  0
  6 18  1  0  0  0  0
  7 15  1  0  0  0  0
  8  9  1  0  0  0  0
  9 15  1  0  0  0  0
 10 13  1  0  0  0  0
 11 13  1  0  0  0  0
 12 13  1  0  0  0  0
 13 18  1  0  0  0  0
  1 20  1  0  0  0  0
  7 21  1  0  0  0  0
  7 22  1  0  0  0  0
  8 23  1  0  0  0  0
  8 24  1  0  0  0  0
  9 25  1  0  0  0  0
  9 26  1  0  0  0  0
 10 27  1  0  0  0  0
 10 28  1  0  0  0  0
 10 29  1  0  0  0  0
 11 30  1  0  0  0  0
 11 31  1  0  0  0  0
 11 32  1  0  0  0  0
 12 33  1  0  0  0  0
 12 34  1  0  0  0  0
 12 35  1  0  0  0  0
 17 36  1  0  0  0  0
M  END
> <id>
EN300-1072681

> <smiles>
CC(C)(C)OC(=O)N1CCC=2N=CC(Br)=C(O)C2C1

> <MDLNUMBER>
MFCD31558905

> <IUPAC Name>
tert-butyl 3-bromo-4-hydroxy-5,6,7,8-tetrahydro-1,6-naphthyridine-6-carboxylate

> <CAS>
2138035-81-9

> <Purity>
95

> <URL>
https://www.enaminestore.com/catalog/EN300-1072681

> <ROCS_ShapeQuery>
_x0404_0B

> <ROCS_TanimotoCombo>
0.366 

> <ROCS_ShapeTanimoto>
0.255 

> <ROCS_ColorTanimoto>
0.111 

> <ROCS_RefTversky>
0.238 

> <ROCS_RefColorTversky>
0.116 

> <ROCS_RefTverskyCombo>
0.354 

> <ROCS_FitTversky>
1.386 

> <ROCS_FitColorTversky>
0.734 

> <ROCS_FitTverskyCombo>
2.120 

> <ROCS_ColorScore>
-8.352

> <ROCS_Overlap>
1589.513

> <ROCS_Rank>
437                 

$$$$
untitled-dbase-9778_0
  -OEChem-08212314543D

 39 41  0     0  0  0  0  0  0999 V2000
   -9.2636    2.0240   -8.7018 C   0  0  0  0  0  0  0  0  0  0  0  0
   -9.0993    2.9055   -9.7732 C   0  0  0  0  0  0  0  0  0  0  0  0
   -9.2662    2.4989   -7.3844 C   0  0  0  0  0  0  0  0  0  0  0  0
   -8.9299    4.2649   -9.5240 C   0  0  0  0  0  0  0  0  0  0  0  0
   -8.9141    4.7185   -8.1948 C   0  0  0  0  0  0  0  0  0  0  0  0
   -9.0987    3.8585   -7.1236 C   0  0  0  0  0  0  0  0  0  0  0  0
   -8.9407    5.6467  -13.9201 C   0  0  0  0  0  0  0  0  0  0  0  0
   -8.4940    6.6300   -9.4700 C   0  0  0  0  0  0  0  0  0  0  0  0
   -7.7375    5.3938  -11.6539 C   0  0  0  0  0  0  0  0  0  0  0  0
   -9.8608    5.7592  -11.5322 C   0  0  0  0  0  0  0  0  0  0  0  0
   -8.7503    5.4796  -10.4900 C   0  0  0  0  0  0  0  0  0  0  0  0
   -8.1118    6.8319  -16.4326 C   0  0  0  0  0  0  0  0  0  0  0  0
   -6.1767    5.2349  -16.3128 C   0  0  0  0  0  0  0  0  0  0  0  0
   -8.5206    4.3490  -16.4850 C   0  0  0  0  0  0  0  0  0  0  0  0
   -7.6377    5.4676  -15.9337 C   0  0  0  0  0  0  0  0  0  0  0  0
   -8.7796    6.1067   -8.1307 N   0  0  0  0  0  0  0  0  0  0  0  0
   -8.8501    5.6025  -12.5554 N   0  0  0  0  0  0  0  0  0  0  0  0
   -9.9877    5.8380  -14.5316 O   0  0  0  0  0  0  0  0  0  0  0  0
   -7.7205    5.4512  -14.5013 O   0  0  0  0  0  0  0  0  0  0  0  0
   -9.1187    4.4791   -5.3393 Br  0  0  0  0  0  0  0  0  0  0  0  0
   -9.3982    0.9628   -8.8923 H   0  0  0  0  0  0  0  0  0  0  0  0
   -9.1107    2.5312  -10.7921 H   0  0  0  0  0  0  0  0  0  0  0  0
   -9.4053    1.7883   -6.5729 H   0  0  0  0  0  0  0  0  0  0  0  0
   -7.4451    6.9494   -9.4997 H   0  0  0  0  0  0  0  0  0  0  0  0
   -9.1207    7.5064   -9.6684 H   0  0  0  0  0  0  0  0  0  0  0  0
   -6.9780    6.1837  -11.6994 H   0  0  0  0  0  0  0  0  0  0  0  0
   -7.2572    4.4187  -11.8068 H   0  0  0  0  0  0  0  0  0  0  0  0
  -10.6513    5.0013  -11.6104 H   0  0  0  0  0  0  0  0  0  0  0  0
  -10.3160    6.7563  -11.5026 H   0  0  0  0  0  0  0  0  0  0  0  0
   -9.1600    7.0028  -16.1625 H   0  0  0  0  0  0  0  0  0  0  0  0
   -7.5085    7.6454  -16.0167 H   0  0  0  0  0  0  0  0  0  0  0  0
   -8.0613    6.8876  -17.5260 H   0  0  0  0  0  0  0  0  0  0  0  0
   -5.8323    4.2572  -15.9568 H   0  0  0  0  0  0  0  0  0  0  0  0
   -5.5274    5.9813  -15.8411 H   0  0  0  0  0  0  0  0  0  0  0  0
   -6.0282    5.2813  -17.3964 H   0  0  0  0  0  0  0  0  0  0  0  0
   -8.1807    3.3703  -16.1273 H   0  0  0  0  0  0  0  0  0  0  0  0
   -9.5673    4.4797  -16.1916 H   0  0  0  0  0  0  0  0  0  0  0  0
   -8.4674    4.3139  -17.5791 H   0  0  0  0  0  0  0  0  0  0  0  0
   -8.5293    6.5901   -7.2798 H   0  0  0  0  0  0  0  0  0  0  0  0
  1  2  2  0  0  0  0
  1  3  1  0  0  0  0
  2  4  1  0  0  0  0
  3  6  2  0  0  0  0
  4  5  2  0  0  0  0
  4 11  1  0  0  0  0
  5  6  1  0  0  0  0
  5 16  1  0  0  0  0
  6 20  1  0  0  0  0
  7 17  1  0  0  0  0
  7 18  2  0  0  0  0
  7 19  1  0  0  0  0
  8 11  1  0  0  0  0
  8 16  1  0  0  0  0
  9 11  1  0  0  0  0
  9 17  1  0  0  0  0
 10 11  1  0  0  0  0
 10 17  1  0  0  0  0
 12 15  1  0  0  0  0
 13 15  1  0  0  0  0
 14 15  1  0  0  0  0
 15 19  1  0  0  0  0
  1 21  1  0  0  0  0
  2 22  1  0  0  0  0
  3 23  1  0  0  0  0
  8 24  1  0  0  0  0
  8 25  1  0  0  0  0
  9 26  1  0  0  0  0
  9 27  1  0  0  0  0
 10 28  1  0  0  0  0
 10 29  1  0  0  0  0
 12 30  1  0  0  0  0
 12 31  1  0  0  0  0
 12 32  1  0  0  0  0
 13 33  1  0  0  0  0
 13 34  1  0  0  0  0
 13 35  1  0  0  0  0
 14 36  1  0  0  0  0
 14 37  1  0  0  0  0
 14 38  1  0  0  0  0
 16 39  1  0  0  0  0
M  END
> <id>
EN300-338875

> <smiles>
CC(C)(C)OC(=O)N1CC2(C1)CNC=3C2=CC=CC3Br

> <MDLNUMBER>
MFCD30499947

> <IUPAC Name>
tert-butyl 7'-bromo-1',2'-dihydrospiro[azetidine-3,3'-indole]-1-carboxylate

> <CAS>
2059938-94-0

> <URL>
https://www.enaminestore.com/catalog/EN300-338875

> <ROCS_ShapeQuery>
_x0404_0B

> <ROCS_TanimotoCombo>
0.366 

> <ROCS_ShapeTanimoto>
0.307 

> <ROCS_ColorTanimoto>
0.059 

> <ROCS_RefTversky>
0.277 

> <ROCS_RefColorTversky>
0.064 

> <ROCS_RefTverskyCombo>
0.341 

> <ROCS_FitTversky>
1.546 

> <ROCS_FitColorTversky>
0.440 

> <ROCS_FitTverskyCombo>
1.985 

> <ROCS_ColorScore>
-4.595

> <ROCS_Overlap>
1849.618

> <ROCS_Rank>
438                 

$$$$
untitled-dbase-45544_80
  -OEChem-08212314543D

 43 45  0     1  0  0  0  0  0999 V2000
   -9.1780    2.7964   -9.4965 C   0  0  0  0  0  0  0  0  0  0  0  0
   -9.2639    2.0770   -8.3019 C   0  0  0  0  0  0  0  0  0  0  0  0
   -8.8804    4.0964   -7.0065 C   0  0  0  0  0  0  0  0  0  0  0  0
   -8.9341    4.1606   -9.4361 C   0  0  0  0  0  0  0  0  0  0  0  0
   -8.7844    4.7996   -8.1966 C   0  0  0  0  0  0  0  0  0  0  0  0
   -9.1164    2.7224   -7.0656 C   0  0  0  0  0  0  0  0  0  0  0  0
   -7.9998    5.6437  -14.1197 C   0  0  0  0  0  0  0  0  0  0  0  0
   -8.5707    6.2703   -8.3679 C   0  0  0  0  0  0  0  0  0  0  0  0
   -8.1225    6.3319   -9.8355 C   0  0  0  0  0  0  0  0  0  0  0  0
  -10.1969    5.5600  -11.1335 C   0  0  0  0  0  0  0  0  0  0  0  0
   -9.8528    6.1705  -12.4868 C   0  0  0  0  0  0  0  0  0  0  0  0
   -8.0622    4.7054  -11.8082 C   0  0  0  0  0  0  0  0  0  0  0  0
   -8.8275    5.1525  -10.5606 C   0  0  2  0  0  0  0  0  0  0  0  0
   -6.5107    5.4053  -16.5472 C   0  0  0  0  0  0  0  0  0  0  0  0
   -6.3771    2.9555  -16.0088 C   0  0  0  0  0  0  0  0  0  0  0  0
   -8.6131    4.0290  -16.4042 C   0  0  0  0  0  0  0  0  0  0  0  0
   -7.2018    4.2316  -15.8547 C   0  0  0  0  0  0  0  0  0  0  0  0
   -8.6079    5.5240  -12.8817 N   0  0  0  0  0  0  0  0  0  0  0  0
   -8.0823    6.6386  -14.8365 O   0  0  0  0  0  0  0  0  0  0  0  0
   -7.2944    4.5189  -14.4549 O   0  0  0  0  0  0  0  0  0  0  0  0
   -9.2403    1.7215   -5.4658 Br  0  0  0  0  0  0  0  0  0  0  0  0
   -9.3058    2.2851  -10.4446 H   0  0  0  0  0  0  0  0  0  0  0  0
   -9.4521    1.0070   -8.3475 H   0  0  0  0  0  0  0  0  0  0  0  0
   -8.7706    4.6111   -6.0569 H   0  0  0  0  0  0  0  0  0  0  0  0
   -9.5110    6.8108   -8.2141 H   0  0  0  0  0  0  0  0  0  0  0  0
   -7.7986    6.6631   -7.6993 H   0  0  0  0  0  0  0  0  0  0  0  0
   -8.3369    7.3045  -10.2876 H   0  0  0  0  0  0  0  0  0  0  0  0
   -7.0340    6.1892   -9.8792 H   0  0  0  0  0  0  0  0  0  0  0  0
  -10.6598    6.3295  -10.5050 H   0  0  0  0  0  0  0  0  0  0  0  0
  -10.9019    4.7296  -11.2319 H   0  0  0  0  0  0  0  0  0  0  0  0
  -10.6098    5.9398  -13.2435 H   0  0  0  0  0  0  0  0  0  0  0  0
   -9.7243    7.2560  -12.4397 H   0  0  0  0  0  0  0  0  0  0  0  0
   -6.9966    4.9477  -11.7380 H   0  0  0  0  0  0  0  0  0  0  0  0
   -8.1640    3.6434  -12.0474 H   0  0  0  0  0  0  0  0  0  0  0  0
   -7.0996    6.3232  -16.4388 H   0  0  0  0  0  0  0  0  0  0  0  0
   -5.5109    5.5833  -16.1380 H   0  0  0  0  0  0  0  0  0  0  0  0
   -6.4167    5.2237  -17.6240 H   0  0  0  0  0  0  0  0  0  0  0  0
   -6.8692    2.1108  -15.5134 H   0  0  0  0  0  0  0  0  0  0  0  0
   -5.3964    3.0646  -15.5317 H   0  0  0  0  0  0  0  0  0  0  0  0
   -6.2236    2.6984  -17.0619 H   0  0  0  0  0  0  0  0  0  0  0  0
   -9.1089    3.1871  -15.9076 H   0  0  0  0  0  0  0  0  0  0  0  0
   -9.2308    4.9226  -16.2687 H   0  0  0  0  0  0  0  0  0  0  0  0
   -8.5840    3.7844  -17.4722 H   0  0  0  0  0  0  0  0  0  0  0  0
  1  2  1  0  0  0  0
  1  4  2  0  0  0  0
  2  6  2  0  0  0  0
  3  5  2  0  0  0  0
  3  6  1  0  0  0  0
  4  5  1  0  0  0  0
  4 13  1  0  0  0  0
  5  8  1  0  0  0  0
  6 21  1  0  0  0  0
  7 18  1  0  0  0  0
  7 19  2  0  0  0  0
  7 20  1  0  0  0  0
  8  9  1  0  0  0  0
  9 13  1  0  0  0  0
 10 11  1  0  0  0  0
 10 13  1  0  0  0  0
 11 18  1  0  0  0  0
 12 13  1  0  0  0  0
 12 18  1  0  0  0  0
 14 17  1  0  0  0  0
 15 17  1  0  0  0  0
 16 17  1  0  0  0  0
 17 20  1  0  0  0  0
  1 22  1  0  0  0  0
  2 23  1  0  0  0  0
  3 24  1  0  0  0  0
  8 25  1  0  0  0  0
  8 26  1  0  0  0  0
  9 27  1  0  0  0  0
  9 28  1  0  0  0  0
 10 29  1  0  0  0  0
 10 30  1  0  0  0  0
 11 31  1  0  0  0  0
 11 32  1  0  0  0  0
 12 33  1  0  0  0  0
 12 34  1  0  0  0  0
 14 35  1  0  0  0  0
 14 36  1  0  0  0  0
 14 37  1  0  0  0  0
 15 38  1  0  0  0  0
 15 39  1  0  0  0  0
 15 40  1  0  0  0  0
 16 41  1  0  0  0  0
 16 42  1  0  0  0  0
 16 43  1  0  0  0  0
M  END
> <id>
EN300-28298777

> <smiles>
CC(C)(C)OC(=O)N1CCC2(CCC=3C=C(Br)C=CC32)C1

> <IUPAC Name>
tert-butyl 5-bromo-2,3-dihydrospiro[indene-1,3'-pyrrolidine]-1'-carboxylate

> <CAS>
2680882-43-1

> <URL>
https://www.enaminestore.com/catalog/EN300-28298777

> <ROCS_ShapeQuery>
_x0404_0B

> <ROCS_TanimotoCombo>
0.366 

> <ROCS_ShapeTanimoto>
0.291 

> <ROCS_ColorTanimoto>
0.075 

> <ROCS_RefTversky>
0.267 

> <ROCS_RefColorTversky>
0.079 

> <ROCS_RefTverskyCombo>
0.347 

> <ROCS_FitTversky>
1.439 

> <ROCS_FitColorTversky>
0.602 

> <ROCS_FitTverskyCombo>
2.041 

> <ROCS_ColorScore>
-5.716

> <ROCS_Overlap>
1783.113

> <ROCS_Rank>
439                 

$$$$
untitled-dbase-47440_0
  -OEChem-08212314543D

 25 27  0     0  0  0  0  0  0999 V2000
   -8.6519    3.6362   -8.8887 C   0  0  0  0  0  0  0  0  0  0  0  0
   -8.4103    6.2146  -13.8448 C   0  0  0  0  0  0  0  0  0  0  0  0
   -7.7245    4.1994  -14.9914 C   0  0  0  0  0  0  0  0  0  0  0  0
   -9.3272    5.7597   -7.9500 C   0  0  0  0  0  0  0  0  0  0  0  0
   -8.5756    4.2295  -10.1514 C   0  0  0  0  0  0  0  0  0  0  0  0
   -8.1298    4.1587  -12.6135 C   0  0  0  0  0  0  0  0  0  0  0  0
   -8.4526    5.5152  -12.6369 C   0  0  0  0  0  0  0  0  0  0  0  0
   -8.8727    5.5819  -10.3181 C   0  0  0  0  0  0  0  0  0  0  0  0
   -8.0463    5.5565  -15.0201 C   0  0  0  0  0  0  0  0  0  0  0  0
   -7.7650    3.4953  -13.7879 C   0  0  0  0  0  0  0  0  0  0  0  0
   -9.0288    4.4065   -7.7884 C   0  0  0  0  0  0  0  0  0  0  0  0
   -9.2497    6.3477   -9.2130 C   0  0  0  0  0  0  0  0  0  0  0  0
   -8.1813    3.4425  -11.3298 C   0  0  0  0  0  0  0  0  0  0  0  0
   -7.9142    2.2546  -11.2236 O   0  0  0  0  0  0  0  0  0  0  0  0
   -8.8201    6.2335  -11.5257 O   0  0  0  0  0  0  0  0  0  0  0  0
   -8.0055    6.2399  -16.1968 O   0  0  0  0  0  0  0  0  0  0  0  0
   -7.4416    2.1723  -13.8142 O   0  0  0  0  0  0  0  0  0  0  0  0
   -9.1259    3.6858   -6.2281 Cl  0  0  0  0  0  0  0  0  0  0  0  0
   -9.6285    8.0267   -9.3642 Cl  0  0  0  0  0  0  0  0  0  0  0  0
   -8.4205    2.5821   -8.7571 H   0  0  0  0  0  0  0  0  0  0  0  0
   -8.6605    7.2725  -13.8718 H   0  0  0  0  0  0  0  0  0  0  0  0
   -7.4416    3.6911  -15.9101 H   0  0  0  0  0  0  0  0  0  0  0  0
   -9.6207    6.3559   -7.0884 H   0  0  0  0  0  0  0  0  0  0  0  0
   -7.7372    5.6500  -16.9190 H   0  0  0  0  0  0  0  0  0  0  0  0
   -7.5059    1.7936  -12.9234 H   0  0  0  0  0  0  0  0  0  0  0  0
  1  5  2  0  0  0  0
  1 11  1  0  0  0  0
  2  7  2  0  0  0  0
  2  9  1  0  0  0  0
  3  9  2  0  0  0  0
  3 10  1  0  0  0  0
  4 11  2  0  0  0  0
  4 12  1  0  0  0  0
  5  8  1  0  0  0  0
  5 13  1  0  0  0  0
  6  7  1  0  0  0  0
  6 10  2  0  0  0  0
  6 13  1  0  0  0  0
  7 15  1  0  0  0  0
  8 12  2  0  0  0  0
  8 15  1  0  0  0  0
  9 16  1  0  0  0  0
 10 17  1  0  0  0  0
 11 18  1  0  0  0  0
 12 19  1  0  0  0  0
 13 14  2  0  0  0  0
  1 20  1  0  0  0  0
  2 21  1  0  0  0  0
  3 22  1  0  0  0  0
  4 23  1  0  0  0  0
 16 24  1  0  0  0  0
 17 25  1  0  0  0  0
M  END
> <id>
EN300-303122

> <smiles>
OC=1C=C(O)C=2C(=O)C=3C=C(Cl)C=C(Cl)C3OC2C1

> <MDLNUMBER>
MFCD13969026

> <IUPAC Name>
5,7-dichloro-1,3-dihydroxy-9H-xanthen-9-one

> <CAS>
1092332-61-0

> <URL>
https://www.enaminestore.com/catalog/EN300-303122

> <ROCS_ShapeQuery>
_x0404_0B

> <ROCS_TanimotoCombo>
0.366 

> <ROCS_ShapeTanimoto>
0.254 

> <ROCS_ColorTanimoto>
0.112 

> <ROCS_RefTversky>
0.239 

> <ROCS_RefColorTversky>
0.118 

> <ROCS_RefTverskyCombo>
0.356 

> <ROCS_FitTversky>
1.348 

> <ROCS_FitColorTversky>
0.689 

> <ROCS_FitTverskyCombo>
2.037 

> <ROCS_ColorScore>
-8.507

> <ROCS_Overlap>
1592.110

> <ROCS_Rank>
440                 

$$$$
untitled-dbase-9780_85
  -OEChem-08212314543D

 40 42  0     0  0  0  0  0  0999 V2000
   -9.3722    2.5388   -8.1149 C   0  0  0  0  0  0  0  0  0  0  0  0
   -9.0290    4.9592   -8.2252 C   0  0  0  0  0  0  0  0  0  0  0  0
   -8.8350    6.1301   -8.9572 C   0  0  0  0  0  0  0  0  0  0  0  0
   -9.1278    3.6590  -10.2744 C   0  0  0  0  0  0  0  0  0  0  0  0
   -9.1717    3.7296   -8.8796 C   0  0  0  0  0  0  0  0  0  0  0  0
   -8.9332    4.8215  -11.0153 C   0  0  0  0  0  0  0  0  0  0  0  0
   -8.7707    6.0420  -10.3391 C   0  0  0  0  0  0  0  0  0  0  0  0
   -9.2060    3.7364  -15.6762 C   0  0  0  0  0  0  0  0  0  0  0  0
   -8.4948    6.5828  -12.5944 C   0  0  0  0  0  0  0  0  0  0  0  0
   -7.9952    4.1537  -13.4522 C   0  0  0  0  0  0  0  0  0  0  0  0
  -10.0771    4.6648  -13.4291 C   0  0  0  0  0  0  0  0  0  0  0  0
   -8.8626    5.0665  -12.5523 C   0  0  0  0  0  0  0  0  0  0  0  0
   -9.1173    5.8288  -17.2450 C   0  0  0  0  0  0  0  0  0  0  0  0
   -6.6659    5.4068  -17.5937 C   0  0  0  0  0  0  0  0  0  0  0  0
   -8.3608    3.9296  -18.7131 C   0  0  0  0  0  0  0  0  0  0  0  0
   -8.0456    4.7636  -17.4722 C   0  0  0  0  0  0  0  0  0  0  0  0
   -9.5350    1.5719   -7.4940 N   0  0  0  0  0  0  0  0  0  0  0  0
   -8.6307    7.1066  -11.2321 N   0  0  0  0  0  0  0  0  0  0  0  0
   -9.1118    4.1437  -14.3749 N   0  0  0  0  0  0  0  0  0  0  0  0
  -10.2282    3.2866  -16.1866 O   0  0  0  0  0  0  0  0  0  0  0  0
   -8.0180    3.8951  -16.3342 O   0  0  0  0  0  0  0  0  0  0  0  0
   -9.0723    5.0170   -7.1398 H   0  0  0  0  0  0  0  0  0  0  0  0
   -8.7343    7.0841   -8.4499 H   0  0  0  0  0  0  0  0  0  0  0  0
   -9.2503    2.7097  -10.7897 H   0  0  0  0  0  0  0  0  0  0  0  0
   -7.4563    6.7209  -12.9167 H   0  0  0  0  0  0  0  0  0  0  0  0
   -9.1408    7.1455  -13.2761 H   0  0  0  0  0  0  0  0  0  0  0  0
   -7.0859    4.5993  -13.8638 H   0  0  0  0  0  0  0  0  0  0  0  0
   -7.7749    3.1573  -13.0573 H   0  0  0  0  0  0  0  0  0  0  0  0
  -10.7241    3.8808  -13.0237 H   0  0  0  0  0  0  0  0  0  0  0  0
  -10.6868    5.4843  -13.8181 H   0  0  0  0  0  0  0  0  0  0  0  0
  -10.1092    5.3711  -17.1573 H   0  0  0  0  0  0  0  0  0  0  0  0
   -8.9216    6.4110  -16.3386 H   0  0  0  0  0  0  0  0  0  0  0  0
   -9.1693    6.5187  -18.0950 H   0  0  0  0  0  0  0  0  0  0  0  0
   -5.8938    4.6462  -17.7568 H   0  0  0  0  0  0  0  0  0  0  0  0
   -6.3952    5.9278  -16.6681 H   0  0  0  0  0  0  0  0  0  0  0  0
   -6.6258    6.1242  -18.4197 H   0  0  0  0  0  0  0  0  0  0  0  0
   -7.5923    3.1655  -18.8763 H   0  0  0  0  0  0  0  0  0  0  0  0
   -9.3316    3.4306  -18.6278 H   0  0  0  0  0  0  0  0  0  0  0  0
   -8.3693    4.5565  -19.6121 H   0  0  0  0  0  0  0  0  0  0  0  0
   -8.2876    8.0129  -10.9476 H   0  0  0  0  0  0  0  0  0  0  0  0
  1  5  1  0  0  0  0
  1 17  3  0  0  0  0
  2  3  1  0  0  0  0
  2  5  2  0  0  0  0
  3  7  2  0  0  0  0
  4  5  1  0  0  0  0
  4  6  2  0  0  0  0
  6  7  1  0  0  0  0
  6 12  1  0  0  0  0
  7 18  1  0  0  0  0
  8 19  1  0  0  0  0
  8 20  2  0  0  0  0
  8 21  1  0  0  0  0
  9 12  1  0  0  0  0
  9 18  1  0  0  0  0
 10 12  1  0  0  0  0
 10 19  1  0  0  0  0
 11 12  1  0  0  0  0
 11 19  1  0  0  0  0
 13 16  1  0  0  0  0
 14 16  1  0  0  0  0
 15 16  1  0  0  0  0
 16 21  1  0  0  0  0
  2 22  1  0  0  0  0
  3 23  1  0  0  0  0
  4 24  1  0  0  0  0
  9 25  1  0  0  0  0
  9 26  1  0  0  0  0
 10 27  1  0  0  0  0
 10 28  1  0  0  0  0
 11 29  1  0  0  0  0
 11 30  1  0  0  0  0
 13 31  1  0  0  0  0
 13 32  1  0  0  0  0
 13 33  1  0  0  0  0
 14 34  1  0  0  0  0
 14 35  1  0  0  0  0
 14 36  1  0  0  0  0
 15 37  1  0  0  0  0
 15 38  1  0  0  0  0
 15 39  1  0  0  0  0
 18 40  1  0  0  0  0
M  END
> <id>
EN300-338901

> <smiles>
CC(C)(C)OC(=O)N1CC2(C1)CNC=3C=CC(C#N)=CC32

> <MDLNUMBER>
MFCD30499958

> <IUPAC Name>
tert-butyl 5'-cyano-1',2'-dihydrospiro[azetidine-3,3'-indole]-1-carboxylate

> <CAS>
2060008-58-2

> <URL>
https://www.enaminestore.com/catalog/EN300-338901

> <ROCS_ShapeQuery>
_x0404_0B

> <ROCS_TanimotoCombo>
0.366 

> <ROCS_ShapeTanimoto>
0.331 

> <ROCS_ColorTanimoto>
0.036 

> <ROCS_RefTversky>
0.295 

> <ROCS_RefColorTversky>
0.039 

> <ROCS_RefTverskyCombo>
0.334 

> <ROCS_FitTversky>
1.573 

> <ROCS_FitColorTversky>
0.272 

> <ROCS_FitTverskyCombo>
1.845 

> <ROCS_ColorScore>
-2.841

> <ROCS_Overlap>
1968.406

> <ROCS_Rank>
441                 

$$$$
untitled-dbase-30439_466
  -OEChem-08212314543D

 43 44  0     1  0  0  0  0  0999 V2000
   -8.6859    5.1531  -11.8120 C   0  0  0  0  0  0  0  0  0  0  0  0
   -7.9122    5.9218  -17.9088 C   0  0  0  0  0  0  0  0  0  0  0  0
   -9.3960    5.9040  -17.5995 C   0  0  0  0  0  0  0  0  0  0  0  0
   -7.2914    6.0510  -16.5280 C   0  0  0  0  0  0  0  0  0  0  0  0
   -9.5090    5.0349  -16.3496 C   0  0  0  0  0  0  0  0  0  0  0  0
   -7.4723    3.7443  -15.4914 C   0  0  0  0  0  0  0  0  0  0  0  0
   -9.1699    3.4797  -13.5756 C   0  0  0  0  0  0  0  0  0  0  0  0
   -8.2559    5.7347  -14.2105 C   0  0  0  0  0  0  0  0  0  0  0  0
   -8.2538    2.7864  -14.5840 C   0  0  2  0  0  0  0  0  0  0  0  0
   -8.1397    5.1270  -15.6227 C   0  0  0  0  0  0  0  0  0  0  0  0
   -9.8951    5.0246   -9.2220 C   0  0  0  0  0  0  0  0  0  0  0  0
   -8.4256    3.0241   -8.8376 C   0  0  0  0  0  0  0  0  0  0  0  0
   -7.3909    5.2740   -9.2565 C   0  0  0  0  0  0  0  0  0  0  0  0
   -8.5684    4.3538   -9.5750 C   0  0  0  0  0  0  0  0  0  0  0  0
   -8.6648    4.7877  -13.1643 N   0  0  0  0  0  0  0  0  0  0  0  0
   -8.8009    6.3070  -11.4036 O   0  0  0  0  0  0  0  0  0  0  0  0
   -7.3297    1.9481  -13.8913 O   0  0  0  0  0  0  0  0  0  0  0  0
   -8.5598    4.0716  -10.9790 O   0  0  0  0  0  0  0  0  0  0  0  0
   -7.5856    5.0202  -18.4092 H   0  0  0  0  0  0  0  0  0  0  0  0
   -7.6649    6.7790  -18.5239 H   0  0  0  0  0  0  0  0  0  0  0  0
   -9.7540    6.9132  -17.3969 H   0  0  0  0  0  0  0  0  0  0  0  0
   -9.9824    5.4935  -18.4191 H   0  0  0  0  0  0  0  0  0  0  0  0
   -6.2541    5.6979  -16.5620 H   0  0  0  0  0  0  0  0  0  0  0  0
   -7.2765    7.0869  -16.1785 H   0  0  0  0  0  0  0  0  0  0  0  0
  -10.3552    5.3428  -15.7199 H   0  0  0  0  0  0  0  0  0  0  0  0
   -9.7042    3.9942  -16.6535 H   0  0  0  0  0  0  0  0  0  0  0  0
   -6.4518    3.8627  -15.0938 H   0  0  0  0  0  0  0  0  0  0  0  0
   -7.3360    3.2768  -16.4784 H   0  0  0  0  0  0  0  0  0  0  0  0
  -10.1865    3.5636  -13.9921 H   0  0  0  0  0  0  0  0  0  0  0  0
   -9.2783    2.8645  -12.6664 H   0  0  0  0  0  0  0  0  0  0  0  0
   -7.2702    6.1387  -13.8895 H   0  0  0  0  0  0  0  0  0  0  0  0
   -8.9269    6.6194  -14.2100 H   0  0  0  0  0  0  0  0  0  0  0  0
   -8.8673    2.1022  -15.2225 H   0  0  0  0  0  0  0  0  0  0  0  0
  -10.0014    5.9794   -9.7493 H   0  0  0  0  0  0  0  0  0  0  0  0
  -10.7491    4.3890   -9.4780 H   0  0  0  0  0  0  0  0  0  0  0  0
   -9.9440    5.2554   -8.1517 H   0  0  0  0  0  0  0  0  0  0  0  0
   -7.4750    2.5393   -9.0880 H   0  0  0  0  0  0  0  0  0  0  0  0
   -9.2161    2.3257   -9.1355 H   0  0  0  0  0  0  0  0  0  0  0  0
   -8.4715    3.1572   -7.7520 H   0  0  0  0  0  0  0  0  0  0  0  0
   -6.4391    4.7930   -9.5097 H   0  0  0  0  0  0  0  0  0  0  0  0
   -7.4574    6.2188   -9.8056 H   0  0  0  0  0  0  0  0  0  0  0  0
   -7.3493    5.4966   -8.1842 H   0  0  0  0  0  0  0  0  0  0  0  0
   -6.7589    2.5352  -13.3713 H   0  0  0  0  0  0  0  0  0  0  0  0
  1 15  1  0  0  0  0
  1 16  2  0  0  0  0
  1 18  1  0  0  0  0
  2  3  1  0  0  0  0
  2  4  1  0  0  0  0
  3  5  1  0  0  0  0
  4 10  1  0  0  0  0
  5 10  1  0  0  0  0
  6  9  1  0  0  0  0
  6 10  1  0  0  0  0
  7  9  1  0  0  0  0
  7 15  1  0  0  0  0
  8 10  1  0  0  0  0
  8 15  1  0  0  0  0
  9 17  1  0  0  0  0
 11 14  1  0  0  0  0
 12 14  1  0  0  0  0
 13 14  1  0  0  0  0
 14 18  1  0  0  0  0
  2 19  1  0  0  0  0
  2 20  1  0  0  0  0
  3 21  1  0  0  0  0
  3 22  1  0  0  0  0
  4 23  1  0  0  0  0
  4 24  1  0  0  0  0
  5 25  1  0  0  0  0
  5 26  1  0  0  0  0
  6 27  1  0  0  0  0
  6 28  1  0  0  0  0
  7 29  1  0  0  0  0
  7 30  1  0  0  0  0
  8 31  1  0  0  0  0
  8 32  1  0  0  0  0
  9 33  1  0  0  0  0
 11 34  1  0  0  0  0
 11 35  1  0  0  0  0
 11 36  1  0  0  0  0
 12 37  1  0  0  0  0
 12 38  1  0  0  0  0
 12 39  1  0  0  0  0
 13 40  1  0  0  0  0
 13 41  1  0  0  0  0
 13 42  1  0  0  0  0
 17 43  1  0  0  0  0
M  END
> <id>
EN300-26665960

> <smiles>
CC(C)(C)OC(=O)N1CC(O)CC2(CCCC2)C1

> <IUPAC Name>
tert-butyl 9-hydroxy-7-azaspiro[4.5]decane-7-carboxylate

> <CAS>
2413896-09-8

> <URL>
https://www.enaminestore.com/catalog/EN300-26665960

> <ROCS_ShapeQuery>
_x0404_0B

> <ROCS_TanimotoCombo>
0.366 

> <ROCS_ShapeTanimoto>
0.274 

> <ROCS_ColorTanimoto>
0.092 

> <ROCS_RefTversky>
0.250 

> <ROCS_RefColorTversky>
0.096 

> <ROCS_RefTverskyCombo>
0.346 

> <ROCS_FitTversky>
1.525 

> <ROCS_FitColorTversky>
0.729 

> <ROCS_FitTverskyCombo>
2.253 

> <ROCS_ColorScore>
-6.907

> <ROCS_Overlap>
1666.258

> <ROCS_Rank>
442                 

$$$$
untitled-dbase-20147_16
  -OEChem-08212314543D

 36 37  0     0  0  0  0  0  0999 V2000
   -7.6917    5.3341  -15.6949 C   0  0  0  0  0  0  0  0  0  0  0  0
   -8.0961    4.4098  -13.1503 C   0  0  0  0  0  0  0  0  0  0  0  0
   -7.6616    3.5330  -14.1480 C   0  0  0  0  0  0  0  0  0  0  0  0
   -7.4538    3.9955  -15.4417 C   0  0  0  0  0  0  0  0  0  0  0  0
   -8.3185    5.7411  -13.5097 C   0  0  0  0  0  0  0  0  0  0  0  0
   -8.5233    4.8212   -9.4150 C   0  0  0  0  0  0  0  0  0  0  0  0
   -8.3281    3.9064  -11.7522 C   0  0  0  0  0  0  0  0  0  0  0  0
   -8.7638    6.7377  -12.4751 C   0  0  0  0  0  0  0  0  0  0  0  0
   -9.5014    6.0658  -11.3239 C   0  0  0  0  0  0  0  0  0  0  0  0
  -10.1706    3.0215   -8.4502 C   0  0  0  0  0  0  0  0  0  0  0  0
   -8.3095    1.3369   -8.5378 C   0  0  0  0  0  0  0  0  0  0  0  0
   -8.3069    3.1121   -6.7611 C   0  0  0  0  0  0  0  0  0  0  0  0
   -8.6819    2.7800   -8.2046 C   0  0  0  0  0  0  0  0  0  0  0  0
   -8.1149    6.2165  -14.7633 N   0  0  0  0  0  0  0  0  0  0  0  0
   -8.7238    4.9471  -10.7944 N   0  0  0  0  0  0  0  0  0  0  0  0
   -8.8419    5.6716   -8.5861 O   0  0  0  0  0  0  0  0  0  0  0  0
   -7.4439    2.2215  -13.8351 O   0  0  0  0  0  0  0  0  0  0  0  0
   -7.9319    3.6318   -9.0780 O   0  0  0  0  0  0  0  0  0  0  0  0
   -6.8082    2.7627  -16.9848 I   0  0  0  0  0  0  0  0  0  0  0  0
   -7.5504    5.7670  -16.6809 H   0  0  0  0  0  0  0  0  0  0  0  0
   -9.0991    3.1286  -11.7704 H   0  0  0  0  0  0  0  0  0  0  0  0
   -7.4018    3.4660  -11.3643 H   0  0  0  0  0  0  0  0  0  0  0  0
   -7.8934    7.2761  -12.0824 H   0  0  0  0  0  0  0  0  0  0  0  0
   -9.4171    7.4733  -12.9599 H   0  0  0  0  0  0  0  0  0  0  0  0
   -9.6564    6.7699  -10.4969 H   0  0  0  0  0  0  0  0  0  0  0  0
  -10.4890    5.7315  -11.6580 H   0  0  0  0  0  0  0  0  0  0  0  0
  -10.4419    4.0562   -8.2122 H   0  0  0  0  0  0  0  0  0  0  0  0
  -10.4456    2.8204   -9.4907 H   0  0  0  0  0  0  0  0  0  0  0  0
  -10.7823    2.3844   -7.8012 H   0  0  0  0  0  0  0  0  0  0  0  0
   -7.2422    1.1592   -8.3630 H   0  0  0  0  0  0  0  0  0  0  0  0
   -8.4887    1.1223   -9.5975 H   0  0  0  0  0  0  0  0  0  0  0  0
   -8.8827    0.6229   -7.9376 H   0  0  0  0  0  0  0  0  0  0  0  0
   -7.2391    2.9390   -6.5847 H   0  0  0  0  0  0  0  0  0  0  0  0
   -8.5331    4.1548   -6.5153 H   0  0  0  0  0  0  0  0  0  0  0  0
   -8.8452    2.4643   -6.0597 H   0  0  0  0  0  0  0  0  0  0  0  0
   -7.1478    1.7378  -14.6206 H   0  0  0  0  0  0  0  0  0  0  0  0
  1  4  2  0  0  0  0
  1 14  1  0  0  0  0
  2  3  2  0  0  0  0
  2  5  1  0  0  0  0
  2  7  1  0  0  0  0
  3  4  1  0  0  0  0
  3 17  1  0  0  0  0
  4 19  1  0  0  0  0
  5  8  1  0  0  0  0
  5 14  2  0  0  0  0
  6 15  1  0  0  0  0
  6 16  2  0  0  0  0
  6 18  1  0  0  0  0
  7 15  1  0  0  0  0
  8  9  1  0  0  0  0
  9 15  1  0  0  0  0
 10 13  1  0  0  0  0
 11 13  1  0  0  0  0
 12 13  1  0  0  0  0
 13 18  1  0  0  0  0
  1 20  1  0  0  0  0
  7 21  1  0  0  0  0
  7 22  1  0  0  0  0
  8 23  1  0  0  0  0
  8 24  1  0  0  0  0
  9 25  1  0  0  0  0
  9 26  1  0  0  0  0
 10 27  1  0  0  0  0
 10 28  1  0  0  0  0
 10 29  1  0  0  0  0
 11 30  1  0  0  0  0
 11 31  1  0  0  0  0
 11 32  1  0  0  0  0
 12 33  1  0  0  0  0
 12 34  1  0  0  0  0
 12 35  1  0  0  0  0
 17 36  1  0  0  0  0
M  END
> <id>
EN300-1705999

> <smiles>
CC(C)(C)OC(=O)N1CCC=2N=CC(I)=C(O)C2C1

> <MDLNUMBER>
MFCD31666174

> <IUPAC Name>
tert-butyl 4-hydroxy-3-iodo-5,6,7,8-tetrahydro-1,6-naphthyridine-6-carboxylate

> <CAS>
2219370-58-6

> <Purity>
95

> <URL>
https://www.enaminestore.com/catalog/EN300-1705999

> <ROCS_ShapeQuery>
_x0404_0B

> <ROCS_TanimotoCombo>
0.366 

> <ROCS_ShapeTanimoto>
0.255 

> <ROCS_ColorTanimoto>
0.111 

> <ROCS_RefTversky>
0.238 

> <ROCS_RefColorTversky>
0.115 

> <ROCS_RefTverskyCombo>
0.354 

> <ROCS_FitTversky>
1.388 

> <ROCS_FitColorTversky>
0.733 

> <ROCS_FitTverskyCombo>
2.121 

> <ROCS_ColorScore>
-8.339

> <ROCS_Overlap>
1586.919

> <ROCS_Rank>
443                 

$$$$
untitled-dbase-4356_27
  -OEChem-08212314543D

 35 36  0     0  0  0  0  0  0999 V2000
   -8.6592    5.8699   -8.2301 C   0  0  0  0  0  0  0  0  0  0  0  0
   -9.1294    4.2254  -10.3038 C   0  0  0  0  0  0  0  0  0  0  0  0
   -8.9499    5.5931  -10.4813 C   0  0  0  0  0  0  0  0  0  0  0  0
   -9.0299    3.7676   -9.0003 C   0  0  0  0  0  0  0  0  0  0  0  0
   -8.6110    5.4849  -14.2278 C   0  0  0  0  0  0  0  0  0  0  0  0
   -9.3550    3.2965  -11.4561 C   0  0  0  0  0  0  0  0  0  0  0  0
   -9.0254    6.2154  -11.8506 C   0  0  0  0  0  0  0  0  0  0  0  0
   -9.8940    4.0349  -12.6773 C   0  0  0  0  0  0  0  0  0  0  0  0
   -7.6966    5.4688  -16.9395 C   0  0  0  0  0  0  0  0  0  0  0  0
   -9.1464    3.4372  -17.2220 C   0  0  0  0  0  0  0  0  0  0  0  0
  -10.1869    5.6421  -16.6187 C   0  0  0  0  0  0  0  0  0  0  0  0
   -8.9571    4.7487  -16.4628 C   0  0  0  0  0  0  0  0  0  0  0  0
   -8.7209    6.4384   -9.4493 N   0  0  0  0  0  0  0  0  0  0  0  0
   -8.7994    4.5651   -7.9380 N   0  0  0  0  0  0  0  0  0  0  0  0
   -9.1106    5.2398  -12.9443 N   0  0  0  0  0  0  0  0  0  0  0  0
   -8.0563    6.5278  -14.5695 O   0  0  0  0  0  0  0  0  0  0  0  0
   -9.1740    2.4322   -8.7292 O   0  0  0  0  0  0  0  0  0  0  0  0
   -8.8009    4.4259  -15.0762 O   0  0  0  0  0  0  0  0  0  0  0  0
   -8.4780    6.5359   -7.3956 H   0  0  0  0  0  0  0  0  0  0  0  0
   -8.4187    2.8015  -11.7380 H   0  0  0  0  0  0  0  0  0  0  0  0
  -10.0668    2.5209  -11.1485 H   0  0  0  0  0  0  0  0  0  0  0  0
   -9.8838    6.8938  -11.8869 H   0  0  0  0  0  0  0  0  0  0  0  0
   -8.1183    6.8062  -12.0234 H   0  0  0  0  0  0  0  0  0  0  0  0
   -9.8239    3.4041  -13.5724 H   0  0  0  0  0  0  0  0  0  0  0  0
  -10.9515    4.2773  -12.5315 H   0  0  0  0  0  0  0  0  0  0  0  0
   -7.5571    6.4107  -16.3969 H   0  0  0  0  0  0  0  0  0  0  0  0
   -6.8027    4.8519  -16.8006 H   0  0  0  0  0  0  0  0  0  0  0  0
   -7.7741    5.7318  -18.0006 H   0  0  0  0  0  0  0  0  0  0  0  0
  -10.0498    2.9171  -16.8832 H   0  0  0  0  0  0  0  0  0  0  0  0
   -8.3093    2.7545  -17.0365 H   0  0  0  0  0  0  0  0  0  0  0  0
   -9.2260    3.6029  -18.3012 H   0  0  0  0  0  0  0  0  0  0  0  0
  -11.0912    5.1258  -16.2769 H   0  0  0  0  0  0  0  0  0  0  0  0
  -10.0843    6.5723  -16.0505 H   0  0  0  0  0  0  0  0  0  0  0  0
  -10.3543    5.8943  -17.6721 H   0  0  0  0  0  0  0  0  0  0  0  0
   -9.0775    2.2790   -7.7790 H   0  0  0  0  0  0  0  0  0  0  0  0
  1 13  1  0  0  0  0
  1 14  2  0  0  0  0
  2  3  1  0  0  0  0
  2  4  2  0  0  0  0
  2  6  1  0  0  0  0
  3  7  1  0  0  0  0
  3 13  2  0  0  0  0
  4 14  1  0  0  0  0
  4 17  1  0  0  0  0
  5 15  1  0  0  0  0
  5 16  2  0  0  0  0
  5 18  1  0  0  0  0
  6  8  1  0  0  0  0
  7 15  1  0  0  0  0
  8 15  1  0  0  0  0
  9 12  1  0  0  0  0
 10 12  1  0  0  0  0
 11 12  1  0  0  0  0
 12 18  1  0  0  0  0
  1 19  1  0  0  0  0
  6 20  1  0  0  0  0
  6 21  1  0  0  0  0
  7 22  1  0  0  0  0
  7 23  1  0  0  0  0
  8 24  1  0  0  0  0
  8 25  1  0  0  0  0
  9 26  1  0  0  0  0
  9 27  1  0  0  0  0
  9 28  1  0  0  0  0
 10 29  1  0  0  0  0
 10 30  1  0  0  0  0
 10 31  1  0  0  0  0
 11 32  1  0  0  0  0
 11 33  1  0  0  0  0
 11 34  1  0  0  0  0
 17 35  1  0  0  0  0
M  END
> <id>
EN300-178477

> <smiles>
CC(C)(C)OC(=O)N1CCC=2C(O)=NC=NC2C1

> <MDLNUMBER>
MFCD11869803

> <IUPAC Name>
tert-butyl 4-hydroxy-5H,6H,7H,8H-pyrido[3,4-d]pyrimidine-7-carboxylate

> <CAS>
1142188-60-0

> <Purity>
95

> <URL>
https://www.enaminestore.com/catalog/EN300-178477

> <ROCS_ShapeQuery>
_x0404_0B

> <ROCS_TanimotoCombo>
0.366 

> <ROCS_ShapeTanimoto>
0.293 

> <ROCS_ColorTanimoto>
0.073 

> <ROCS_RefTversky>
0.264 

> <ROCS_RefColorTversky>
0.079 

> <ROCS_RefTverskyCombo>
0.343 

> <ROCS_FitTversky>
1.573 

> <ROCS_FitColorTversky>
0.501 

> <ROCS_FitTverskyCombo>
2.074 

> <ROCS_ColorScore>
-5.708

> <ROCS_Overlap>
1762.134

> <ROCS_Rank>
444                 

$$$$
untitled-dbase-51045_116
  -OEChem-08212314543D

 41 42  0     0  0  0  0  0  0999 V2000
   -8.3185    2.4268  -10.6013 C   0  0  0  0  0  0  0  0  0  0  0  0
   -8.6035    2.1739   -9.2574 C   0  0  0  0  0  0  0  0  0  0  0  0
   -8.3472    3.7347  -11.1067 C   0  0  0  0  0  0  0  0  0  0  0  0
   -8.9233    4.5340   -8.8748 C   0  0  0  0  0  0  0  0  0  0  0  0
   -8.6595    4.7799  -10.2239 C   0  0  0  0  0  0  0  0  0  0  0  0
   -8.9043    3.2267   -8.3953 C   0  0  0  0  0  0  0  0  0  0  0  0
   -8.1779    5.6843  -14.3866 C   0  0  0  0  0  0  0  0  0  0  0  0
   -7.9765    3.9754  -12.5513 C   0  0  0  0  0  0  0  0  0  0  0  0
   -9.9632    5.5127  -12.6817 C   0  0  0  0  0  0  0  0  0  0  0  0
   -9.7717    6.4121  -11.4610 C   0  0  0  0  0  0  0  0  0  0  0  0
   -9.2368    5.6620   -7.9454 C   0  0  0  0  0  0  0  0  0  0  0  0
   -5.9675    6.5157  -16.0018 C   0  0  0  0  0  0  0  0  0  0  0  0
   -6.1156    4.2384  -17.0513 C   0  0  0  0  0  0  0  0  0  0  0  0
   -8.0457    5.8336  -17.2470 C   0  0  0  0  0  0  0  0  0  0  0  0
   -6.8951    5.3562  -16.3620 C   0  0  0  0  0  0  0  0  0  0  0  0
   -8.6798    5.0783  -13.2283 N   0  0  0  0  0  0  0  0  0  0  0  0
   -8.3715    6.8587  -14.6952 O   0  0  0  0  0  0  0  0  0  0  0  0
   -8.6413    6.0834  -10.6420 O   0  0  0  0  0  0  0  0  0  0  0  0
   -9.1746    2.9575   -7.0874 O   0  0  0  0  0  0  0  0  0  0  0  0
   -7.4428    4.8181  -15.1530 O   0  0  0  0  0  0  0  0  0  0  0  0
   -8.0652    1.5915  -11.2508 H   0  0  0  0  0  0  0  0  0  0  0  0
   -8.5799    1.1520   -8.8884 H   0  0  0  0  0  0  0  0  0  0  0  0
   -6.8804    4.1682  -12.6228 H   0  0  0  0  0  0  0  0  0  0  0  0
   -8.1192    3.0407  -13.1405 H   0  0  0  0  0  0  0  0  0  0  0  0
  -10.5586    4.6386  -12.3948 H   0  0  0  0  0  0  0  0  0  0  0  0
  -10.5032    6.0428  -13.4760 H   0  0  0  0  0  0  0  0  0  0  0  0
   -9.5960    7.4468  -11.8177 H   0  0  0  0  0  0  0  0  0  0  0  0
  -10.7037    6.4818  -10.8541 H   0  0  0  0  0  0  0  0  0  0  0  0
  -10.3165    5.8455   -7.9247 H   0  0  0  0  0  0  0  0  0  0  0  0
   -8.8986    5.4392   -6.9267 H   0  0  0  0  0  0  0  0  0  0  0  0
   -8.7298    6.5826   -8.2577 H   0  0  0  0  0  0  0  0  0  0  0  0
   -6.5233    7.3201  -15.5068 H   0  0  0  0  0  0  0  0  0  0  0  0
   -5.1578    6.1935  -15.3390 H   0  0  0  0  0  0  0  0  0  0  0  0
   -5.5234    6.9554  -16.9022 H   0  0  0  0  0  0  0  0  0  0  0  0
   -6.7773    3.4044  -17.3116 H   0  0  0  0  0  0  0  0  0  0  0  0
   -5.3494    3.8279  -16.3838 H   0  0  0  0  0  0  0  0  0  0  0  0
   -5.6264    4.5911  -17.9651 H   0  0  0  0  0  0  0  0  0  0  0  0
   -8.7113    5.0021  -17.5055 H   0  0  0  0  0  0  0  0  0  0  0  0
   -8.6387    6.6103  -16.7533 H   0  0  0  0  0  0  0  0  0  0  0  0
   -7.6681    6.2336  -18.1949 H   0  0  0  0  0  0  0  0  0  0  0  0
   -9.1169    2.0032   -6.9230 H   0  0  0  0  0  0  0  0  0  0  0  0
  1  2  2  0  0  0  0
  1  3  1  0  0  0  0
  2  6  1  0  0  0  0
  3  5  2  0  0  0  0
  3  8  1  0  0  0  0
  4  5  1  0  0  0  0
  4  6  2  0  0  0  0
  4 11  1  0  0  0  0
  5 18  1  0  0  0  0
  6 19  1  0  0  0  0
  7 16  1  0  0  0  0
  7 17  2  0  0  0  0
  7 20  1  0  0  0  0
  8 16  1  0  0  0  0
  9 10  1  0  0  0  0
  9 16  1  0  0  0  0
 10 18  1  0  0  0  0
 12 15  1  0  0  0  0
 13 15  1  0  0  0  0
 14 15  1  0  0  0  0
 15 20  1  0  0  0  0
  1 21  1  0  0  0  0
  2 22  1  0  0  0  0
  8 23  1  0  0  0  0
  8 24  1  0  0  0  0
  9 25  1  0  0  0  0
  9 26  1  0  0  0  0
 10 27  1  0  0  0  0
 10 28  1  0  0  0  0
 11 29  1  0  0  0  0
 11 30  1  0  0  0  0
 11 31  1  0  0  0  0
 12 32  1  0  0  0  0
 12 33  1  0  0  0  0
 12 34  1  0  0  0  0
 13 35  1  0  0  0  0
 13 36  1  0  0  0  0
 13 37  1  0  0  0  0
 14 38  1  0  0  0  0
 14 39  1  0  0  0  0
 14 40  1  0  0  0  0
 19 41  1  0  0  0  0
M  END
> <id>
EN300-37355687

> <smiles>
CC=1C(O)=CC=C2CN(CCOC12)C(=O)OC(C)(C)C

> <IUPAC Name>
tert-butyl 8-hydroxy-9-methyl-2,3,4,5-tetrahydro-1,4-benzoxazepine-4-carboxylate

> <CAS>
1810717-87-3

> <URL>
https://www.enaminestore.com/catalog/EN300-37355687

> <ROCS_ShapeQuery>
_x0404_0B

> <ROCS_TanimotoCombo>
0.366 

> <ROCS_ShapeTanimoto>
0.299 

> <ROCS_ColorTanimoto>
0.066 

> <ROCS_RefTversky>
0.272 

> <ROCS_RefColorTversky>
0.071 

> <ROCS_RefTverskyCombo>
0.343 

> <ROCS_FitTversky>
1.512 

> <ROCS_FitColorTversky>
0.492 

> <ROCS_FitTverskyCombo>
2.004 

> <ROCS_ColorScore>
-5.134

> <ROCS_Overlap>
1813.557

> <ROCS_Rank>
445                 

$$$$
untitled-dbase-29991_44
  -OEChem-08212314543D

 40 41  0     0  0  0  0  0  0999 V2000
   -8.2750    9.1030   -9.5814 C   0  0  0  0  0  0  0  0  0  0  0  0
   -8.4426    7.9197   -9.4647 C   0  0  0  0  0  0  0  0  0  0  0  0
   -8.6966    5.9837   -8.0341 C   0  0  0  0  0  0  0  0  0  0  0  0
   -8.8881    4.6177   -7.8438 C   0  0  0  0  0  0  0  0  0  0  0  0
   -8.6423    6.5071   -9.3258 C   0  0  0  0  0  0  0  0  0  0  0  0
   -8.7807    5.6683  -10.4411 C   0  0  0  0  0  0  0  0  0  0  0  0
   -8.9918    4.2917  -10.2460 C   0  0  0  0  0  0  0  0  0  0  0  0
   -9.0309    3.7735   -8.9444 C   0  0  0  0  0  0  0  0  0  0  0  0
   -8.2751    5.5219  -14.1890 C   0  0  0  0  0  0  0  0  0  0  0  0
   -9.1189    3.3657  -11.4270 C   0  0  0  0  0  0  0  0  0  0  0  0
   -8.7130    6.2689  -11.8238 C   0  0  0  0  0  0  0  0  0  0  0  0
   -9.6206    4.1062  -12.6605 C   0  0  0  0  0  0  0  0  0  0  0  0
   -7.0563    5.4782  -16.7777 C   0  0  0  0  0  0  0  0  0  0  0  0
   -7.4381    2.9964  -16.7123 C   0  0  0  0  0  0  0  0  0  0  0  0
   -9.3983    4.5653  -16.6481 C   0  0  0  0  0  0  0  0  0  0  0  0
   -7.9418    4.3570  -16.2357 C   0  0  0  0  0  0  0  0  0  0  0  0
   -8.8023    5.2894  -12.9140 N   0  0  0  0  0  0  0  0  0  0  0  0
   -9.2057    2.3898   -8.7098 N   0  0  0  0  0  0  0  0  0  0  0  0
   -8.1772    6.6319  -14.7086 O   0  0  0  0  0  0  0  0  0  0  0  0
   -7.8668    4.3681  -14.8055 O   0  0  0  0  0  0  0  0  0  0  0  0
   -8.1260   10.1523   -9.6848 H   0  0  0  0  0  0  0  0  0  0  0  0
   -8.5883    6.6273   -7.1641 H   0  0  0  0  0  0  0  0  0  0  0  0
   -8.9213    4.2207   -6.8322 H   0  0  0  0  0  0  0  0  0  0  0  0
   -8.1406    2.9134  -11.6306 H   0  0  0  0  0  0  0  0  0  0  0  0
   -9.8267    2.5566  -11.2137 H   0  0  0  0  0  0  0  0  0  0  0  0
   -9.5528    6.9599  -11.9656 H   0  0  0  0  0  0  0  0  0  0  0  0
   -7.7775    6.8281  -11.9331 H   0  0  0  0  0  0  0  0  0  0  0  0
   -9.6163    3.4357  -13.5259 H   0  0  0  0  0  0  0  0  0  0  0  0
  -10.6524    4.4512  -12.5185 H   0  0  0  0  0  0  0  0  0  0  0  0
   -7.4146    6.4565  -16.4378 H   0  0  0  0  0  0  0  0  0  0  0  0
   -6.0154    5.3594  -16.4598 H   0  0  0  0  0  0  0  0  0  0  0  0
   -7.0831    5.5026  -17.8731 H   0  0  0  0  0  0  0  0  0  0  0  0
   -8.0705    2.1890  -16.3257 H   0  0  0  0  0  0  0  0  0  0  0  0
   -6.4263    2.8019  -16.3384 H   0  0  0  0  0  0  0  0  0  0  0  0
   -7.4223    2.9315  -17.8050 H   0  0  0  0  0  0  0  0  0  0  0  0
  -10.0336    3.7613  -16.2595 H   0  0  0  0  0  0  0  0  0  0  0  0
   -9.7881    5.5210  -16.2828 H   0  0  0  0  0  0  0  0  0  0  0  0
   -9.5016    4.5412  -17.7390 H   0  0  0  0  0  0  0  0  0  0  0  0
   -9.3561    1.7823   -9.4872 H   0  0  0  0  0  0  0  0  0  0  0  0
   -9.2693    2.0629   -7.7689 H   0  0  0  0  0  0  0  0  0  0  0  0
  1  2  3  0  0  0  0
  2  5  1  0  0  0  0
  3  4  2  0  0  0  0
  3  5  1  0  0  0  0
  4  8  1  0  0  0  0
  5  6  2  0  0  0  0
  6  7  1  0  0  0  0
  6 11  1  0  0  0  0
  7  8  2  0  0  0  0
  7 10  1  0  0  0  0
  8 18  1  0  0  0  0
  9 17  1  0  0  0  0
  9 19  2  0  0  0  0
  9 20  1  0  0  0  0
 10 12  1  0  0  0  0
 11 17  1  0  0  0  0
 12 17  1  0  0  0  0
 13 16  1  0  0  0  0
 14 16  1  0  0  0  0
 15 16  1  0  0  0  0
 16 20  1  0  0  0  0
  1 21  1  0  0  0  0
  3 22  1  0  0  0  0
  4 23  1  0  0  0  0
 10 24  1  0  0  0  0
 10 25  1  0  0  0  0
 11 26  1  0  0  0  0
 11 27  1  0  0  0  0
 12 28  1  0  0  0  0
 12 29  1  0  0  0  0
 13 30  1  0  0  0  0
 13 31  1  0  0  0  0
 13 32  1  0  0  0  0
 14 33  1  0  0  0  0
 14 34  1  0  0  0  0
 14 35  1  0  0  0  0
 15 36  1  0  0  0  0
 15 37  1  0  0  0  0
 15 38  1  0  0  0  0
 18 39  1  0  0  0  0
 18 40  1  0  0  0  0
M  END
> <id>
EN300-37346745

> <smiles>
CC(C)(C)OC(=O)N1CCC=2C(N)=CC=C(C#C)C2C1

> <IUPAC Name>
tert-butyl 5-amino-8-ethynyl-1,2,3,4-tetrahydroisoquinoline-2-carboxylate

> <CAS>
2757955-67-0

> <URL>
https://www.enaminestore.com/catalog/EN300-37346745

> <ROCS_ShapeQuery>
_x0404_0B

> <ROCS_TanimotoCombo>
0.366 

> <ROCS_ShapeTanimoto>
0.291 

> <ROCS_ColorTanimoto>
0.075 

> <ROCS_RefTversky>
0.266 

> <ROCS_RefColorTversky>
0.080 

> <ROCS_RefTverskyCombo>
0.345 

> <ROCS_FitTversky>
1.483 

> <ROCS_FitColorTversky>
0.552 

> <ROCS_FitTverskyCombo>
2.035 

> <ROCS_ColorScore>
-5.757

> <ROCS_Overlap>
1771.294

> <ROCS_Rank>
446                 

$$$$
untitled-dbase-9402_71
  -OEChem-08212314543D

 39 40  0     0  0  0  0  0  0999 V2000
   -9.0339    4.7079   -8.7785 C   0  0  0  0  0  0  0  0  0  0  0  0
   -9.3768    3.7107   -7.7119 C   0  0  0  0  0  0  0  0  0  0  0  0
   -8.6931    5.6482  -14.1550 C   0  0  0  0  0  0  0  0  0  0  0  0
   -7.5671    4.4938  -10.8151 C   0  0  0  0  0  0  0  0  0  0  0  0
  -10.1146    4.2271  -10.9548 C   0  0  0  0  0  0  0  0  0  0  0  0
   -7.8562    5.6008  -11.8240 C   0  0  0  0  0  0  0  0  0  0  0  0
   -9.8284    4.1890  -12.4521 C   0  0  0  0  0  0  0  0  0  0  0  0
   -8.7023    2.5424   -9.6416 C   0  0  0  0  0  0  0  0  0  0  0  0
   -8.8436    4.0067  -10.1111 C   0  0  0  0  0  0  0  0  0  0  0  0
   -7.5812    5.4601  -16.7842 C   0  0  0  0  0  0  0  0  0  0  0  0
   -9.5670    4.0188  -17.3211 C   0  0  0  0  0  0  0  0  0  0  0  0
   -9.9066    6.4117  -16.6377 C   0  0  0  0  0  0  0  0  0  0  0  0
   -9.0439    5.1637  -16.4564 C   0  0  0  0  0  0  0  0  0  0  0  0
   -9.2257    2.4815   -8.2981 N   0  0  0  0  0  0  0  0  0  0  0  0
   -8.8030    5.1596  -12.8489 N   0  0  0  0  0  0  0  0  0  0  0  0
   -8.9714    5.8960   -8.5331 O   0  0  0  0  0  0  0  0  0  0  0  0
   -9.7151    4.0322   -6.5937 O   0  0  0  0  0  0  0  0  0  0  0  0
   -8.2508    6.7583  -14.4447 O   0  0  0  0  0  0  0  0  0  0  0  0
   -9.1287    4.7454  -15.0893 O   0  0  0  0  0  0  0  0  0  0  0  0
   -7.1054    3.6562  -11.3431 H   0  0  0  0  0  0  0  0  0  0  0  0
   -6.8442    4.8604  -10.0843 H   0  0  0  0  0  0  0  0  0  0  0  0
  -10.5825    5.1852  -10.7065 H   0  0  0  0  0  0  0  0  0  0  0  0
  -10.8451    3.4439  -10.7232 H   0  0  0  0  0  0  0  0  0  0  0  0
   -8.3014    6.4734  -11.3295 H   0  0  0  0  0  0  0  0  0  0  0  0
   -6.9146    5.9406  -12.2688 H   0  0  0  0  0  0  0  0  0  0  0  0
   -9.5265    3.1724  -12.7453 H   0  0  0  0  0  0  0  0  0  0  0  0
  -10.7351    4.4215  -13.0319 H   0  0  0  0  0  0  0  0  0  0  0  0
   -9.2505    1.8302  -10.2642 H   0  0  0  0  0  0  0  0  0  0  0  0
   -7.6567    2.2219   -9.5884 H   0  0  0  0  0  0  0  0  0  0  0  0
   -7.2019    6.2814  -16.1656 H   0  0  0  0  0  0  0  0  0  0  0  0
   -6.9462    4.5826  -16.6246 H   0  0  0  0  0  0  0  0  0  0  0  0
   -7.4715    5.7819  -17.8262 H   0  0  0  0  0  0  0  0  0  0  0  0
  -10.6162    3.8027  -17.0892 H   0  0  0  0  0  0  0  0  0  0  0  0
   -9.0108    3.0952  -17.1241 H   0  0  0  0  0  0  0  0  0  0  0  0
   -9.4884    4.2500  -18.3883 H   0  0  0  0  0  0  0  0  0  0  0  0
  -10.9559    6.1993  -16.4026 H   0  0  0  0  0  0  0  0  0  0  0  0
   -9.5683    7.2325  -15.9971 H   0  0  0  0  0  0  0  0  0  0  0  0
   -9.8859    6.7517  -17.6795 H   0  0  0  0  0  0  0  0  0  0  0  0
   -9.4594    1.6117   -7.8321 H   0  0  0  0  0  0  0  0  0  0  0  0
  1  2  1  0  0  0  0
  1  9  1  0  0  0  0
  1 16  2  0  0  0  0
  2 14  1  0  0  0  0
  2 17  2  0  0  0  0
  3 15  1  0  0  0  0
  3 18  2  0  0  0  0
  3 19  1  0  0  0  0
  4  6  1  0  0  0  0
  4  9  1  0  0  0  0
  5  7  1  0  0  0  0
  5  9  1  0  0  0  0
  6 15  1  0  0  0  0
  7 15  1  0  0  0  0
  8  9  1  0  0  0  0
  8 14  1  0  0  0  0
 10 13  1  0  0  0  0
 11 13  1  0  0  0  0
 12 13  1  0  0  0  0
 13 19  1  0  0  0  0
  4 20  1  0  0  0  0
  4 21  1  0  0  0  0
  5 22  1  0  0  0  0
  5 23  1  0  0  0  0
  6 24  1  0  0  0  0
  6 25  1  0  0  0  0
  7 26  1  0  0  0  0
  7 27  1  0  0  0  0
  8 28  1  0  0  0  0
  8 29  1  0  0  0  0
 10 30  1  0  0  0  0
 10 31  1  0  0  0  0
 10 32  1  0  0  0  0
 11 33  1  0  0  0  0
 11 34  1  0  0  0  0
 11 35  1  0  0  0  0
 12 36  1  0  0  0  0
 12 37  1  0  0  0  0
 12 38  1  0  0  0  0
 14 39  1  0  0  0  0
M  END
> <id>
EN300-311561

> <smiles>
CC(C)(C)OC(=O)N1CCC2(CNC(=O)C2=O)CC1

> <MDLNUMBER>
MFCD30486463

> <IUPAC Name>
tert-butyl 3,4-dioxo-2,8-diazaspiro[4.5]decane-8-carboxylate

> <CAS>
2044713-28-0

> <Purity>
95

> <URL>
https://www.enaminestore.com/catalog/EN300-311561

> <ROCS_ShapeQuery>
_x0404_0B

> <ROCS_TanimotoCombo>
0.366 

> <ROCS_ShapeTanimoto>
0.290 

> <ROCS_ColorTanimoto>
0.075 

> <ROCS_RefTversky>
0.264 

> <ROCS_RefColorTversky>
0.080 

> <ROCS_RefTverskyCombo>
0.344 

> <ROCS_FitTversky>
1.526 

> <ROCS_FitColorTversky>
0.554 

> <ROCS_FitTverskyCombo>
2.080 

> <ROCS_ColorScore>
-5.778

> <ROCS_Overlap>
1759.902

> <ROCS_Rank>
447                 

$$$$
untitled-dbase-25707_40
  -OEChem-08212314543D

 41 42  0     1  0  0  0  0  0999 V2000
   -8.9232    2.9520   -8.7056 C   0  0  0  0  0  0  0  0  0  0  0  0
   -8.6268    5.6492  -14.3581 C   0  0  0  0  0  0  0  0  0  0  0  0
   -8.1463    4.0733   -8.0568 C   0  0  0  0  0  0  0  0  0  0  0  0
   -8.8442    2.8646  -10.2125 C   0  0  0  0  0  0  0  0  0  0  0  0
   -8.4822    5.4038   -8.7157 C   0  0  0  0  0  0  0  0  0  0  0  0
   -8.6342    6.7129  -10.8815 C   0  0  0  0  0  0  0  0  0  0  0  0
   -9.3922    6.6108  -12.2037 C   0  0  0  0  0  0  0  0  0  0  0  0
   -8.9496    4.1596  -12.3687 C   0  0  0  0  0  0  0  0  0  0  0  0
   -9.1635    4.2192  -10.8500 C   0  0  2  0  0  0  0  0  0  0  0  0
   -8.3109    5.3487  -10.2412 C   0  0  2  0  0  0  0  0  0  0  0  0
   -7.0882    4.9201  -16.6575 C   0  0  0  0  0  0  0  0  0  0  0  0
   -8.9085    3.2519  -17.1187 C   0  0  0  0  0  0  0  0  0  0  0  0
   -9.4358    5.7075  -17.1083 C   0  0  0  0  0  0  0  0  0  0  0  0
   -8.5744    4.6049  -16.4943 C   0  0  0  0  0  0  0  0  0  0  0  0
   -8.9470    5.4788  -13.0073 N   0  0  0  0  0  0  0  0  0  0  0  0
   -9.5039    2.0975   -8.0382 O   0  0  0  0  0  0  0  0  0  0  0  0
   -8.1796    6.6868  -14.8426 O   0  0  0  0  0  0  0  0  0  0  0  0
   -8.8713    4.5199  -15.0958 O   0  0  0  0  0  0  0  0  0  0  0  0
   -8.3940    4.1129   -6.9923 H   0  0  0  0  0  0  0  0  0  0  0  0
   -7.0800    3.8483   -8.1533 H   0  0  0  0  0  0  0  0  0  0  0  0
   -7.8361    2.5242  -10.4799 H   0  0  0  0  0  0  0  0  0  0  0  0
   -9.5579    2.1078  -10.5604 H   0  0  0  0  0  0  0  0  0  0  0  0
   -9.5188    5.6778   -8.4725 H   0  0  0  0  0  0  0  0  0  0  0  0
   -7.8411    6.1892   -8.2940 H   0  0  0  0  0  0  0  0  0  0  0  0
   -7.6947    7.2745  -11.0451 H   0  0  0  0  0  0  0  0  0  0  0  0
   -9.2250    7.3264  -10.1730 H   0  0  0  0  0  0  0  0  0  0  0  0
  -10.4707    6.5622  -11.9991 H   0  0  0  0  0  0  0  0  0  0  0  0
   -9.2273    7.5191  -12.8042 H   0  0  0  0  0  0  0  0  0  0  0  0
   -7.9775    3.6886  -12.6072 H   0  0  0  0  0  0  0  0  0  0  0  0
   -9.7200    3.5159  -12.8303 H   0  0  0  0  0  0  0  0  0  0  0  0
  -10.2227    4.4417  -10.6676 H   0  0  0  0  0  0  0  0  0  0  0  0
   -7.2406    5.1343  -10.4486 H   0  0  0  0  0  0  0  0  0  0  0  0
   -6.8443    5.8906  -16.2106 H   0  0  0  0  0  0  0  0  0  0  0  0
   -6.4598    4.1546  -16.1907 H   0  0  0  0  0  0  0  0  0  0  0  0
   -6.8176    4.9911  -17.7172 H   0  0  0  0  0  0  0  0  0  0  0  0
   -9.9739    3.0217  -17.0039 H   0  0  0  0  0  0  0  0  0  0  0  0
   -8.3625    2.4449  -16.6167 H   0  0  0  0  0  0  0  0  0  0  0  0
   -8.6613    3.2269  -18.1849 H   0  0  0  0  0  0  0  0  0  0  0  0
  -10.5019    5.4817  -16.9914 H   0  0  0  0  0  0  0  0  0  0  0  0
   -9.2359    6.6798  -16.6465 H   0  0  0  0  0  0  0  0  0  0  0  0
   -9.2536    5.7898  -18.1859 H   0  0  0  0  0  0  0  0  0  0  0  0
  1  3  1  0  0  0  0
  1  4  1  0  0  0  0
  1 16  2  0  0  0  0
  2 15  1  0  0  0  0
  2 17  2  0  0  0  0
  2 18  1  0  0  0  0
  3  5  1  0  0  0  0
  4  9  1  0  0  0  0
  5 10  1  0  0  0  0
  6  7  1  0  0  0  0
  6 10  1  0  0  0  0
  7 15  1  0  0  0  0
  8  9  1  0  0  0  0
  8 15  1  0  0  0  0
  9 10  1  0  0  0  0
 11 14  1  0  0  0  0
 12 14  1  0  0  0  0
 13 14  1  0  0  0  0
 14 18  1  0  0  0  0
  3 19  1  0  0  0  0
  3 20  1  0  0  0  0
  4 21  1  0  0  0  0
  4 22  1  0  0  0  0
  5 23  1  0  0  0  0
  5 24  1  0  0  0  0
  6 25  1  0  0  0  0
  6 26  1  0  0  0  0
  7 27  1  0  0  0  0
  7 28  1  0  0  0  0
  8 29  1  0  0  0  0
  8 30  1  0  0  0  0
  9 31  1  0  0  0  0
 10 32  1  0  0  0  0
 11 33  1  0  0  0  0
 11 34  1  0  0  0  0
 11 35  1  0  0  0  0
 12 36  1  0  0  0  0
 12 37  1  0  0  0  0
 12 38  1  0  0  0  0
 13 39  1  0  0  0  0
 13 40  1  0  0  0  0
 13 41  1  0  0  0  0
M  END
> <id>
EN300-6748636

> <smiles>
CC(C)(C)OC(=O)N1CCC2CCC(=O)CC2C1

> <MDLNUMBER>
MFCD32703269

> <IUPAC Name>
tert-butyl 7-oxo-decahydroisoquinoline-2-carboxylate

> <CAS>
1784035-62-6

> <Purity>
95

> <URL>
https://www.enaminestore.com/catalog/EN300-6748636

> <ROCS_ShapeQuery>
_x0404_0B

> <ROCS_TanimotoCombo>
0.365 

> <ROCS_ShapeTanimoto>
0.302 

> <ROCS_ColorTanimoto>
0.063 

> <ROCS_RefTversky>
0.270 

> <ROCS_RefColorTversky>
0.066 

> <ROCS_RefTverskyCombo>
0.337 

> <ROCS_FitTversky>
1.651 

> <ROCS_FitColorTversky>
0.561 

> <ROCS_FitTverskyCombo>
2.211 

> <ROCS_ColorScore>
-4.785

> <ROCS_Overlap>
1800.356

> <ROCS_Rank>
448                 

$$$$
untitled-dbase-18203_2
  -OEChem-08212314543D

 36 37  0     0  0  0  0  0  0999 V2000
   -9.1742    3.1226   -8.5010 C   0  0  0  0  0  0  0  0  0  0  0  0
   -8.9358    4.4073   -9.0863 C   0  0  0  0  0  0  0  0  0  0  0  0
   -9.0909    4.7129  -10.4699 C   0  0  0  0  0  0  0  0  0  0  0  0
   -8.7800    6.0318  -10.7386 C   0  0  0  0  0  0  0  0  0  0  0  0
   -8.5203    5.5020   -8.3590 C   0  0  0  0  0  0  0  0  0  0  0  0
   -8.6809    5.7967  -14.4437 C   0  0  0  0  0  0  0  0  0  0  0  0
   -9.5146    3.7816  -11.5591 C   0  0  0  0  0  0  0  0  0  0  0  0
   -8.8471    6.6824  -12.0834 C   0  0  0  0  0  0  0  0  0  0  0  0
  -10.0439    4.5716  -12.7622 C   0  0  0  0  0  0  0  0  0  0  0  0
   -7.1034    4.8335  -16.6286 C   0  0  0  0  0  0  0  0  0  0  0  0
   -9.1437    3.5225  -17.2826 C   0  0  0  0  0  0  0  0  0  0  0  0
   -9.2274    6.0325  -17.2493 C   0  0  0  0  0  0  0  0  0  0  0  0
   -8.6303    4.7866  -16.5966 C   0  0  0  0  0  0  0  0  0  0  0  0
   -9.3674    2.0813   -8.0265 N   0  0  0  0  0  0  0  0  0  0  0  0
   -9.1309    5.6702  -13.1241 N   0  0  0  0  0  0  0  0  0  0  0  0
   -8.2769    5.5601   -7.0235 N   0  0  0  0  0  0  0  0  0  0  0  0
   -8.0173    6.7428  -14.8635 O   0  0  0  0  0  0  0  0  0  0  0  0
   -9.0562    4.7392  -15.2300 O   0  0  0  0  0  0  0  0  0  0  0  0
   -8.3175    6.8901   -9.3421 S   0  0  0  0  0  0  0  0  0  0  0  0
   -8.6562    3.1714  -11.8648 H   0  0  0  0  0  0  0  0  0  0  0  0
  -10.2974    3.1015  -11.2051 H   0  0  0  0  0  0  0  0  0  0  0  0
   -9.6646    7.4114  -12.1160 H   0  0  0  0  0  0  0  0  0  0  0  0
   -7.9097    7.2008  -12.3073 H   0  0  0  0  0  0  0  0  0  0  0  0
  -10.1987    3.8973  -13.6104 H   0  0  0  0  0  0  0  0  0  0  0  0
  -11.0129    5.0295  -12.5271 H   0  0  0  0  0  0  0  0  0  0  0  0
   -6.7309    5.7394  -16.1371 H   0  0  0  0  0  0  0  0  0  0  0  0
   -6.6626    3.9625  -16.1327 H   0  0  0  0  0  0  0  0  0  0  0  0
   -6.7348    4.8677  -17.6602 H   0  0  0  0  0  0  0  0  0  0  0  0
  -10.2389    3.4848  -17.2620 H   0  0  0  0  0  0  0  0  0  0  0  0
   -8.7940    2.6251  -16.7596 H   0  0  0  0  0  0  0  0  0  0  0  0
   -8.8145    3.4666  -18.3253 H   0  0  0  0  0  0  0  0  0  0  0  0
  -10.3227    5.9992  -17.2264 H   0  0  0  0  0  0  0  0  0  0  0  0
   -8.8990    6.9480  -16.7465 H   0  0  0  0  0  0  0  0  0  0  0  0
   -8.9419    6.0938  -18.3057 H   0  0  0  0  0  0  0  0  0  0  0  0
   -8.4371    4.7531   -6.4103 H   0  0  0  0  0  0  0  0  0  0  0  0
   -8.0144    6.4376   -6.5608 H   0  0  0  0  0  0  0  0  0  0  0  0
  1  2  1  0  0  0  0
  1 14  3  0  0  0  0
  2  3  1  0  0  0  0
  2  5  2  0  0  0  0
  3  4  2  0  0  0  0
  3  7  1  0  0  0  0
  4  8  1  0  0  0  0
  4 19  1  0  0  0  0
  5 16  1  0  0  0  0
  5 19  1  0  0  0  0
  6 15  1  0  0  0  0
  6 17  2  0  0  0  0
  6 18  1  0  0  0  0
  7  9  1  0  0  0  0
  8 15  1  0  0  0  0
  9 15  1  0  0  0  0
 10 13  1  0  0  0  0
 11 13  1  0  0  0  0
 12 13  1  0  0  0  0
 13 18  1  0  0  0  0
  7 20  1  0  0  0  0
  7 21  1  0  0  0  0
  8 22  1  0  0  0  0
  8 23  1  0  0  0  0
  9 24  1  0  0  0  0
  9 25  1  0  0  0  0
 10 26  1  0  0  0  0
 10 27  1  0  0  0  0
 10 28  1  0  0  0  0
 11 29  1  0  0  0  0
 11 30  1  0  0  0  0
 11 31  1  0  0  0  0
 12 32  1  0  0  0  0
 12 33  1  0  0  0  0
 12 34  1  0  0  0  0
 16 35  1  0  0  0  0
 16 36  1  0  0  0  0
M  END
> <id>
EN300-23852

> <smiles>
CC(C)(C)OC(=O)N1CCC=2C(C#N)=C(N)SC2C1

> <MDLNUMBER>
MFCD05664037

> <IUPAC Name>
tert-butyl 2-amino-3-cyano-4H,5H,6H,7H-thieno[2,3-c]pyridine-6-carboxylate

> <CAS>
150986-83-7

> <Purity>
95

> <URL>
https://www.enaminestore.com/catalog/EN300-23852

> <MP>
193-195

> <ROCS_ShapeQuery>
_x0404_0B

> <ROCS_TanimotoCombo>
0.365 

> <ROCS_ShapeTanimoto>
0.305 

> <ROCS_ColorTanimoto>
0.060 

> <ROCS_RefTversky>
0.274 

> <ROCS_RefColorTversky>
0.065 

> <ROCS_RefTverskyCombo>
0.339 

> <ROCS_FitTversky>
1.605 

> <ROCS_FitColorTversky>
0.450 

> <ROCS_FitTverskyCombo>
2.056 

> <ROCS_ColorScore>
-4.702

> <ROCS_Overlap>
1823.846

> <ROCS_Rank>
449                 

$$$$
untitled-dbase-37494_0
  -OEChem-08212314543D

 40 42  0     1  0  0  0  0  0999 V2000
   -7.4889    4.7275   -9.2692 C   0  0  0  0  0  0  0  0  0  0  0  0
   -9.4923    6.1166   -8.1803 C   0  0  0  0  0  0  0  0  0  0  0  0
   -8.3651    5.5412  -14.1191 C   0  0  0  0  0  0  0  0  0  0  0  0
   -8.9303    4.2881  -12.0067 C   0  0  0  0  0  0  0  0  0  0  0  0
   -8.6035    6.6676  -11.9172 C   0  0  0  0  0  0  0  0  0  0  0  0
   -9.5250    4.7520  -10.6809 C   0  0  2  0  0  0  0  0  0  0  0  0
   -9.3541    6.2954  -10.6412 C   0  0  1  0  0  0  0  0  0  0  0  0
   -8.8881    4.1549   -9.4094 C   0  0  1  0  0  0  0  0  0  0  0  0
   -8.6532    6.6725   -9.3230 C   0  0  2  0  0  0  0  0  0  0  0  0
   -9.0286    2.6462   -9.3103 C   0  0  0  0  0  0  0  0  0  0  0  0
   -6.6310    4.8582  -16.2862 C   0  0  0  0  0  0  0  0  0  0  0  0
   -8.0131    2.7710  -16.4924 C   0  0  0  0  0  0  0  0  0  0  0  0
   -9.0803    5.0174  -16.8430 C   0  0  0  0  0  0  0  0  0  0  0  0
   -8.0123    4.2400  -16.0751 C   0  0  0  0  0  0  0  0  0  0  0  0
   -7.3325    6.0125   -9.2225 N   0  0  0  0  0  0  0  0  0  0  0  0
   -8.6719    5.4973  -12.7677 N   0  0  0  0  0  0  0  0  0  0  0  0
  -10.0349    6.7624   -7.2956 O   0  0  0  0  0  0  0  0  0  0  0  0
   -8.1496    6.5768  -14.7450 O   0  0  0  0  0  0  0  0  0  0  0  0
   -9.5742    4.7457   -8.2649 O   0  0  0  0  0  0  0  0  0  0  0  0
   -8.3262    4.2920  -14.6788 O   0  0  0  0  0  0  0  0  0  0  0  0
   -6.1217    3.7153   -9.1879 Cl  0  0  0  0  0  0  0  0  0  0  0  0
   -8.4594    8.4219   -9.1478 Cl  0  0  0  0  0  0  0  0  0  0  0  0
   -7.9788    3.7592  -11.8917 H   0  0  0  0  0  0  0  0  0  0  0  0
   -9.6160    3.6362  -12.5575 H   0  0  0  0  0  0  0  0  0  0  0  0
   -9.0470    7.5298  -12.4259 H   0  0  0  0  0  0  0  0  0  0  0  0
   -7.5444    6.8876  -11.7451 H   0  0  0  0  0  0  0  0  0  0  0  0
  -10.6030    4.5385  -10.6752 H   0  0  0  0  0  0  0  0  0  0  0  0
  -10.3555    6.7481  -10.6745 H   0  0  0  0  0  0  0  0  0  0  0  0
  -10.0746    2.3556   -9.4259 H   0  0  0  0  0  0  0  0  0  0  0  0
   -8.6740    2.2967   -8.3387 H   0  0  0  0  0  0  0  0  0  0  0  0
   -8.4421    2.1599  -10.0924 H   0  0  0  0  0  0  0  0  0  0  0  0
   -6.6262    5.9127  -15.9878 H   0  0  0  0  0  0  0  0  0  0  0  0
   -5.8613    4.3311  -15.7131 H   0  0  0  0  0  0  0  0  0  0  0  0
   -6.3502    4.8354  -17.3454 H   0  0  0  0  0  0  0  0  0  0  0  0
   -9.0023    2.3234  -16.3425 H   0  0  0  0  0  0  0  0  0  0  0  0
   -7.3154    2.1904  -15.8782 H   0  0  0  0  0  0  0  0  0  0  0  0
   -7.7333    2.6495  -17.5438 H   0  0  0  0  0  0  0  0  0  0  0  0
  -10.0712    4.5742  -16.6917 H   0  0  0  0  0  0  0  0  0  0  0  0
   -9.1192    6.0658  -16.5301 H   0  0  0  0  0  0  0  0  0  0  0  0
   -8.8875    4.9828  -17.9214 H   0  0  0  0  0  0  0  0  0  0  0  0
  1  8  1  0  0  0  0
  1 15  2  0  0  0  0
  1 21  1  0  0  0  0
  2  9  1  0  0  0  0
  2 17  2  0  0  0  0
  2 19  1  0  0  0  0
  3 16  1  0  0  0  0
  3 18  2  0  0  0  0
  3 20  1  0  0  0  0
  4  6  1  0  0  0  0
  4 16  1  0  0  0  0
  5  7  1  0  0  0  0
  5 16  1  0  0  0  0
  6  7  1  0  0  0  0
  6  8  1  0  0  0  0
  7  9  1  0  0  0  0
  8 10  1  0  0  0  0
  8 19  1  0  0  0  0
  9 15  1  0  0  0  0
  9 22  1  0  0  0  0
 11 14  1  0  0  0  0
 12 14  1  0  0  0  0
 13 14  1  0  0  0  0
 14 20  1  0  0  0  0
  4 23  1  0  0  0  0
  4 24  1  0  0  0  0
  5 25  1  0  0  0  0
  5 26  1  0  0  0  0
  6 27  1  0  0  0  0
  7 28  1  0  0  0  0
 10 29  1  0  0  0  0
 10 30  1  0  0  0  0
 10 31  1  0  0  0  0
 11 32  1  0  0  0  0
 11 33  1  0  0  0  0
 11 34  1  0  0  0  0
 12 35  1  0  0  0  0
 12 36  1  0  0  0  0
 12 37  1  0  0  0  0
 13 38  1  0  0  0  0
 13 39  1  0  0  0  0
 13 40  1  0  0  0  0
M  END
> <id>
EN300-1689070

> <smiles>
CC(C)(C)OC(=O)N1CC2C(C1)C3(Cl)N=C(Cl)C2(C)OC3=O

> <MDLNUMBER>
MFCD31665479

> <IUPAC Name>
tert-butyl 1,11-dichloro-7-methyl-9-oxo-8-oxa-4,10-diazatricyclo[5.2.2.0,2,6]undec-10-ene-4-carboxylate

> <CAS>
2225147-52-2

> <Purity>
95

> <URL>
https://www.enaminestore.com/catalog/EN300-1689070

> <ROCS_ShapeQuery>
_x0404_0B

> <ROCS_TanimotoCombo>
0.365 

> <ROCS_ShapeTanimoto>
0.290 

> <ROCS_ColorTanimoto>
0.075 

> <ROCS_RefTversky>
0.268 

> <ROCS_RefColorTversky>
0.084 

> <ROCS_RefTverskyCombo>
0.352 

> <ROCS_FitTversky>
1.382 

> <ROCS_FitColorTversky>
0.421 

> <ROCS_FitTverskyCombo>
1.804 

> <ROCS_ColorScore>
-6.074

> <ROCS_Overlap>
1791.829

> <ROCS_Rank>
450                 

$$$$
untitled-dbase-50487_39
  -OEChem-08212314543D

 39 40  0     1  0  0  0  0  0999 V2000
   -8.4409    5.7492  -14.3976 C   0  0  0  0  0  0  0  0  0  0  0  0
   -8.5456    2.6937  -10.4815 C   0  0  0  0  0  0  0  0  0  0  0  0
   -8.9316    6.6108  -12.0928 C   0  0  0  0  0  0  0  0  0  0  0  0
   -9.4703    6.1222  -10.7490 C   0  0  0  0  0  0  0  0  0  0  0  0
   -8.8734    4.1563  -12.5413 C   0  0  0  0  0  0  0  0  0  0  0  0
   -9.2117    4.4255   -9.0207 C   0  0  0  0  0  0  0  0  0  0  0  0
   -8.2328    4.0249  -11.1599 C   0  0  1  0  0  0  0  0  0  0  0  0
   -8.5662    3.0512   -9.0066 C   0  0  1  0  0  0  0  0  0  0  0  0
   -6.6840    5.4787  -16.6382 C   0  0  0  0  0  0  0  0  0  0  0  0
   -7.8876    3.3203  -17.0877 C   0  0  0  0  0  0  0  0  0  0  0  0
   -9.1453    5.4931  -17.1641 C   0  0  0  0  0  0  0  0  0  0  0  0
   -8.0052    4.7241  -16.4979 C   0  0  0  0  0  0  0  0  0  0  0  0
   -8.7347    5.5194  -13.0514 N   0  0  0  0  0  0  0  0  0  0  0  0
   -8.6222    5.0703  -10.1955 N   0  0  1  0  0  0  0  0  0  0  0  0
   -8.3206    6.8636  -14.9025 O   0  0  0  0  0  0  0  0  0  0  0  0
   -9.3324    2.1152   -8.2753 O   0  0  0  0  0  0  0  0  0  0  0  0
   -8.3037    4.5830  -15.1045 O   0  0  0  0  0  0  0  0  0  0  0  0
   -9.5090    2.2858  -10.8145 H   0  0  0  0  0  0  0  0  0  0  0  0
   -7.7742    1.9491  -10.7089 H   0  0  0  0  0  0  0  0  0  0  0  0
   -9.6432    7.3071  -12.5556 H   0  0  0  0  0  0  0  0  0  0  0  0
   -7.9950    7.1589  -11.9426 H   0  0  0  0  0  0  0  0  0  0  0  0
   -9.5535    6.9734  -10.0487 H   0  0  0  0  0  0  0  0  0  0  0  0
  -10.4937    5.7360  -10.8938 H   0  0  0  0  0  0  0  0  0  0  0  0
   -8.4259    3.4227  -13.2257 H   0  0  0  0  0  0  0  0  0  0  0  0
   -9.9515    3.9366  -12.5005 H   0  0  0  0  0  0  0  0  0  0  0  0
  -10.3076    4.3901   -9.0979 H   0  0  0  0  0  0  0  0  0  0  0  0
   -8.9439    4.9741   -8.1041 H   0  0  0  0  0  0  0  0  0  0  0  0
   -7.1037    4.0494  -11.3212 H   0  0  0  0  0  0  0  0  0  0  0  0
   -7.5565    3.0951   -8.5968 H   0  0  0  0  0  0  0  0  0  0  0  0
   -6.7643    6.4868  -16.2160 H   0  0  0  0  0  0  0  0  0  0  0  0
   -5.8649    4.9550  -16.1346 H   0  0  0  0  0  0  0  0  0  0  0  0
   -6.4165    5.6059  -17.6934 H   0  0  0  0  0  0  0  0  0  0  0  0
   -8.8334    2.7753  -16.9892 H   0  0  0  0  0  0  0  0  0  0  0  0
   -7.1352    2.7326  -16.5495 H   0  0  0  0  0  0  0  0  0  0  0  0
   -7.6126    3.3489  -18.1470 H   0  0  0  0  0  0  0  0  0  0  0  0
  -10.0931    4.9520  -17.0637 H   0  0  0  0  0  0  0  0  0  0  0  0
   -9.2684    6.4897  -16.7281 H   0  0  0  0  0  0  0  0  0  0  0  0
   -8.9647    5.6033  -18.2395 H   0  0  0  0  0  0  0  0  0  0  0  0
   -9.3077    2.3960   -7.3458 H   0  0  0  0  0  0  0  0  0  0  0  0
  1 13  1  0  0  0  0
  1 15  2  0  0  0  0
  1 17  1  0  0  0  0
  2  7  1  1  0  0  0
  2  8  1  0  0  0  0
  3  4  1  0  0  0  0
  3 13  1  0  0  0  0
  4 14  1  0  0  0  0
  5  7  1  0  0  0  0
  5 13  1  0  0  0  0
  6  8  1  0  0  0  0
  6 14  1  0  0  0  0
  7 14  1  0  0  0  0
  8 16  1  1  0  0  0
  9 12  1  0  0  0  0
 10 12  1  0  0  0  0
 11 12  1  0  0  0  0
 12 17  1  0  0  0  0
  2 18  1  0  0  0  0
  2 19  1  0  0  0  0
  3 20  1  0  0  0  0
  3 21  1  0  0  0  0
  4 22  1  0  0  0  0
  4 23  1  0  0  0  0
  5 24  1  0  0  0  0
  5 25  1  0  0  0  0
  6 26  1  0  0  0  0
  6 27  1  0  0  0  0
  7 28  1  0  0  0  0
  8 29  1  0  0  0  0
  9 30  1  0  0  0  0
  9 31  1  0  0  0  0
  9 32  1  0  0  0  0
 10 33  1  0  0  0  0
 10 34  1  0  0  0  0
 10 35  1  0  0  0  0
 11 36  1  0  0  0  0
 11 37  1  0  0  0  0
 11 38  1  0  0  0  0
 16 39  1  0  0  0  0
M  END
> <id>
EN300-7307902

> <smiles>
CC(C)(C)OC(=O)N1CCN2C[C@@H](O)C[C@H]2C1

> <MDLNUMBER>
MFCD17017546

> <IUPAC Name>
tert-butyl (7S,8aS)-7-hydroxy-octahydropyrrolo[1,2-a]piperazine-2-carboxylate

> <CAS>
1273564-60-5

> <URL>
https://www.enaminestore.com/catalog/EN300-7307902

> <ROCS_ShapeQuery>
_x0404_0B

> <ROCS_TanimotoCombo>
0.365 

> <ROCS_ShapeTanimoto>
0.287 

> <ROCS_ColorTanimoto>
0.078 

> <ROCS_RefTversky>
0.258 

> <ROCS_RefColorTversky>
0.083 

> <ROCS_RefTverskyCombo>
0.342 

> <ROCS_FitTversky>
1.625 

> <ROCS_FitColorTversky>
0.575 

> <ROCS_FitTverskyCombo>
2.200 

> <ROCS_ColorScore>
-6.007

> <ROCS_Overlap>
1720.827

> <ROCS_Rank>
451                 

$$$$
untitled-dbase-13675_111
  -OEChem-08212314543D

 41 42  0     0  0  0  0  0  0999 V2000
   -7.3216    5.2869  -17.8793 C   0  0  0  0  0  0  0  0  0  0  0  0
   -8.9281    5.2511  -11.5249 C   0  0  0  0  0  0  0  0  0  0  0  0
   -9.9763    5.0283  -16.8765 C   0  0  0  0  0  0  0  0  0  0  0  0
   -9.2530    6.5094  -14.9903 C   0  0  0  0  0  0  0  0  0  0  0  0
   -8.3656    4.1166  -15.0792 C   0  0  0  0  0  0  0  0  0  0  0  0
   -9.5247    4.0873  -17.9733 C   0  0  0  0  0  0  0  0  0  0  0  0
   -8.5385    6.4768  -13.6432 C   0  0  0  0  0  0  0  0  0  0  0  0
   -9.0481    4.0288  -13.7190 C   0  0  0  0  0  0  0  0  0  0  0  0
   -8.8304    5.3375  -15.9063 C   0  0  0  0  0  0  0  0  0  0  0  0
   -9.3018    4.7699   -8.7297 C   0  0  0  0  0  0  0  0  0  0  0  0
   -9.1490    2.3324   -9.3168 C   0  0  0  0  0  0  0  0  0  0  0  0
   -7.1872    3.8445   -9.7330 C   0  0  0  0  0  0  0  0  0  0  0  0
   -8.7116    3.7452   -9.6974 C   0  0  0  0  0  0  0  0  0  0  0  0
   -8.2364    4.4645  -18.5063 N   0  0  0  0  0  0  0  0  0  0  0  0
   -8.8339    5.2396  -12.9199 N   0  0  0  0  0  0  0  0  0  0  0  0
   -6.2390    5.5738  -18.3886 O   0  0  0  0  0  0  0  0  0  0  0  0
   -8.7773    6.2531  -10.8284 O   0  0  0  0  0  0  0  0  0  0  0  0
   -7.6777    5.8073  -16.6653 O   0  0  0  0  0  0  0  0  0  0  0  0
   -9.2169    4.0144  -11.0102 O   0  0  0  0  0  0  0  0  0  0  0  0
  -10.3200    5.9621  -17.3485 H   0  0  0  0  0  0  0  0  0  0  0  0
  -10.8414    4.6047  -16.3466 H   0  0  0  0  0  0  0  0  0  0  0  0
  -10.3357    6.4789  -14.8233 H   0  0  0  0  0  0  0  0  0  0  0  0
   -9.0208    7.4627  -15.4779 H   0  0  0  0  0  0  0  0  0  0  0  0
   -7.2825    4.1590  -14.9031 H   0  0  0  0  0  0  0  0  0  0  0  0
   -8.5631    3.1925  -15.6420 H   0  0  0  0  0  0  0  0  0  0  0  0
   -9.4397    3.0563  -17.6103 H   0  0  0  0  0  0  0  0  0  0  0  0
  -10.2424    4.0833  -18.8020 H   0  0  0  0  0  0  0  0  0  0  0  0
   -7.4504    6.5186  -13.7797 H   0  0  0  0  0  0  0  0  0  0  0  0
   -8.8203    7.3591  -13.0599 H   0  0  0  0  0  0  0  0  0  0  0  0
  -10.1214    3.8438  -13.8525 H   0  0  0  0  0  0  0  0  0  0  0  0
   -8.6505    3.1856  -13.1370 H   0  0  0  0  0  0  0  0  0  0  0  0
   -8.9902    5.7853   -8.9995 H   0  0  0  0  0  0  0  0  0  0  0  0
  -10.3961    4.7328   -8.7209 H   0  0  0  0  0  0  0  0  0  0  0  0
   -8.9414    4.5968   -7.7092 H   0  0  0  0  0  0  0  0  0  0  0  0
   -8.7278    1.5940  -10.0085 H   0  0  0  0  0  0  0  0  0  0  0  0
  -10.2383    2.2303   -9.3820 H   0  0  0  0  0  0  0  0  0  0  0  0
   -8.8366    2.0729   -8.3001 H   0  0  0  0  0  0  0  0  0  0  0  0
   -6.7636    3.1096  -10.4271 H   0  0  0  0  0  0  0  0  0  0  0  0
   -6.8551    4.8415  -10.0402 H   0  0  0  0  0  0  0  0  0  0  0  0
   -6.7592    3.6227   -8.7487 H   0  0  0  0  0  0  0  0  0  0  0  0
   -7.9821    4.0938  -19.4185 H   0  0  0  0  0  0  0  0  0  0  0  0
  1 14  1  0  0  0  0
  1 16  2  0  0  0  0
  1 18  1  0  0  0  0
  2 15  1  0  0  0  0
  2 17  2  0  0  0  0
  2 19  1  0  0  0  0
  3  6  1  0  0  0  0
  3  9  1  0  0  0  0
  4  7  1  0  0  0  0
  4  9  1  0  0  0  0
  5  8  1  0  0  0  0
  5  9  1  0  0  0  0
  6 14  1  0  0  0  0
  7 15  1  0  0  0  0
  8 15  1  0  0  0  0
  9 18  1  0  0  0  0
 10 13  1  0  0  0  0
 11 13  1  0  0  0  0
 12 13  1  0  0  0  0
 13 19  1  0  0  0  0
  3 20  1  0  0  0  0
  3 21  1  0  0  0  0
  4 22  1  0  0  0  0
  4 23  1  0  0  0  0
  5 24  1  0  0  0  0
  5 25  1  0  0  0  0
  6 26  1  0  0  0  0
  6 27  1  0  0  0  0
  7 28  1  0  0  0  0
  7 29  1  0  0  0  0
  8 30  1  0  0  0  0
  8 31  1  0  0  0  0
 10 32  1  0  0  0  0
 10 33  1  0  0  0  0
 10 34  1  0  0  0  0
 11 35  1  0  0  0  0
 11 36  1  0  0  0  0
 11 37  1  0  0  0  0
 12 38  1  0  0  0  0
 12 39  1  0  0  0  0
 12 40  1  0  0  0  0
 14 41  1  0  0  0  0
M  END
> <id>
EN300-802957

> <smiles>
CC(C)(C)OC(=O)N1CCC2(CCNC(=O)O2)CC1

> <MDLNUMBER>
MFCD11109902

> <IUPAC Name>
tert-butyl 2-oxo-1-oxa-3,9-diazaspiro[5.5]undecane-9-carboxylate

> <CAS>
1209319-87-8

> <URL>
https://www.enaminestore.com/catalog/EN300-802957

> <ROCS_ShapeQuery>
_x0404_0B

> <ROCS_TanimotoCombo>
0.365 

> <ROCS_ShapeTanimoto>
0.336 

> <ROCS_ColorTanimoto>
0.029 

> <ROCS_RefTversky>
0.295 

> <ROCS_RefColorTversky>
0.032 

> <ROCS_RefTverskyCombo>
0.327 

> <ROCS_FitTversky>
1.712 

> <ROCS_FitColorTversky>
0.244 

> <ROCS_FitTverskyCombo>
1.955 

> <ROCS_ColorScore>
-2.309

> <ROCS_Overlap>
1965.548

> <ROCS_Rank>
452                 

$$$$
untitled-dbase-20567_31
  -OEChem-08212314543D

 43 44  0     0  0  0  0  0  0999 V2000
   -7.3895    5.3760  -18.0600 C   0  0  0  0  0  0  0  0  0  0  0  0
   -8.9408    5.2025  -11.4913 C   0  0  0  0  0  0  0  0  0  0  0  0
   -8.6133    4.7155  -18.6526 C   0  0  0  0  0  0  0  0  0  0  0  0
   -9.5051    4.0295  -17.6365 C   0  0  0  0  0  0  0  0  0  0  0  0
   -9.7950    4.9690  -16.4746 C   0  0  0  0  0  0  0  0  0  0  0  0
   -8.7761    6.6158  -14.8411 C   0  0  0  0  0  0  0  0  0  0  0  0
   -7.8967    4.2677  -14.8974 C   0  0  0  0  0  0  0  0  0  0  0  0
   -9.6301    6.2524  -13.6278 C   0  0  0  0  0  0  0  0  0  0  0  0
   -8.7377    3.9325  -13.6647 C   0  0  0  0  0  0  0  0  0  0  0  0
   -8.4957    5.4054  -15.7623 C   0  0  0  0  0  0  0  0  0  0  0  0
  -10.0534    4.8110   -8.8833 C   0  0  0  0  0  0  0  0  0  0  0  0
   -9.0536    2.5099   -9.0049 C   0  0  0  0  0  0  0  0  0  0  0  0
   -7.5594    4.5277   -9.0697 C   0  0  0  0  0  0  0  0  0  0  0  0
   -8.9232    3.9611   -9.4622 C   0  0  0  0  0  0  0  0  0  0  0  0
   -7.4795    5.8019  -16.7551 N   0  0  0  0  0  0  0  0  0  0  0  0
   -9.0546    5.1326  -12.8846 N   0  0  0  0  0  0  0  0  0  0  0  0
   -6.3991    5.5999  -18.7587 O   0  0  0  0  0  0  0  0  0  0  0  0
   -8.7809    6.2461  -10.8606 O   0  0  0  0  0  0  0  0  0  0  0  0
   -9.0285    3.9745  -10.8905 O   0  0  0  0  0  0  0  0  0  0  0  0
   -9.1780    5.4967  -19.1745 H   0  0  0  0  0  0  0  0  0  0  0  0
   -8.2857    3.9856  -19.4005 H   0  0  0  0  0  0  0  0  0  0  0  0
  -10.4454    3.7323  -18.1155 H   0  0  0  0  0  0  0  0  0  0  0  0
   -9.0308    3.1090  -17.2784 H   0  0  0  0  0  0  0  0  0  0  0  0
  -10.3288    5.8504  -16.8548 H   0  0  0  0  0  0  0  0  0  0  0  0
  -10.4742    4.4773  -15.7674 H   0  0  0  0  0  0  0  0  0  0  0  0
   -9.3000    7.3909  -15.4100 H   0  0  0  0  0  0  0  0  0  0  0  0
   -7.8353    7.0579  -14.5012 H   0  0  0  0  0  0  0  0  0  0  0  0
   -6.8805    4.5223  -14.5673 H   0  0  0  0  0  0  0  0  0  0  0  0
   -7.7983    3.3566  -15.5060 H   0  0  0  0  0  0  0  0  0  0  0  0
   -9.7046    7.0983  -12.9334 H   0  0  0  0  0  0  0  0  0  0  0  0
  -10.6493    6.0291  -13.9603 H   0  0  0  0  0  0  0  0  0  0  0  0
   -9.6570    3.4248  -13.9757 H   0  0  0  0  0  0  0  0  0  0  0  0
   -8.2015    3.2452  -12.9996 H   0  0  0  0  0  0  0  0  0  0  0  0
   -9.9633    5.8534   -9.2093 H   0  0  0  0  0  0  0  0  0  0  0  0
  -11.0362    4.4356   -9.1864 H   0  0  0  0  0  0  0  0  0  0  0  0
  -10.0107    4.8248   -7.7882 H   0  0  0  0  0  0  0  0  0  0  0  0
   -8.2447    1.8965   -9.4179 H   0  0  0  0  0  0  0  0  0  0  0  0
   -9.9901    2.0696   -9.3659 H   0  0  0  0  0  0  0  0  0  0  0  0
   -9.0294    2.4265   -7.9135 H   0  0  0  0  0  0  0  0  0  0  0  0
   -6.7486    3.9183   -9.4848 H   0  0  0  0  0  0  0  0  0  0  0  0
   -7.4336    5.5566   -9.4220 H   0  0  0  0  0  0  0  0  0  0  0  0
   -7.4305    4.5141   -7.9813 H   0  0  0  0  0  0  0  0  0  0  0  0
   -6.7699    6.4603  -16.4411 H   0  0  0  0  0  0  0  0  0  0  0  0
  1  3  1  0  0  0  0
  1 15  1  0  0  0  0
  1 17  2  0  0  0  0
  2 16  1  0  0  0  0
  2 18  2  0  0  0  0
  2 19  1  0  0  0  0
  3  4  1  0  0  0  0
  4  5  1  0  0  0  0
  5 10  1  0  0  0  0
  6  8  1  0  0  0  0
  6 10  1  0  0  0  0
  7  9  1  0  0  0  0
  7 10  1  0  0  0  0
  8 16  1  0  0  0  0
  9 16  1  0  0  0  0
 10 15  1  0  0  0  0
 11 14  1  0  0  0  0
 12 14  1  0  0  0  0
 13 14  1  0  0  0  0
 14 19  1  0  0  0  0
  3 20  1  0  0  0  0
  3 21  1  0  0  0  0
  4 22  1  0  0  0  0
  4 23  1  0  0  0  0
  5 24  1  0  0  0  0
  5 25  1  0  0  0  0
  6 26  1  0  0  0  0
  6 27  1  0  0  0  0
  7 28  1  0  0  0  0
  7 29  1  0  0  0  0
  8 30  1  0  0  0  0
  8 31  1  0  0  0  0
  9 32  1  0  0  0  0
  9 33  1  0  0  0  0
 11 34  1  0  0  0  0
 11 35  1  0  0  0  0
 11 36  1  0  0  0  0
 12 37  1  0  0  0  0
 12 38  1  0  0  0  0
 12 39  1  0  0  0  0
 13 40  1  0  0  0  0
 13 41  1  0  0  0  0
 13 42  1  0  0  0  0
 15 43  1  0  0  0  0
M  END
> <id>
EN300-268919

> <smiles>
CC(C)(C)OC(=O)N1CCC2(CCCC(=O)N2)CC1

> <MDLNUMBER>
MFCD09998742

> <IUPAC Name>
tert-butyl 2-oxo-1,9-diazaspiro[5.5]undecane-9-carboxylate

> <CAS>
1031927-12-4

> <URL>
https://www.enaminestore.com/catalog/EN300-268919

> <ROCS_ShapeQuery>
_x0404_0B

> <ROCS_TanimotoCombo>
0.365 

> <ROCS_ShapeTanimoto>
0.336 

> <ROCS_ColorTanimoto>
0.029 

> <ROCS_RefTversky>
0.294 

> <ROCS_RefColorTversky>
0.032 

> <ROCS_RefTverskyCombo>
0.326 

> <ROCS_FitTversky>
1.725 

> <ROCS_FitColorTversky>
0.243 

> <ROCS_FitTverskyCombo>
1.968 

> <ROCS_ColorScore>
-2.306

> <ROCS_Overlap>
1962.802

> <ROCS_Rank>
453                 

$$$$
untitled-dbase-24218_3
  -OEChem-08212314543D

 37 40  0     1  0  0  0  0  0999 V2000
   -7.6266    6.9861  -11.1630 C   0  0  0  0  0  0  0  0  0  0  0  0
   -9.1162    7.3931  -11.2604 C   0  0  0  0  0  0  0  0  0  0  0  0
   -7.6578    4.6406  -12.2040 C   0  0  0  0  0  0  0  0  0  0  0  0
  -10.1610    5.3243  -12.3593 C   0  0  0  0  0  0  0  0  0  0  0  0
   -8.2644    3.8475  -15.2012 C   0  0  0  0  0  0  0  0  0  0  0  0
   -9.1956    4.9722  -17.3710 C   0  0  0  0  0  0  0  0  0  0  0  0
   -7.2527    5.4749  -16.9196 C   0  0  0  0  0  0  0  0  0  0  0  0
   -8.9943    6.2846  -15.1803 C   0  0  0  0  0  0  0  0  0  0  0  0
   -7.5548    5.4702  -10.9073 C   0  0  2  0  0  0  0  0  0  0  0  0
   -9.9765    6.1330  -11.0588 C   0  0  1  0  0  0  0  0  0  0  0  0
   -8.4592    5.1243  -16.0205 C   0  0  0  0  0  0  0  0  0  0  0  0
   -8.8508    5.0056  -13.1428 C   0  0  0  0  0  0  0  0  0  0  0  0
   -9.1521    3.8652  -14.0416 N   0  0  0  0  0  0  0  0  0  0  0  0
   -8.8906    5.8771   -8.6554 O   0  0  0  0  0  0  0  0  0  0  0  0
   -9.3850    3.7693   -9.9628 O   0  0  0  0  0  0  0  0  0  0  0  0
   -8.1128    5.6293  -18.0748 O   0  0  0  0  0  0  0  0  0  0  0  0
   -8.4460    6.1945  -13.8662 O   0  0  0  0  0  0  0  0  0  0  0  0
   -9.0069    5.1646   -9.9111 S   0  0  0  0  0  0  0  0  0  0  0  0
   -7.0540    7.2901  -12.0448 H   0  0  0  0  0  0  0  0  0  0  0  0
   -7.1800    7.5175  -10.3125 H   0  0  0  0  0  0  0  0  0  0  0  0
   -9.3304    8.1097  -10.4571 H   0  0  0  0  0  0  0  0  0  0  0  0
   -9.3448    7.9094  -12.1977 H   0  0  0  0  0  0  0  0  0  0  0  0
   -6.7171    4.7642  -12.7578 H   0  0  0  0  0  0  0  0  0  0  0  0
   -7.7129    3.5809  -11.9210 H   0  0  0  0  0  0  0  0  0  0  0  0
  -10.6701    4.3847  -12.1030 H   0  0  0  0  0  0  0  0  0  0  0  0
  -10.8641    5.8781  -12.9915 H   0  0  0  0  0  0  0  0  0  0  0  0
   -8.4505    2.9602  -15.8194 H   0  0  0  0  0  0  0  0  0  0  0  0
   -7.2281    3.7688  -14.8503 H   0  0  0  0  0  0  0  0  0  0  0  0
   -9.3323    3.9492  -17.7322 H   0  0  0  0  0  0  0  0  0  0  0  0
  -10.1344    5.5222  -17.4693 H   0  0  0  0  0  0  0  0  0  0  0  0
   -6.7264    6.4040  -16.6806 H   0  0  0  0  0  0  0  0  0  0  0  0
   -6.5206    4.6772  -17.0833 H   0  0  0  0  0  0  0  0  0  0  0  0
   -8.6940    7.2482  -15.5977 H   0  0  0  0  0  0  0  0  0  0  0  0
  -10.0841    6.2800  -15.1366 H   0  0  0  0  0  0  0  0  0  0  0  0
   -6.6661    5.1914  -10.3338 H   0  0  0  0  0  0  0  0  0  0  0  0
  -10.9424    6.3619  -10.5996 H   0  0  0  0  0  0  0  0  0  0  0  0
  -10.1176    3.9109  -14.3484 H   0  0  0  0  0  0  0  0  0  0  0  0
  1  2  1  0  0  0  0
  1  9  1  0  0  0  0
  2 10  1  0  0  0  0
  3  9  1  0  0  0  0
  3 12  1  0  0  0  0
  4 10  1  0  0  0  0
  4 12  1  0  0  0  0
  5 11  1  0  0  0  0
  5 13  1  0  0  0  0
  6 11  1  0  0  0  0
  6 16  1  0  0  0  0
  7 11  1  0  0  0  0
  7 16  1  0  0  0  0
  8 11  1  0  0  0  0
  8 17  1  0  0  0  0
  9 18  1  0  0  0  0
 10 18  1  0  0  0  0
 12 13  1  0  0  0  0
 12 17  1  0  0  0  0
 14 18  2  0  0  0  0
 15 18  2  0  0  0  0
  1 19  1  0  0  0  0
  1 20  1  0  0  0  0
  2 21  1  0  0  0  0
  2 22  1  0  0  0  0
  3 23  1  0  0  0  0
  3 24  1  0  0  0  0
  4 25  1  0  0  0  0
  4 26  1  0  0  0  0
  5 27  1  0  0  0  0
  5 28  1  0  0  0  0
  6 29  1  0  0  0  0
  6 30  1  0  0  0  0
  7 31  1  0  0  0  0
  7 32  1  0  0  0  0
  8 33  1  0  0  0  0
  8 34  1  0  0  0  0
  9 35  1  0  0  0  0
 10 36  1  0  0  0  0
 13 37  1  0  0  0  0
M  END
> <id>
EN300-1278796

> <smiles>
O=S1(=O)C2CCC1CC3(C2)NCC4(COC4)CO3

> <IUPAC Name>
8lambda6-dispiro[8lambda6-thiabicyclo[3.2.1]octane-3,2'-[1,3]oxazinane-5',3''-oxetane]-8,8-dione

> <CAS>
2171926-26-2

> <URL>
https://www.enaminestore.com/catalog/EN300-1278796

> <ROCS_ShapeQuery>
_x0404_0B

> <ROCS_TanimotoCombo>
0.365 

> <ROCS_ShapeTanimoto>
0.276 

> <ROCS_ColorTanimoto>
0.090 

> <ROCS_RefTversky>
0.252 

> <ROCS_RefColorTversky>
0.101 

> <ROCS_RefTverskyCombo>
0.353 

> <ROCS_FitTversky>
1.516 

> <ROCS_FitColorTversky>
0.437 

> <ROCS_FitTverskyCombo>
1.953 

> <ROCS_ColorScore>
-7.338

> <ROCS_Overlap>
1678.902

> <ROCS_Rank>
454                 

$$$$
untitled-dbase-43786_0
  -OEChem-08212314543D

 27 30  0     0  0  0  0  0  0999 V2000
   -8.1166    5.7240  -17.5855 C   0  0  0  0  0  0  0  0  0  0  0  0
   -7.7695    4.3741  -17.5462 C   0  0  0  0  0  0  0  0  0  0  0  0
   -8.4107    6.4091  -16.4061 C   0  0  0  0  0  0  0  0  0  0  0  0
   -7.7131    3.6973  -16.3272 C   0  0  0  0  0  0  0  0  0  0  0  0
   -8.3575    5.7406  -15.1778 C   0  0  0  0  0  0  0  0  0  0  0  0
   -8.0061    4.3738  -15.1375 C   0  0  0  0  0  0  0  0  0  0  0  0
   -8.6021    5.7446  -12.7089 C   0  0  0  0  0  0  0  0  0  0  0  0
   -8.2586    4.4111  -12.6770 C   0  0  0  0  0  0  0  0  0  0  0  0
   -8.6698    5.2198  -10.6475 C   0  0  0  0  0  0  0  0  0  0  0  0
   -8.7842    5.1184   -9.2298 C   0  0  0  0  0  0  0  0  0  0  0  0
   -8.5392    3.9430   -8.6214 C   0  0  0  0  0  0  0  0  0  0  0  0
   -8.1573    2.7629   -9.3772 C   0  0  0  0  0  0  0  0  0  0  0  0
   -8.0467    2.8473  -10.7128 C   0  0  0  0  0  0  0  0  0  0  0  0
   -8.6778    6.5002  -13.9328 C   0  0  0  0  0  0  0  0  0  0  0  0
   -7.9397    3.6271  -13.8423 C   0  0  0  0  0  0  0  0  0  0  0  0
   -8.8545    6.2402  -11.4606 N   0  0  0  0  0  0  0  0  0  0  0  0
   -8.3006    4.0649  -11.3440 N   0  0  0  0  0  0  0  0  0  0  0  0
   -8.9834    7.6843  -13.9590 O   0  0  0  0  0  0  0  0  0  0  0  0
   -7.6336    2.4412  -13.8284 O   0  0  0  0  0  0  0  0  0  0  0  0
   -8.1584    6.2444  -18.5381 H   0  0  0  0  0  0  0  0  0  0  0  0
   -7.5415    3.8472  -18.4684 H   0  0  0  0  0  0  0  0  0  0  0  0
   -8.6789    7.4602  -16.4664 H   0  0  0  0  0  0  0  0  0  0  0  0
   -7.4390    2.6458  -16.3272 H   0  0  0  0  0  0  0  0  0  0  0  0
   -9.0680    5.9931   -8.6557 H   0  0  0  0  0  0  0  0  0  0  0  0
   -8.6211    3.8479   -7.5441 H   0  0  0  0  0  0  0  0  0  0  0  0
   -7.9697    1.8378   -8.8456 H   0  0  0  0  0  0  0  0  0  0  0  0
   -7.7652    1.9974  -11.3209 H   0  0  0  0  0  0  0  0  0  0  0  0
  1  2  2  0  0  0  0
  1  3  1  0  0  0  0
  2  4  1  0  0  0  0
  3  5  2  0  0  0  0
  4  6  2  0  0  0  0
  5  6  1  0  0  0  0
  5 14  1  0  0  0  0
  6 15  1  0  0  0  0
  7  8  2  0  0  0  0
  7 14  1  0  0  0  0
  7 16  1  0  0  0  0
  8 15  1  0  0  0  0
  8 17  1  0  0  0  0
  9 10  1  0  0  0  0
  9 16  2  0  0  0  0
  9 17  1  0  0  0  0
 10 11  2  0  0  0  0
 11 12  1  0  0  0  0
 12 13  2  0  0  0  0
 13 17  1  0  0  0  0
 14 18  2  0  0  0  0
 15 19  2  0  0  0  0
  1 20  1  0  0  0  0
  2 21  1  0  0  0  0
  3 22  1  0  0  0  0
  4 23  1  0  0  0  0
 10 24  1  0  0  0  0
 11 25  1  0  0  0  0
 12 26  1  0  0  0  0
 13 27  1  0  0  0  0
M  END
> <id>
EN300-18211245

> <smiles>
O=C1C=2N=C3C=CC=CN3C2C(=O)C=4C=CC=CC14

> <MDLNUMBER>
MFCD01464545

> <IUPAC Name>
11,17-diazatetracyclo[8.7.0.0^{3,8}.0^{11,16}]heptadeca-1(10),3,5,7,12,14,16-heptaene-2,9-dione

> <CAS>
6543-78-8

> <URL>
https://www.enaminestore.com/catalog/EN300-18211245

> <ROCS_ShapeQuery>
_x0404_0B

> <ROCS_TanimotoCombo>
0.365 

> <ROCS_ShapeTanimoto>
0.295 

> <ROCS_ColorTanimoto>
0.070 

> <ROCS_RefTversky>
0.270 

> <ROCS_RefColorTversky>
0.076 

> <ROCS_RefTverskyCombo>
0.345 

> <ROCS_FitTversky>
1.471 

> <ROCS_FitColorTversky>
0.479 

> <ROCS_FitTverskyCombo>
1.950 

> <ROCS_ColorScore>
-5.474

> <ROCS_Overlap>
1798.048

> <ROCS_Rank>
455                 

$$$$
untitled-dbase-30756_108
  -OEChem-08212314543D

 43 44  0     0  0  0  0  0  0999 V2000
   -8.3477    5.6332  -14.1677 C   0  0  0  0  0  0  0  0  0  0  0  0
   -8.4724    4.2285   -8.1003 C   0  0  0  0  0  0  0  0  0  0  0  0
  -10.6522    3.7285   -9.2810 C   0  0  0  0  0  0  0  0  0  0  0  0
   -7.7434    4.2353   -9.4458 C   0  0  0  0  0  0  0  0  0  0  0  0
   -9.9238    3.7655  -10.6280 C   0  0  0  0  0  0  0  0  0  0  0  0
   -9.0059    6.1607  -10.5615 C   0  0  0  0  0  0  0  0  0  0  0  0
   -9.3088    6.5224  -12.0098 C   0  0  0  0  0  0  0  0  0  0  0  0
   -7.9182    4.5573  -11.9577 C   0  0  0  0  0  0  0  0  0  0  0  0
   -9.7218    3.3509   -8.1294 C   0  0  0  0  0  0  0  0  0  0  0  0
   -8.6568    4.6544  -10.6101 C   0  0  0  0  0  0  0  0  0  0  0  0
   -6.7285    5.1573  -16.4742 C   0  0  0  0  0  0  0  0  0  0  0  0
   -7.7826    2.8777  -16.5163 C   0  0  0  0  0  0  0  0  0  0  0  0
   -9.2126    4.9223  -16.8040 C   0  0  0  0  0  0  0  0  0  0  0  0
   -7.9727    4.3417  -16.1255 C   0  0  0  0  0  0  0  0  0  0  0  0
   -8.5230    5.5823  -12.7953 N   0  0  0  0  0  0  0  0  0  0  0  0
   -8.3524    6.6705  -14.8266 O   0  0  0  0  0  0  0  0  0  0  0  0
   -9.3194    1.9888   -8.2628 O   0  0  0  0  0  0  0  0  0  0  0  0
   -8.1652    4.3881  -14.7073 O   0  0  0  0  0  0  0  0  0  0  0  0
   -7.7947    3.8892   -7.3038 H   0  0  0  0  0  0  0  0  0  0  0  0
   -8.7512    5.2547   -7.8244 H   0  0  0  0  0  0  0  0  0  0  0  0
  -11.1028    4.7094   -9.0805 H   0  0  0  0  0  0  0  0  0  0  0  0
  -11.4972    3.0291   -9.3213 H   0  0  0  0  0  0  0  0  0  0  0  0
   -6.8922    4.9261   -9.3822 H   0  0  0  0  0  0  0  0  0  0  0  0
   -7.3197    3.2396   -9.6265 H   0  0  0  0  0  0  0  0  0  0  0  0
   -9.6814    2.7380  -10.9238 H   0  0  0  0  0  0  0  0  0  0  0  0
  -10.6217    4.1477  -11.3845 H   0  0  0  0  0  0  0  0  0  0  0  0
   -8.1423    6.7432  -10.2170 H   0  0  0  0  0  0  0  0  0  0  0  0
   -9.8473    6.3841   -9.8985 H   0  0  0  0  0  0  0  0  0  0  0  0
  -10.3651    6.3698  -12.2562 H   0  0  0  0  0  0  0  0  0  0  0  0
   -9.0363    7.5535  -12.2543 H   0  0  0  0  0  0  0  0  0  0  0  0
   -6.8558    4.8141  -11.8624 H   0  0  0  0  0  0  0  0  0  0  0  0
   -7.9852    3.5815  -12.4482 H   0  0  0  0  0  0  0  0  0  0  0  0
  -10.2551    3.4461   -7.1742 H   0  0  0  0  0  0  0  0  0  0  0  0
   -6.8610    6.2088  -16.1952 H   0  0  0  0  0  0  0  0  0  0  0  0
   -5.8383    4.7722  -15.9662 H   0  0  0  0  0  0  0  0  0  0  0  0
   -6.5430    5.1451  -17.5543 H   0  0  0  0  0  0  0  0  0  0  0  0
   -8.6729    2.2888  -16.2679 H   0  0  0  0  0  0  0  0  0  0  0  0
   -6.9512    2.4300  -15.9599 H   0  0  0  0  0  0  0  0  0  0  0  0
   -7.5820    2.7682  -17.5870 H   0  0  0  0  0  0  0  0  0  0  0  0
  -10.1052    4.3375  -16.5540 H   0  0  0  0  0  0  0  0  0  0  0  0
   -9.3858    5.9616  -16.5063 H   0  0  0  0  0  0  0  0  0  0  0  0
   -9.1136    4.8844  -17.8949 H   0  0  0  0  0  0  0  0  0  0  0  0
  -10.1322    1.4591   -8.2782 H   0  0  0  0  0  0  0  0  0  0  0  0
  1 15  1  0  0  0  0
  1 16  2  0  0  0  0
  1 18  1  0  0  0  0
  2  4  1  0  0  0  0
  2  9  1  0  0  0  0
  3  5  1  0  0  0  0
  3  9  1  0  0  0  0
  4 10  1  0  0  0  0
  5 10  1  0  0  0  0
  6  7  1  0  0  0  0
  6 10  1  0  0  0  0
  7 15  1  0  0  0  0
  8 10  1  0  0  0  0
  8 15  1  0  0  0  0
  9 17  1  0  0  0  0
 11 14  1  0  0  0  0
 12 14  1  0  0  0  0
 13 14  1  0  0  0  0
 14 18  1  0  0  0  0
  2 19  1  0  0  0  0
  2 20  1  0  0  0  0
  3 21  1  0  0  0  0
  3 22  1  0  0  0  0
  4 23  1  0  0  0  0
  4 24  1  0  0  0  0
  5 25  1  0  0  0  0
  5 26  1  0  0  0  0
  6 27  1  0  0  0  0
  6 28  1  0  0  0  0
  7 29  1  0  0  0  0
  7 30  1  0  0  0  0
  8 31  1  0  0  0  0
  8 32  1  0  0  0  0
  9 33  1  0  0  0  0
 11 34  1  0  0  0  0
 11 35  1  0  0  0  0
 11 36  1  0  0  0  0
 12 37  1  0  0  0  0
 12 38  1  0  0  0  0
 12 39  1  0  0  0  0
 13 40  1  0  0  0  0
 13 41  1  0  0  0  0
 13 42  1  0  0  0  0
 17 43  1  0  0  0  0
M  END
> <id>
EN300-6497722

> <smiles>
CC(C)(C)OC(=O)N1CCC2(C1)CCC(O)CC2

> <MDLNUMBER>
MFCD29046448

> <IUPAC Name>
tert-butyl 8-hydroxy-2-azaspiro[4.5]decane-2-carboxylate

> <CAS>
1341036-10-9

> <URL>
https://www.enaminestore.com/catalog/EN300-6497722

> <ROCS_ShapeQuery>
_x0404_0B

> <ROCS_TanimotoCombo>
0.365 

> <ROCS_ShapeTanimoto>
0.276 

> <ROCS_ColorTanimoto>
0.089 

> <ROCS_RefTversky>
0.252 

> <ROCS_RefColorTversky>
0.092 

> <ROCS_RefTverskyCombo>
0.344 

> <ROCS_FitTversky>
1.538 

> <ROCS_FitColorTversky>
0.703 

> <ROCS_FitTverskyCombo>
2.241 

> <ROCS_ColorScore>
-6.665

> <ROCS_Overlap>
1677.702

> <ROCS_Rank>
456                 

$$$$
untitled-dbase-46772_314
  -OEChem-08212314543D

 41 43  0     1  0  0  0  0  0999 V2000
   -7.9515    4.8540  -16.9315 C   0  0  0  0  0  0  0  0  0  0  0  0
   -8.1745    4.0597  -14.9733 C   0  0  0  0  0  0  0  0  0  0  0  0
   -8.3614    5.4105  -14.8519 C   0  0  0  0  0  0  0  0  0  0  0  0
   -8.8816    5.5300  -10.9986 C   0  0  0  0  0  0  0  0  0  0  0  0
   -9.2648    8.1831  -13.7693 C   0  0  0  0  0  0  0  0  0  0  0  0
   -7.9806    7.4700  -13.3085 C   0  0  0  0  0  0  0  0  0  0  0  0
  -10.0485    6.8721  -13.5743 C   0  0  0  0  0  0  0  0  0  0  0  0
   -7.8396    3.8498  -12.5468 C   0  0  0  0  0  0  0  0  0  0  0  0
   -8.2392    3.1214  -13.8398 C   0  0  2  0  0  0  0  0  0  0  0  0
   -8.6953    6.1051  -13.5018 C   0  0  0  0  0  0  0  0  0  0  0  0
   -8.4166    5.6140   -8.1721 C   0  0  0  0  0  0  0  0  0  0  0  0
   -8.6775    3.1168   -8.2420 C   0  0  0  0  0  0  0  0  0  0  0  0
   -6.8078    4.2149   -9.5095 C   0  0  0  0  0  0  0  0  0  0  0  0
   -8.2497    4.3567   -9.0242 C   0  0  0  0  0  0  0  0  0  0  0  0
   -7.9224    3.7124  -16.2742 N   0  0  0  0  0  0  0  0  0  0  0  0
   -8.2141    5.9177  -16.1073 N   0  0  0  0  0  0  0  0  0  0  0  0
   -8.5434    5.1389  -12.3154 N   0  0  0  0  0  0  0  0  0  0  0  0
   -8.9624    6.6931  -10.6095 O   0  0  0  0  0  0  0  0  0  0  0  0
   -7.3669    2.0115  -14.0322 O   0  0  0  0  0  0  0  0  0  0  0  0
   -9.1072    4.4632  -10.1668 O   0  0  0  0  0  0  0  0  0  0  0  0
   -7.7915    4.9803  -17.9920 H   0  0  0  0  0  0  0  0  0  0  0  0
   -9.5913    9.0264  -13.1409 H   0  0  0  0  0  0  0  0  0  0  0  0
   -9.2361    8.5377  -14.8132 H   0  0  0  0  0  0  0  0  0  0  0  0
   -7.0935    7.6538  -13.9269 H   0  0  0  0  0  0  0  0  0  0  0  0
   -7.7327    7.7375  -12.2724 H   0  0  0  0  0  0  0  0  0  0  0  0
  -10.6313    6.8506  -12.6403 H   0  0  0  0  0  0  0  0  0  0  0  0
  -10.7265    6.6099  -14.3978 H   0  0  0  0  0  0  0  0  0  0  0  0
   -8.0672    3.2070  -11.6636 H   0  0  0  0  0  0  0  0  0  0  0  0
   -6.7353    4.0010  -12.5109 H   0  0  0  0  0  0  0  0  0  0  0  0
   -9.2569    2.7331  -13.7362 H   0  0  0  0  0  0  0  0  0  0  0  0
   -8.1107    6.5063   -8.7300 H   0  0  0  0  0  0  0  0  0  0  0  0
   -9.4537    5.7461   -7.8467 H   0  0  0  0  0  0  0  0  0  0  0  0
   -7.7776    5.5714   -7.2827 H   0  0  0  0  0  0  0  0  0  0  0  0
   -8.5594    2.2123   -8.8495 H   0  0  0  0  0  0  0  0  0  0  0  0
   -9.7386    3.1717   -7.9732 H   0  0  0  0  0  0  0  0  0  0  0  0
   -8.0931    2.9966   -7.3241 H   0  0  0  0  0  0  0  0  0  0  0  0
   -6.6878    3.3131  -10.1207 H   0  0  0  0  0  0  0  0  0  0  0  0
   -6.4956    5.0795  -10.1042 H   0  0  0  0  0  0  0  0  0  0  0  0
   -6.1203    4.1082   -8.6626 H   0  0  0  0  0  0  0  0  0  0  0  0
   -8.2888    6.8881  -16.3840 H   0  0  0  0  0  0  0  0  0  0  0  0
   -7.6578    1.5706  -14.8452 H   0  0  0  0  0  0  0  0  0  0  0  0
  1 15  2  0  0  0  0
  1 16  1  0  0  0  0
  2  3  2  0  0  0  0
  2  9  1  0  0  0  0
  2 15  1  0  0  0  0
  3 10  1  0  0  0  0
  3 16  1  0  0  0  0
  4 17  1  0  0  0  0
  4 18  2  0  0  0  0
  4 20  1  0  0  0  0
  5  6  1  0  0  0  0
  5  7  1  0  0  0  0
  6 10  1  0  0  0  0
  7 10  1  0  0  0  0
  8  9  1  0  0  0  0
  8 17  1  0  0  0  0
  9 19  1  0  0  0  0
 10 17  1  0  0  0  0
 11 14  1  0  0  0  0
 12 14  1  0  0  0  0
 13 14  1  0  0  0  0
 14 20  1  0  0  0  0
  1 21  1  0  0  0  0
  5 22  1  0  0  0  0
  5 23  1  0  0  0  0
  6 24  1  0  0  0  0
  6 25  1  0  0  0  0
  7 26  1  0  0  0  0
  7 27  1  0  0  0  0
  8 28  1  0  0  0  0
  8 29  1  0  0  0  0
  9 30  1  0  0  0  0
 11 31  1  0  0  0  0
 11 32  1  0  0  0  0
 11 33  1  0  0  0  0
 12 34  1  0  0  0  0
 12 35  1  0  0  0  0
 12 36  1  0  0  0  0
 13 37  1  0  0  0  0
 13 38  1  0  0  0  0
 13 39  1  0  0  0  0
 16 40  1  0  0  0  0
 19 41  1  0  0  0  0
M  END
> <id>
EN300-26666148

> <smiles>
CC(C)(C)OC(=O)N1CC(O)C=2N=CNC2C31CCC3

> <IUPAC Name>
tert-butyl 7'-hydroxy-3',5',6',7'-tetrahydrospiro[cyclobutane-1,4'-imidazo[4,5-c]pyridine]-5'-carboxylate

> <CAS>
2413905-18-5

> <URL>
https://www.enaminestore.com/catalog/EN300-26666148

> <ROCS_ShapeQuery>
_x0404_0B

> <ROCS_TanimotoCombo>
0.365 

> <ROCS_ShapeTanimoto>
0.287 

> <ROCS_ColorTanimoto>
0.078 

> <ROCS_RefTversky>
0.263 

> <ROCS_RefColorTversky>
0.086 

> <ROCS_RefTverskyCombo>
0.349 

> <ROCS_FitTversky>
1.446 

> <ROCS_FitColorTversky>
0.467 

> <ROCS_FitTverskyCombo>
1.913 

> <ROCS_ColorScore>
-6.215

> <ROCS_Overlap>
1756.644

> <ROCS_Rank>
457                 

$$$$
untitled-dbase-23246_3
  -OEChem-08212314543D

 41 44  0     0  0  0  0  0  0999 V2000
   -9.1618    2.7583   -8.7988 C   0  0  0  0  0  0  0  0  0  0  0  0
   -9.3041    3.9214   -8.0461 C   0  0  0  0  0  0  0  0  0  0  0  0
   -8.8286    2.8372  -10.1532 C   0  0  0  0  0  0  0  0  0  0  0  0
   -9.1202    5.1625   -8.6489 C   0  0  0  0  0  0  0  0  0  0  0  0
  -10.3903    7.8657  -11.3221 C   0  0  0  0  0  0  0  0  0  0  0  0
  -11.3326    8.2141  -12.2875 C   0  0  0  0  0  0  0  0  0  0  0  0
  -10.5612    6.4041  -13.6945 C   0  0  0  0  0  0  0  0  0  0  0  0
   -9.6094    6.0491  -12.7300 C   0  0  0  0  0  0  0  0  0  0  0  0
   -8.6485    4.0771  -10.7808 C   0  0  0  0  0  0  0  0  0  0  0  0
   -9.5439    6.7745  -11.5376 C   0  0  0  0  0  0  0  0  0  0  0  0
   -8.8074    5.2335  -10.0098 C   0  0  0  0  0  0  0  0  0  0  0  0
  -11.4218    7.4806  -13.4691 C   0  0  0  0  0  0  0  0  0  0  0  0
   -8.6502    4.9409  -13.0129 C   0  0  0  0  0  0  0  0  0  0  0  0
   -8.4249    3.6328  -15.0637 C   0  0  0  0  0  0  0  0  0  0  0  0
   -7.4352    5.9363  -14.8838 C   0  0  0  0  0  0  0  0  0  0  0  0
   -9.0225    4.0443  -16.4060 C   0  0  0  0  0  0  0  0  0  0  0  0
   -8.0696    6.2642  -16.2321 C   0  0  0  0  0  0  0  0  0  0  0  0
   -8.7366    5.3973  -18.3790 C   0  0  0  0  0  0  0  0  0  0  0  0
   -8.2336    4.0815  -12.1205 N   0  0  0  0  0  0  0  0  0  0  0  0
   -8.1994    4.8442  -14.2555 N   0  0  0  0  0  0  0  0  0  0  0  0
   -8.1857    5.0582  -17.0669 N   0  0  0  0  0  0  0  0  0  0  0  0
   -8.6347    6.4851  -10.5500 O   0  0  0  0  0  0  0  0  0  0  0  0
  -12.6027    7.8977  -14.6501 Cl  0  0  0  0  0  0  0  0  0  0  0  0
   -9.3207    1.7888   -8.3356 H   0  0  0  0  0  0  0  0  0  0  0  0
   -9.5610    3.8601   -6.9929 H   0  0  0  0  0  0  0  0  0  0  0  0
   -8.7177    1.9168  -10.7226 H   0  0  0  0  0  0  0  0  0  0  0  0
   -9.2114    6.0685   -8.0560 H   0  0  0  0  0  0  0  0  0  0  0  0
  -10.3127    8.4517  -10.4104 H   0  0  0  0  0  0  0  0  0  0  0  0
  -11.9900    9.0606  -12.1058 H   0  0  0  0  0  0  0  0  0  0  0  0
  -10.6344    5.8490  -14.6272 H   0  0  0  0  0  0  0  0  0  0  0  0
   -9.1019    2.9325  -14.5592 H   0  0  0  0  0  0  0  0  0  0  0  0
   -7.4636    3.1215  -15.2018 H   0  0  0  0  0  0  0  0  0  0  0  0
   -6.3953    5.6080  -15.0084 H   0  0  0  0  0  0  0  0  0  0  0  0
   -7.4251    6.8344  -14.2540 H   0  0  0  0  0  0  0  0  0  0  0  0
   -9.0873    3.1499  -17.0377 H   0  0  0  0  0  0  0  0  0  0  0  0
  -10.0464    4.4140  -16.2603 H   0  0  0  0  0  0  0  0  0  0  0  0
   -9.0514    6.7321  -16.0785 H   0  0  0  0  0  0  0  0  0  0  0  0
   -7.4344    7.0028  -16.7363 H   0  0  0  0  0  0  0  0  0  0  0  0
   -8.1006    6.1554  -18.8596 H   0  0  0  0  0  0  0  0  0  0  0  0
   -8.7696    4.4949  -19.0072 H   0  0  0  0  0  0  0  0  0  0  0  0
   -9.7543    5.7966  -18.2572 H   0  0  0  0  0  0  0  0  0  0  0  0
  1  2  2  0  0  0  0
  1  3  1  0  0  0  0
  2  4  1  0  0  0  0
  3  9  2  0  0  0  0
  4 11  2  0  0  0  0
  5  6  1  0  0  0  0
  5 10  2  0  0  0  0
  6 12  2  0  0  0  0
  7  8  2  0  0  0  0
  7 12  1  0  0  0  0
  8 10  1  0  0  0  0
  8 13  1  0  0  0  0
  9 11  1  0  0  0  0
  9 19  1  0  0  0  0
 10 22  1  0  0  0  0
 11 22  1  0  0  0  0
 12 23  1  0  0  0  0
 13 19  2  0  0  0  0
 13 20  1  0  0  0  0
 14 16  1  0  0  0  0
 14 20  1  0  0  0  0
 15 17  1  0  0  0  0
 15 20  1  0  0  0  0
 16 21  1  0  0  0  0
 17 21  1  0  0  0  0
 18 21  1  0  0  0  0
  1 24  1  0  0  0  0
  2 25  1  0  0  0  0
  3 26  1  0  0  0  0
  4 27  1  0  0  0  0
  5 28  1  0  0  0  0
  6 29  1  0  0  0  0
  7 30  1  0  0  0  0
 14 31  1  0  0  0  0
 14 32  1  0  0  0  0
 15 33  1  0  0  0  0
 15 34  1  0  0  0  0
 16 35  1  0  0  0  0
 16 36  1  0  0  0  0
 17 37  1  0  0  0  0
 17 38  1  0  0  0  0
 18 39  1  0  0  0  0
 18 40  1  0  0  0  0
 18 41  1  0  0  0  0
M  END
> <id>
EN300-6479125

> <smiles>
CN1CCN(CC1)C2=NC=3C=CC=CC3OC=4C=CC(Cl)=CC24

> <MDLNUMBER>
MFCD00242836

> <IUPAC Name>
13-chloro-10-(4-methylpiperazin-1-yl)-2-oxa-9-azatricyclo[9.4.0.0,3,8]pentadeca-1(11),3(8),4,6,9,12,14-heptaene

> <CAS>
1977-10-2

> <URL>
https://www.enaminestore.com/catalog/EN300-6479125

> <ROCS_ShapeQuery>
_x0404_0B

> <ROCS_TanimotoCombo>
0.365 

> <ROCS_ShapeTanimoto>
0.321 

> <ROCS_ColorTanimoto>
0.044 

> <ROCS_RefTversky>
0.292 

> <ROCS_RefColorTversky>
0.048 

> <ROCS_RefTverskyCombo>
0.341 

> <ROCS_FitTversky>
1.438 

> <ROCS_FitColorTversky>
0.333 

> <ROCS_FitTverskyCombo>
1.771 

> <ROCS_ColorScore>
-3.478

> <ROCS_Overlap>
1952.134

> <ROCS_Rank>
458                 

$$$$
untitled-dbase-1135_40
  -OEChem-08212314543D

 38 39  0     0  0  0  0  0  0999 V2000
   -9.0053    4.8719   -8.6525 C   0  0  0  0  0  0  0  0  0  0  0  0
   -9.1911    2.6420   -8.2717 C   0  0  0  0  0  0  0  0  0  0  0  0
   -8.7149    5.6774  -14.1304 C   0  0  0  0  0  0  0  0  0  0  0  0
   -7.7080    4.4705  -10.7818 C   0  0  0  0  0  0  0  0  0  0  0  0
  -10.2682    4.6902  -10.8231 C   0  0  0  0  0  0  0  0  0  0  0  0
   -7.8397    5.5885  -11.8120 C   0  0  0  0  0  0  0  0  0  0  0  0
  -10.0636    4.5571  -12.3295 C   0  0  0  0  0  0  0  0  0  0  0  0
   -9.0321    4.2221  -10.0426 C   0  0  0  0  0  0  0  0  0  0  0  0
   -7.7366    5.1380  -16.7641 C   0  0  0  0  0  0  0  0  0  0  0  0
   -9.9781    4.0843  -17.1815 C   0  0  0  0  0  0  0  0  0  0  0  0
   -9.8291    6.5302  -16.6307 C   0  0  0  0  0  0  0  0  0  0  0  0
   -9.2189    5.1495  -16.3935 C   0  0  0  0  0  0  0  0  0  0  0  0
   -9.1045    3.8888   -7.6991 N   0  0  0  0  0  0  0  0  0  0  0  0
   -9.1483    2.8282   -9.6523 N   0  0  0  0  0  0  0  0  0  0  0  0
   -8.8804    5.2887  -12.7973 N   0  0  0  0  0  0  0  0  0  0  0  0
   -8.9071    6.0741   -8.4442 O   0  0  0  0  0  0  0  0  0  0  0  0
   -9.2874    1.5719   -7.6869 O   0  0  0  0  0  0  0  0  0  0  0  0
   -8.0751    6.6633  -14.4911 O   0  0  0  0  0  0  0  0  0  0  0  0
   -9.3436    4.8286  -15.0034 O   0  0  0  0  0  0  0  0  0  0  0  0
   -7.3592    3.5517  -11.2691 H   0  0  0  0  0  0  0  0  0  0  0  0
   -6.9278    4.7407  -10.0584 H   0  0  0  0  0  0  0  0  0  0  0  0
  -10.4804    5.7401  -10.5823 H   0  0  0  0  0  0  0  0  0  0  0  0
  -11.1576    4.1268  -10.5153 H   0  0  0  0  0  0  0  0  0  0  0  0
   -8.0373    6.5367  -11.2970 H   0  0  0  0  0  0  0  0  0  0  0  0
   -6.8980    5.7204  -12.3641 H   0  0  0  0  0  0  0  0  0  0  0  0
   -9.9251    3.5017  -12.6135 H   0  0  0  0  0  0  0  0  0  0  0  0
  -10.9635    4.9070  -12.8575 H   0  0  0  0  0  0  0  0  0  0  0  0
   -7.1881    5.9013  -16.2006 H   0  0  0  0  0  0  0  0  0  0  0  0
   -7.2788    4.1634  -16.5659 H   0  0  0  0  0  0  0  0  0  0  0  0
   -7.5968    5.3768  -17.8247 H   0  0  0  0  0  0  0  0  0  0  0  0
  -11.0422    4.0889  -16.9188 H   0  0  0  0  0  0  0  0  0  0  0  0
   -9.6054    3.0818  -16.9419 H   0  0  0  0  0  0  0  0  0  0  0  0
   -9.8870    4.2390  -18.2615 H   0  0  0  0  0  0  0  0  0  0  0  0
  -10.8924    6.5387  -16.3649 H   0  0  0  0  0  0  0  0  0  0  0  0
   -9.3202    7.3021  -16.0444 H   0  0  0  0  0  0  0  0  0  0  0  0
   -9.7731    6.8041  -17.6904 H   0  0  0  0  0  0  0  0  0  0  0  0
   -9.1129    4.0606   -6.7004 H   0  0  0  0  0  0  0  0  0  0  0  0
   -9.1938    2.0595  -10.3157 H   0  0  0  0  0  0  0  0  0  0  0  0
  1  8  1  0  0  0  0
  1 13  1  0  0  0  0
  1 16  2  0  0  0  0
  2 13  1  0  0  0  0
  2 14  1  0  0  0  0
  2 17  2  0  0  0  0
  3 15  1  0  0  0  0
  3 18  2  0  0  0  0
  3 19  1  0  0  0  0
  4  6  1  0  0  0  0
  4  8  1  0  0  0  0
  5  7  1  0  0  0  0
  5  8  1  0  0  0  0
  6 15  1  0  0  0  0
  7 15  1  0  0  0  0
  8 14  1  0  0  0  0
  9 12  1  0  0  0  0
 10 12  1  0  0  0  0
 11 12  1  0  0  0  0
 12 19  1  0  0  0  0
  4 20  1  0  0  0  0
  4 21  1  0  0  0  0
  5 22  1  0  0  0  0
  5 23  1  0  0  0  0
  6 24  1  0  0  0  0
  6 25  1  0  0  0  0
  7 26  1  0  0  0  0
  7 27  1  0  0  0  0
  9 28  1  0  0  0  0
  9 29  1  0  0  0  0
  9 30  1  0  0  0  0
 10 31  1  0  0  0  0
 10 32  1  0  0  0  0
 10 33  1  0  0  0  0
 11 34  1  0  0  0  0
 11 35  1  0  0  0  0
 11 36  1  0  0  0  0
 13 37  1  0  0  0  0
 14 38  1  0  0  0  0
M  END
> <id>
EN300-65745

> <smiles>
CC(C)(C)OC(=O)N1CCC2(CC1)NC(=O)NC2=O

> <MDLNUMBER>
MFCD03425517

> <IUPAC Name>
tert-butyl 2,4-dioxo-1,3,8-triazaspiro[4.5]decane-8-carboxylate

> <CAS>
183673-70-3

> <Purity>
95

> <URL>
https://www.enaminestore.com/catalog/EN300-65745

> <ROCS_ShapeQuery>
_x0404_0B

> <ROCS_TanimotoCombo>
0.365 

> <ROCS_ShapeTanimoto>
0.291 

> <ROCS_ColorTanimoto>
0.074 

> <ROCS_RefTversky>
0.265 

> <ROCS_RefColorTversky>
0.080 

> <ROCS_RefTverskyCombo>
0.344 

> <ROCS_FitTversky>
1.520 

> <ROCS_FitColorTversky>
0.505 

> <ROCS_FitTverskyCombo>
2.025 

> <ROCS_ColorScore>
-5.749

> <ROCS_Overlap>
1764.608

> <ROCS_Rank>
459                 

$$$$
untitled-dbase-43434_288
  -OEChem-08212314543D

 42 43  0     1  0  0  0  0  0999 V2000
   -8.4447    5.6060  -14.1529 C   0  0  0  0  0  0  0  0  0  0  0  0
   -8.8667    6.1437  -10.5191 C   0  0  0  0  0  0  0  0  0  0  0  0
  -10.0749    3.8635  -10.5130 C   0  0  0  0  0  0  0  0  0  0  0  0
   -9.1976    6.5645  -11.9425 C   0  0  0  0  0  0  0  0  0  0  0  0
   -8.0951    4.4267  -11.9837 C   0  0  0  0  0  0  0  0  0  0  0  0
   -8.2912    4.1931   -8.2674 C   0  0  0  0  0  0  0  0  0  0  0  0
  -10.6344    3.8741   -9.0918 C   0  0  2  0  0  0  0  0  0  0  0  0
   -9.5823    3.4018   -8.0905 C   0  0  1  0  0  0  0  0  0  0  0  0
   -8.7306    4.6095  -10.5972 C   0  0  1  0  0  0  0  0  0  0  0  0
   -6.9882    4.9705  -16.5284 C   0  0  0  0  0  0  0  0  0  0  0  0
   -8.3430    2.8558  -16.5725 C   0  0  0  0  0  0  0  0  0  0  0  0
   -9.4914    5.0811  -16.7668 C   0  0  0  0  0  0  0  0  0  0  0  0
   -8.3185    4.3224  -16.1474 C   0  0  0  0  0  0  0  0  0  0  0  0
   -8.5761    5.5468  -12.7760 N   0  0  0  0  0  0  0  0  0  0  0  0
   -8.3319    6.6498  -14.7916 O   0  0  0  0  0  0  0  0  0  0  0  0
   -7.8180    4.1146   -9.6151 O   0  0  0  0  0  0  0  0  0  0  0  0
  -11.7874    3.0417   -9.0374 O   0  0  0  0  0  0  0  0  0  0  0  0
   -9.3066    2.0178   -8.3137 O   0  0  0  0  0  0  0  0  0  0  0  0
   -8.4524    4.3608  -14.7223 O   0  0  0  0  0  0  0  0  0  0  0  0
   -7.9656    6.6567  -10.1625 H   0  0  0  0  0  0  0  0  0  0  0  0
   -9.6974    6.4225   -9.8524 H   0  0  0  0  0  0  0  0  0  0  0  0
   -9.9378    2.8206  -10.8331 H   0  0  0  0  0  0  0  0  0  0  0  0
  -10.8092    4.2887  -11.2099 H   0  0  0  0  0  0  0  0  0  0  0  0
  -10.2730    6.6216  -12.1370 H   0  0  0  0  0  0  0  0  0  0  0  0
   -8.7415    7.5274  -12.1978 H   0  0  0  0  0  0  0  0  0  0  0  0
   -6.9971    4.4317  -11.9620 H   0  0  0  0  0  0  0  0  0  0  0  0
   -8.4367    3.5090  -12.4828 H   0  0  0  0  0  0  0  0  0  0  0  0
   -8.4228    5.2379   -7.9807 H   0  0  0  0  0  0  0  0  0  0  0  0
   -7.5050    3.7710   -7.6367 H   0  0  0  0  0  0  0  0  0  0  0  0
  -10.9560    4.8936   -8.8367 H   0  0  0  0  0  0  0  0  0  0  0  0
   -9.9572    3.4923   -7.0659 H   0  0  0  0  0  0  0  0  0  0  0  0
   -6.9667    6.0233  -16.2249 H   0  0  0  0  0  0  0  0  0  0  0  0
   -6.1411    4.4568  -16.0622 H   0  0  0  0  0  0  0  0  0  0  0  0
   -6.8447    4.9589  -17.6149 H   0  0  0  0  0  0  0  0  0  0  0  0
   -9.2957    2.3868  -16.3011 H   0  0  0  0  0  0  0  0  0  0  0  0
   -7.5610    2.2868  -16.0568 H   0  0  0  0  0  0  0  0  0  0  0  0
   -8.1974    2.7455  -17.6519 H   0  0  0  0  0  0  0  0  0  0  0  0
  -10.4457    4.6164  -16.4937 H   0  0  0  0  0  0  0  0  0  0  0  0
   -9.5111    6.1268  -16.4434 H   0  0  0  0  0  0  0  0  0  0  0  0
   -9.4373    5.0560  -17.8612 H   0  0  0  0  0  0  0  0  0  0  0  0
  -11.5000    2.1500   -9.2910 H   0  0  0  0  0  0  0  0  0  0  0  0
   -8.6434    1.7622   -7.6554 H   0  0  0  0  0  0  0  0  0  0  0  0
  1 14  1  0  0  0  0
  1 15  2  0  0  0  0
  1 19  1  0  0  0  0
  2  4  1  0  0  0  0
  2  9  1  0  0  0  0
  3  7  1  0  0  0  0
  3  9  1  0  0  0  0
  4 14  1  0  0  0  0
  5  9  1  0  0  0  0
  5 14  1  0  0  0  0
  6  8  1  0  0  0  0
  6 16  1  0  0  0  0
  7  8  1  0  0  0  0
  7 17  1  1  0  0  0
  8 18  1  1  0  0  0
  9 16  1  0  0  0  0
 10 13  1  0  0  0  0
 11 13  1  0  0  0  0
 12 13  1  0  0  0  0
 13 19  1  0  0  0  0
  2 20  1  0  0  0  0
  2 21  1  0  0  0  0
  3 22  1  0  0  0  0
  3 23  1  0  0  0  0
  4 24  1  0  0  0  0
  4 25  1  0  0  0  0
  5 26  1  0  0  0  0
  5 27  1  0  0  0  0
  6 28  1  0  0  0  0
  6 29  1  0  0  0  0
  7 30  1  0  0  0  0
  8 31  1  0  0  0  0
 10 32  1  0  0  0  0
 10 33  1  0  0  0  0
 10 34  1  0  0  0  0
 11 35  1  0  0  0  0
 11 36  1  0  0  0  0
 11 37  1  0  0  0  0
 12 38  1  0  0  0  0
 12 39  1  0  0  0  0
 12 40  1  0  0  0  0
 17 41  1  0  0  0  0
 18 42  1  0  0  0  0
M  END
> <id>
EN300-28228903

> <smiles>
CC(C)(C)OC(=O)N1CCC2(C1)C[C@@H](O)[C@@H](O)CO2 |&1:13,15,r|

> <IUPAC Name>
rac-tert-butyl (8R,9S)-8,9-dihydroxy-6-oxa-2-azaspiro[4.5]decane-2-carboxylate

> <CAS>
2731011-54-2

> <URL>
https://www.enaminestore.com/catalog/EN300-28228903

> <ROCS_ShapeQuery>
_x0404_0B

> <ROCS_TanimotoCombo>
0.365 

> <ROCS_ShapeTanimoto>
0.279 

> <ROCS_ColorTanimoto>
0.086 

> <ROCS_RefTversky>
0.256 

> <ROCS_RefColorTversky>
0.093 

> <ROCS_RefTverskyCombo>
0.348 

> <ROCS_FitTversky>
1.486 

> <ROCS_FitColorTversky>
0.542 

> <ROCS_FitTverskyCombo>
2.029 

> <ROCS_ColorScore>
-6.690

> <ROCS_Overlap>
1703.689

> <ROCS_Rank>
460                 

$$$$
untitled-dbase-50929_134
  -OEChem-08212314543D

 38 39  0     0  0  0  0  0  0999 V2000
   -9.0672    2.7185   -8.7999 C   0  0  0  0  0  0  0  0  0  0  0  0
   -8.7803    2.7418  -10.1667 C   0  0  0  0  0  0  0  0  0  0  0  0
   -9.1741    3.9107   -8.0863 C   0  0  0  0  0  0  0  0  0  0  0  0
   -8.6134    3.9586  -10.8437 C   0  0  0  0  0  0  0  0  0  0  0  0
   -8.7324    5.1481  -10.1087 C   0  0  0  0  0  0  0  0  0  0  0  0
   -8.9971    5.1287   -8.7377 C   0  0  0  0  0  0  0  0  0  0  0  0
   -8.2206    5.4038  -14.3573 C   0  0  0  0  0  0  0  0  0  0  0  0
   -8.2465    3.9430  -12.3092 C   0  0  0  0  0  0  0  0  0  0  0  0
   -9.9658    5.7496  -12.6374 C   0  0  0  0  0  0  0  0  0  0  0  0
   -9.6021    6.7600  -11.5499 C   0  0  0  0  0  0  0  0  0  0  0  0
   -5.9484    5.6465  -16.0790 C   0  0  0  0  0  0  0  0  0  0  0  0
   -6.4843    3.3043  -16.8113 C   0  0  0  0  0  0  0  0  0  0  0  0
   -8.1401    5.1497  -17.2122 C   0  0  0  0  0  0  0  0  0  0  0  0
   -7.0578    4.6144  -16.2757 C   0  0  0  0  0  0  0  0  0  0  0  0
   -8.7825    5.0454  -13.1257 N   0  0  0  0  0  0  0  0  0  0  0  0
   -8.2326    6.5427  -14.8206 O   0  0  0  0  0  0  0  0  0  0  0  0
   -8.5177    6.3646  -10.6988 O   0  0  0  0  0  0  0  0  0  0  0  0
   -9.0961    6.2863   -8.0277 O   0  0  0  0  0  0  0  0  0  0  0  0
   -7.6528    4.3366  -15.0029 O   0  0  0  0  0  0  0  0  0  0  0  0
   -9.1973    1.7680   -8.2904 H   0  0  0  0  0  0  0  0  0  0  0  0
   -8.6800    1.7983  -10.6986 H   0  0  0  0  0  0  0  0  0  0  0  0
   -9.3930    3.8826   -7.0227 H   0  0  0  0  0  0  0  0  0  0  0  0
   -7.1361    3.9447  -12.4108 H   0  0  0  0  0  0  0  0  0  0  0  0
   -8.5513    2.9740  -12.7666 H   0  0  0  0  0  0  0  0  0  0  0  0
  -10.6856    5.0288  -12.2333 H   0  0  0  0  0  0  0  0  0  0  0  0
  -10.4346    6.2500  -13.4935 H   0  0  0  0  0  0  0  0  0  0  0  0
   -9.2730    7.6961  -12.0437 H   0  0  0  0  0  0  0  0  0  0  0  0
  -10.4950    7.0583  -10.9539 H   0  0  0  0  0  0  0  0  0  0  0  0
   -6.3560    6.5883  -15.6947 H   0  0  0  0  0  0  0  0  0  0  0  0
   -5.1835    5.2886  -15.3822 H   0  0  0  0  0  0  0  0  0  0  0  0
   -5.4634    5.8857  -17.0323 H   0  0  0  0  0  0  0  0  0  0  0  0
   -7.2768    2.5608  -16.9539 H   0  0  0  0  0  0  0  0  0  0  0  0
   -5.7763    2.8676  -16.0976 H   0  0  0  0  0  0  0  0  0  0  0  0
   -5.9690    3.4493  -17.7662 H   0  0  0  0  0  0  0  0  0  0  0  0
   -8.9361    4.4096  -17.3534 H   0  0  0  0  0  0  0  0  0  0  0  0
   -8.5890    6.0703  -16.8253 H   0  0  0  0  0  0  0  0  0  0  0  0
   -7.7282    5.3545  -18.2070 H   0  0  0  0  0  0  0  0  0  0  0  0
   -8.9504    7.0494   -8.6087 H   0  0  0  0  0  0  0  0  0  0  0  0
  1  2  1  0  0  0  0
  1  3  2  0  0  0  0
  2  4  2  0  0  0  0
  3  6  1  0  0  0  0
  4  5  1  0  0  0  0
  4  8  1  0  0  0  0
  5  6  2  0  0  0  0
  5 17  1  0  0  0  0
  6 18  1  0  0  0  0
  7 15  1  0  0  0  0
  7 16  2  0  0  0  0
  7 19  1  0  0  0  0
  8 15  1  0  0  0  0
  9 10  1  0  0  0  0
  9 15  1  0  0  0  0
 10 17  1  0  0  0  0
 11 14  1  0  0  0  0
 12 14  1  0  0  0  0
 13 14  1  0  0  0  0
 14 19  1  0  0  0  0
  1 20  1  0  0  0  0
  2 21  1  0  0  0  0
  3 22  1  0  0  0  0
  8 23  1  0  0  0  0
  8 24  1  0  0  0  0
  9 25  1  0  0  0  0
  9 26  1  0  0  0  0
 10 27  1  0  0  0  0
 10 28  1  0  0  0  0
 11 29  1  0  0  0  0
 11 30  1  0  0  0  0
 11 31  1  0  0  0  0
 12 32  1  0  0  0  0
 12 33  1  0  0  0  0
 12 34  1  0  0  0  0
 13 35  1  0  0  0  0
 13 36  1  0  0  0  0
 13 37  1  0  0  0  0
 18 38  1  0  0  0  0
M  END
> <id>
EN300-12457206

> <smiles>
CC(C)(C)OC(=O)N1CCOC=2C(O)=CC=CC2C1

> <MDLNUMBER>
MFCD24470995

> <IUPAC Name>
tert-butyl 9-hydroxy-2,3,4,5-tetrahydro-1,4-benzoxazepine-4-carboxylate

> <CAS>
1167416-48-9

> <URL>
https://www.enaminestore.com/catalog/EN300-12457206

> <ROCS_ShapeQuery>
_x0404_0B

> <ROCS_TanimotoCombo>
0.365 

> <ROCS_ShapeTanimoto>
0.291 

> <ROCS_ColorTanimoto>
0.074 

> <ROCS_RefTversky>
0.265 

> <ROCS_RefColorTversky>
0.078 

> <ROCS_RefTverskyCombo>
0.343 

> <ROCS_FitTversky>
1.523 

> <ROCS_FitColorTversky>
0.543 

> <ROCS_FitTverskyCombo>
2.065 

> <ROCS_ColorScore>
-5.664

> <ROCS_Overlap>
1764.089

> <ROCS_Rank>
461                 

$$$$
untitled-dbase-44838_1066
  -OEChem-08212314543D

 51 52  0     1  0  0  0  0  0999 V2000
   -8.2564    6.4387  -10.2540 C   0  0  0  0  0  0  0  0  0  0  0  0
   -8.6369    5.8053  -15.2463 C   0  0  0  0  0  0  0  0  0  0  0  0
   -9.2438    3.0742  -12.7569 C   0  0  0  0  0  0  0  0  0  0  0  0
   -8.9611    3.3072  -15.1323 C   0  0  0  0  0  0  0  0  0  0  0  0
   -7.5442    5.0175  -12.3215 C   0  0  0  0  0  0  0  0  0  0  0  0
   -9.6196    5.5870  -12.2401 C   0  0  0  0  0  0  0  0  0  0  0  0
   -8.7568    2.3232  -13.9931 C   0  0  1  0  0  0  0  0  0  0  0  0
   -8.8275    4.5281  -13.0231 C   0  0  0  0  0  0  0  0  0  0  0  0
   -8.4142    7.8791   -7.7033 C   0  0  0  0  0  0  0  0  0  0  0  0
  -10.7475    6.9582   -7.5742 C   0  0  0  0  0  0  0  0  0  0  0  0
   -8.7828    5.3937   -7.5575 C   0  0  0  0  0  0  0  0  0  0  0  0
   -6.2578    5.8182  -16.3487 C   0  0  0  0  0  0  0  0  0  0  0  0
   -7.2926    4.9985  -18.4857 C   0  0  0  0  0  0  0  0  0  0  0  0
   -7.6041    7.3893  -17.7819 C   0  0  0  0  0  0  0  0  0  0  0  0
   -9.3297    6.7180   -8.0884 C   0  0  0  0  0  0  0  0  0  0  0  0
   -7.4469    5.9480  -17.2995 C   0  0  0  0  0  0  0  0  0  0  0  0
   -8.4025    5.8304  -11.4787 N   0  0  0  0  0  0  0  0  0  0  0  0
   -8.8041    4.6326  -14.5143 N   0  0  0  0  0  0  0  0  0  0  0  0
   -7.1733    6.8476   -9.8359 O   0  0  0  0  0  0  0  0  0  0  0  0
   -8.5037    6.9236  -14.7556 O   0  0  0  0  0  0  0  0  0  0  0  0
   -7.3717    2.0221  -13.8713 O   0  0  0  0  0  0  0  0  0  0  0  0
   -9.3959    6.6440   -9.5215 O   0  0  0  0  0  0  0  0  0  0  0  0
   -8.6359    5.5703  -16.5964 O   0  0  0  0  0  0  0  0  0  0  0  0
  -10.3369    3.0058  -12.6992 H   0  0  0  0  0  0  0  0  0  0  0  0
   -8.8178    2.6842  -11.8276 H   0  0  0  0  0  0  0  0  0  0  0  0
   -8.2387    3.1866  -15.9452 H   0  0  0  0  0  0  0  0  0  0  0  0
   -9.9792    3.2601  -15.5325 H   0  0  0  0  0  0  0  0  0  0  0  0
   -6.9885    4.2674  -11.7503 H   0  0  0  0  0  0  0  0  0  0  0  0
   -6.8502    5.6068  -12.9282 H   0  0  0  0  0  0  0  0  0  0  0  0
   -9.9702    6.4566  -12.8005 H   0  0  0  0  0  0  0  0  0  0  0  0
  -10.4295    5.2086  -11.6087 H   0  0  0  0  0  0  0  0  0  0  0  0
   -9.2989    1.3857  -14.1463 H   0  0  0  0  0  0  0  0  0  0  0  0
   -7.3955    7.7105   -8.0705 H   0  0  0  0  0  0  0  0  0  0  0  0
   -8.7766    8.8299   -8.1075 H   0  0  0  0  0  0  0  0  0  0  0  0
   -8.3384    7.9727   -6.6139 H   0  0  0  0  0  0  0  0  0  0  0  0
  -11.4079    6.1276   -7.8483 H   0  0  0  0  0  0  0  0  0  0  0  0
  -11.1795    7.8582   -8.0266 H   0  0  0  0  0  0  0  0  0  0  0  0
  -10.7685    7.0732   -6.4857 H   0  0  0  0  0  0  0  0  0  0  0  0
   -9.4394    4.5607   -7.8337 H   0  0  0  0  0  0  0  0  0  0  0  0
   -7.7803    5.1868   -7.9457 H   0  0  0  0  0  0  0  0  0  0  0  0
   -8.7375    5.4018   -6.4625 H   0  0  0  0  0  0  0  0  0  0  0  0
   -6.3648    6.4982  -15.4960 H   0  0  0  0  0  0  0  0  0  0  0  0
   -6.1551    4.7967  -15.9683 H   0  0  0  0  0  0  0  0  0  0  0  0
   -5.3238    6.0962  -16.8504 H   0  0  0  0  0  0  0  0  0  0  0  0
   -8.1435    5.0883  -19.1705 H   0  0  0  0  0  0  0  0  0  0  0  0
   -7.2747    3.9551  -18.1507 H   0  0  0  0  0  0  0  0  0  0  0  0
   -6.3738    5.1985  -19.0464 H   0  0  0  0  0  0  0  0  0  0  0  0
   -8.4569    7.4826  -18.4639 H   0  0  0  0  0  0  0  0  0  0  0  0
   -7.7529    8.0804  -16.9459 H   0  0  0  0  0  0  0  0  0  0  0  0
   -6.7206    7.7100  -18.3458 H   0  0  0  0  0  0  0  0  0  0  0  0
   -7.1174    1.5481  -14.6791 H   0  0  0  0  0  0  0  0  0  0  0  0
  1 17  1  0  0  0  0
  1 19  2  0  0  0  0
  1 22  1  0  0  0  0
  2 18  1  0  0  0  0
  2 20  2  0  0  0  0
  2 23  1  0  0  0  0
  3  7  1  0  0  0  0
  3  8  1  0  0  0  0
  4  7  1  0  0  0  0
  4 18  1  0  0  0  0
  5  8  1  0  0  0  0
  5 17  1  0  0  0  0
  6  8  1  0  0  0  0
  6 17  1  0  0  0  0
  7 21  1  0  0  0  0
  8 18  1  0  0  0  0
  9 15  1  0  0  0  0
 10 15  1  0  0  0  0
 11 15  1  0  0  0  0
 12 16  1  0  0  0  0
 13 16  1  0  0  0  0
 14 16  1  0  0  0  0
 15 22  1  0  0  0  0
 16 23  1  0  0  0  0
  3 24  1  0  0  0  0
  3 25  1  0  0  0  0
  4 26  1  0  0  0  0
  4 27  1  0  0  0  0
  5 28  1  0  0  0  0
  5 29  1  0  0  0  0
  6 30  1  0  0  0  0
  6 31  1  0  0  0  0
  7 32  1  0  0  0  0
  9 33  1  0  0  0  0
  9 34  1  0  0  0  0
  9 35  1  0  0  0  0
 10 36  1  0  0  0  0
 10 37  1  0  0  0  0
 10 38  1  0  0  0  0
 11 39  1  0  0  0  0
 11 40  1  0  0  0  0
 11 41  1  0  0  0  0
 12 42  1  0  0  0  0
 12 43  1  0  0  0  0
 12 44  1  0  0  0  0
 13 45  1  0  0  0  0
 13 46  1  0  0  0  0
 13 47  1  0  0  0  0
 14 48  1  0  0  0  0
 14 49  1  0  0  0  0
 14 50  1  0  0  0  0
 21 51  1  0  0  0  0
M  END
> <id>
EN300-27782600

> <smiles>
CC(C)(C)OC(=O)N1CC2(C1)CC(O)CN2C(=O)OC(C)(C)C

> <IUPAC Name>
2,5-di-tert-butyl 7-hydroxy-2,5-diazaspiro[3.4]octane-2,5-dicarboxylate

> <CAS>
2680560-88-5

> <URL>
https://www.enaminestore.com/catalog/EN300-27782600

> <ROCS_ShapeQuery>
_x0404_0B

> <ROCS_TanimotoCombo>
0.365 

> <ROCS_ShapeTanimoto>
0.265 

> <ROCS_ColorTanimoto>
0.100 

> <ROCS_RefTversky>
0.251 

> <ROCS_RefColorTversky>
0.105 

> <ROCS_RefTverskyCombo>
0.356 

> <ROCS_FitTversky>
1.268 

> <ROCS_FitColorTversky>
0.666 

> <ROCS_FitTverskyCombo>
1.934 

> <ROCS_ColorScore>
-7.589

> <ROCS_Overlap>
1673.846

> <ROCS_Rank>
462                 

$$$$
untitled-dbase-41882_26
  -OEChem-08212314543D

 38 39  0     1  0  0  0  0  0999 V2000
   -9.0097    5.9862   -9.9846 C   0  0  0  0  0  0  0  0  0  0  0  0
   -8.2749    5.4832  -14.1422 C   0  0  0  0  0  0  0  0  0  0  0  0
   -9.1084    7.1452  -10.9233 C   0  0  0  0  0  0  0  0  0  0  0  0
   -9.4856    6.6486  -12.3154 C   0  0  0  0  0  0  0  0  0  0  0  0
   -8.1341    4.5750  -11.8025 C   0  0  0  0  0  0  0  0  0  0  0  0
   -8.9419    4.6004  -10.5154 C   0  0  1  0  0  0  0  0  0  0  0  0
   -8.3508    3.9439   -9.2766 C   0  0  2  0  0  0  0  0  0  0  0  0
   -6.3972    4.7865  -16.1850 C   0  0  0  0  0  0  0  0  0  0  0  0
   -7.5008    2.5301  -16.1729 C   0  0  0  0  0  0  0  0  0  0  0  0
   -8.8274    4.5678  -16.8023 C   0  0  0  0  0  0  0  0  0  0  0  0
   -8.8543    2.5193   -9.0866 C   0  0  0  0  0  0  0  0  0  0  0  0
   -7.6970    4.0249  -15.9293 C   0  0  0  0  0  0  0  0  0  0  0  0
   -8.9693    6.0902   -8.6977 N   0  0  0  0  0  0  0  0  0  0  0  0
   -8.6197    5.5587  -12.7877 N   0  0  0  0  0  0  0  0  0  0  0  0
   -8.1674    6.4558  -14.8865 O   0  0  0  0  0  0  0  0  0  0  0  0
   -8.8381    4.7669   -8.1987 O   0  0  0  0  0  0  0  0  0  0  0  0
   -6.9270    3.9544   -9.3095 O   0  0  0  0  0  0  0  0  0  0  0  0
   -8.0612    4.1938  -14.5546 O   0  0  0  0  0  0  0  0  0  0  0  0
   -8.5227    1.7647  -10.1470 F   0  0  0  0  0  0  0  0  0  0  0  0
   -8.3098    1.9779   -7.9847 F   0  0  0  0  0  0  0  0  0  0  0  0
  -10.1909    2.5136   -8.9545 F   0  0  0  0  0  0  0  0  0  0  0  0
   -9.8781    7.8237  -10.5423 H   0  0  0  0  0  0  0  0  0  0  0  0
   -8.1577    7.6841  -10.9526 H   0  0  0  0  0  0  0  0  0  0  0  0
  -10.5419    6.3356  -12.3263 H   0  0  0  0  0  0  0  0  0  0  0  0
   -9.3934    7.4673  -13.0494 H   0  0  0  0  0  0  0  0  0  0  0  0
   -7.0723    4.8329  -11.6322 H   0  0  0  0  0  0  0  0  0  0  0  0
   -8.1299    3.5537  -12.2221 H   0  0  0  0  0  0  0  0  0  0  0  0
   -9.9777    4.2927  -10.6975 H   0  0  0  0  0  0  0  0  0  0  0  0
   -6.5339    5.8598  -16.0112 H   0  0  0  0  0  0  0  0  0  0  0  0
   -5.5873    4.4302  -15.5401 H   0  0  0  0  0  0  0  0  0  0  0  0
   -6.0806    4.6802  -17.2289 H   0  0  0  0  0  0  0  0  0  0  0  0
   -8.4309    1.9797  -15.9906 H   0  0  0  0  0  0  0  0  0  0  0  0
   -6.7569    2.1164  -15.4824 H   0  0  0  0  0  0  0  0  0  0  0  0
   -7.1731    2.3274  -17.1977 H   0  0  0  0  0  0  0  0  0  0  0  0
   -9.7598    4.0216  -16.6191 H   0  0  0  0  0  0  0  0  0  0  0  0
   -9.0071    5.6312  -16.6142 H   0  0  0  0  0  0  0  0  0  0  0  0
   -8.5960    4.4365  -17.8656 H   0  0  0  0  0  0  0  0  0  0  0  0
   -6.6278    3.5227   -8.4941 H   0  0  0  0  0  0  0  0  0  0  0  0
  1  3  1  0  0  0  0
  1  6  1  0  0  0  0
  1 13  2  0  0  0  0
  2 14  1  0  0  0  0
  2 15  2  0  0  0  0
  2 18  1  0  0  0  0
  3  4  1  0  0  0  0
  4 14  1  0  0  0  0
  5  6  1  0  0  0  0
  5 14  1  0  0  0  0
  6  7  1  0  0  0  0
  7 11  1  0  0  0  0
  7 16  1  0  0  0  0
  7 17  1  0  0  0  0
  8 12  1  0  0  0  0
  9 12  1  0  0  0  0
 10 12  1  0  0  0  0
 11 19  1  0  0  0  0
 11 20  1  0  0  0  0
 11 21  1  0  0  0  0
 12 18  1  0  0  0  0
 13 16  1  0  0  0  0
  3 22  1  0  0  0  0
  3 23  1  0  0  0  0
  4 24  1  0  0  0  0
  4 25  1  0  0  0  0
  5 26  1  0  0  0  0
  5 27  1  0  0  0  0
  6 28  1  0  0  0  0
  8 29  1  0  0  0  0
  8 30  1  0  0  0  0
  8 31  1  0  0  0  0
  9 32  1  0  0  0  0
  9 33  1  0  0  0  0
  9 34  1  0  0  0  0
 10 35  1  0  0  0  0
 10 36  1  0  0  0  0
 10 37  1  0  0  0  0
 17 38  1  0  0  0  0
M  END
> <id>
EN300-37468667

> <smiles>
CC(C)(C)OC(=O)N1CCC2=NOC(O)(C2C1)C(F)(F)F

> <IUPAC Name>
tert-butyl 3-hydroxy-3-(trifluoromethyl)-3H,3aH,4H,5H,6H,7H-[1,2]oxazolo[4,3-c]pyridine-5-carboxylate

> <CAS>
2241014-10-6

> <Purity>
95

> <URL>
https://www.enaminestore.com/catalog/EN300-37468667

> <ROCS_ShapeQuery>
_x0404_0B

> <ROCS_TanimotoCombo>
0.365 

> <ROCS_ShapeTanimoto>
0.298 

> <ROCS_ColorTanimoto>
0.067 

> <ROCS_RefTversky>
0.273 

> <ROCS_RefColorTversky>
0.072 

> <ROCS_RefTverskyCombo>
0.345 

> <ROCS_FitTversky>
1.443 

> <ROCS_FitColorTversky>
0.496 

> <ROCS_FitTverskyCombo>
1.939 

> <ROCS_ColorScore>
-5.184

> <ROCS_Overlap>
1819.797

> <ROCS_Rank>
463                 

$$$$
untitled-dbase-30438_36
  -OEChem-08212314543D

 33 34  0     1  0  0  0  0  0999 V2000
   -7.8312    6.1742  -16.4479 C   0  0  0  0  0  0  0  0  0  0  0  0
   -7.7628    5.0569  -17.1922 C   0  0  0  0  0  0  0  0  0  0  0  0
   -8.0425    3.7422  -16.5368 C   0  0  0  0  0  0  0  0  0  0  0  0
   -8.3960    5.1170  -14.5447 C   0  0  0  0  0  0  0  0  0  0  0  0
   -8.9567    5.8328  -12.1566 C   0  0  0  0  0  0  0  0  0  0  0  0
   -9.0742    3.4904  -12.9972 C   0  0  0  0  0  0  0  0  0  0  0  0
   -8.6045    2.7967  -14.2691 C   0  0  1  0  0  0  0  0  0  0  0  0
   -8.3942    6.8607   -9.5496 C   0  0  0  0  0  0  0  0  0  0  0  0
   -9.2616    4.6624   -8.6985 C   0  0  0  0  0  0  0  0  0  0  0  0
   -7.2241    4.7193  -10.1659 C   0  0  0  0  0  0  0  0  0  0  0  0
   -8.5698    5.3746   -9.8588 C   0  0  0  0  0  0  0  0  0  0  0  0
   -8.1526    6.2517  -15.1128 N   0  0  0  0  0  0  0  0  0  0  0  0
   -8.3351    3.8777  -15.1933 N   0  0  0  0  0  0  0  0  0  0  0  0
   -8.7789    4.9061  -13.1949 N   0  0  0  0  0  0  0  0  0  0  0  0
   -8.0005    2.6802  -17.1489 O   0  0  0  0  0  0  0  0  0  0  0  0
   -8.7253    7.0354  -12.2636 O   0  0  0  0  0  0  0  0  0  0  0  0
   -7.3966    2.0970  -14.0029 O   0  0  0  0  0  0  0  0  0  0  0  0
   -9.4130    5.2451  -11.0088 O   0  0  0  0  0  0  0  0  0  0  0  0
   -7.3263    5.0753  -19.0021 Br  0  0  0  0  0  0  0  0  0  0  0  0
   -7.6275    7.1388  -16.9046 H   0  0  0  0  0  0  0  0  0  0  0  0
  -10.1597    3.4072  -12.8740 H   0  0  0  0  0  0  0  0  0  0  0  0
   -8.5803    3.1373  -12.0861 H   0  0  0  0  0  0  0  0  0  0  0  0
   -9.3402    2.1023  -14.6861 H   0  0  0  0  0  0  0  0  0  0  0  0
   -7.8980    7.3755  -10.3801 H   0  0  0  0  0  0  0  0  0  0  0  0
   -9.3556    7.3500   -9.3618 H   0  0  0  0  0  0  0  0  0  0  0  0
   -7.7553    7.0044   -8.6708 H   0  0  0  0  0  0  0  0  0  0  0  0
   -9.3897    3.5958   -8.9160 H   0  0  0  0  0  0  0  0  0  0  0  0
  -10.2671    5.0671   -8.5359 H   0  0  0  0  0  0  0  0  0  0  0  0
   -8.6936    4.7606   -7.7678 H   0  0  0  0  0  0  0  0  0  0  0  0
   -7.3497    3.6534  -10.3877 H   0  0  0  0  0  0  0  0  0  0  0  0
   -6.7298    5.1940  -11.0197 H   0  0  0  0  0  0  0  0  0  0  0  0
   -6.5553    4.7781   -9.2995 H   0  0  0  0  0  0  0  0  0  0  0  0
   -7.1308    1.6704  -14.8337 H   0  0  0  0  0  0  0  0  0  0  0  0
  1  2  2  0  0  0  0
  1 12  1  0  0  0  0
  2  3  1  0  0  0  0
  2 19  1  0  0  0  0
  3 13  1  0  0  0  0
  3 15  2  0  0  0  0
  4 12  2  0  0  0  0
  4 13  1  0  0  0  0
  4 14  1  0  0  0  0
  5 14  1  0  0  0  0
  5 16  2  0  0  0  0
  5 18  1  0  0  0  0
  6  7  1  0  0  0  0
  6 14  1  0  0  0  0
  7 13  1  0  0  0  0
  7 17  1  0  0  0  0
  8 11  1  0  0  0  0
  9 11  1  0  0  0  0
 10 11  1  0  0  0  0
 11 18  1  0  0  0  0
  1 20  1  0  0  0  0
  6 21  1  0  0  0  0
  6 22  1  0  0  0  0
  7 23  1  0  0  0  0
  8 24  1  0  0  0  0
  8 25  1  0  0  0  0
  8 26  1  0  0  0  0
  9 27  1  0  0  0  0
  9 28  1  0  0  0  0
  9 29  1  0  0  0  0
 10 30  1  0  0  0  0
 10 31  1  0  0  0  0
 10 32  1  0  0  0  0
 17 33  1  0  0  0  0
M  END
> <id>
EN300-26665958

> <smiles>
CC(C)(C)OC(=O)N1CC(O)N2C1=NC=C(Br)C2=O

> <IUPAC Name>
tert-butyl 6-bromo-3-hydroxy-5-oxo-1H,2H,3H,5H-imidazo[1,2-a]pyrimidine-1-carboxylate

> <CAS>
2413868-02-5

> <URL>
https://www.enaminestore.com/catalog/EN300-26665958

> <ROCS_ShapeQuery>
_x0404_0B

> <ROCS_TanimotoCombo>
0.364 

> <ROCS_ShapeTanimoto>
0.272 

> <ROCS_ColorTanimoto>
0.093 

> <ROCS_RefTversky>
0.251 

> <ROCS_RefColorTversky>
0.099 

> <ROCS_RefTverskyCombo>
0.350 

> <ROCS_FitTversky>
1.437 

> <ROCS_FitColorTversky>
0.582 

> <ROCS_FitTverskyCombo>
2.019 

> <ROCS_ColorScore>
-7.185

> <ROCS_Overlap>
1673.374

> <ROCS_Rank>
464                 

$$$$
untitled-dbase-45110_9
  -OEChem-08212314543D

 34 35  0     0  0  0  0  0  0999 V2000
   -7.7025    2.0289  -10.2433 C   0  0  0  0  0  0  0  0  0  0  0  0
   -8.1439    3.3085   -9.8937 C   0  0  0  0  0  0  0  0  0  0  0  0
   -7.4797    1.6934  -11.5766 C   0  0  0  0  0  0  0  0  0  0  0  0
   -8.3595    4.2538  -10.9118 C   0  0  0  0  0  0  0  0  0  0  0  0
   -8.1321    3.9053  -12.2422 C   0  0  0  0  0  0  0  0  0  0  0  0
   -7.6895    2.6230  -12.6011 C   0  0  0  0  0  0  0  0  0  0  0  0
   -8.7857    5.5923  -10.9634 C   0  0  0  0  0  0  0  0  0  0  0  0
   -8.3674    5.2128  -14.3699 C   0  0  0  0  0  0  0  0  0  0  0  0
   -7.1731    4.5558  -16.8569 C   0  0  0  0  0  0  0  0  0  0  0  0
   -8.8434    2.6823  -16.9527 C   0  0  0  0  0  0  0  0  0  0  0  0
   -9.6374    5.0647  -16.9083 C   0  0  0  0  0  0  0  0  0  0  0  0
   -9.1637    6.4621   -9.8354 C   0  0  0  0  0  0  0  0  0  0  0  0
   -8.5636    4.0892  -16.4286 C   0  0  0  0  0  0  0  0  0  0  0  0
   -8.8334    6.0739  -12.2032 N   0  0  0  0  0  0  0  0  0  0  0  0
   -8.4324    5.0395  -12.9850 N   0  0  0  0  0  0  0  0  0  0  0  0
   -8.1259    6.3035  -14.8603 O   0  0  0  0  0  0  0  0  0  0  0  0
   -7.4507    2.2230  -13.8880 O   0  0  0  0  0  0  0  0  0  0  0  0
   -8.6049    4.0329  -14.9997 O   0  0  0  0  0  0  0  0  0  0  0  0
   -9.0771    5.8605   -8.6040 F   0  0  0  0  0  0  0  0  0  0  0  0
   -8.3972    7.5949   -9.7147 F   0  0  0  0  0  0  0  0  0  0  0  0
  -10.4548    6.9194   -9.9115 F   0  0  0  0  0  0  0  0  0  0  0  0
   -7.5313    1.2892   -9.4658 H   0  0  0  0  0  0  0  0  0  0  0  0
   -8.3143    3.5595   -8.8509 H   0  0  0  0  0  0  0  0  0  0  0  0
   -7.1379    0.6897  -11.8191 H   0  0  0  0  0  0  0  0  0  0  0  0
   -6.9684    5.5653  -16.4827 H   0  0  0  0  0  0  0  0  0  0  0  0
   -6.3910    3.8835  -16.4894 H   0  0  0  0  0  0  0  0  0  0  0  0
   -7.0979    4.6099  -17.9490 H   0  0  0  0  0  0  0  0  0  0  0  0
   -9.8401    2.3434  -16.6478 H   0  0  0  0  0  0  0  0  0  0  0  0
   -8.1311    1.9614  -16.5352 H   0  0  0  0  0  0  0  0  0  0  0  0
   -8.7813    2.6382  -18.0449 H   0  0  0  0  0  0  0  0  0  0  0  0
  -10.6350    4.7301  -16.6012 H   0  0  0  0  0  0  0  0  0  0  0  0
   -9.4735    6.0719  -16.5118 H   0  0  0  0  0  0  0  0  0  0  0  0
   -9.6531    5.1196  -18.0028 H   0  0  0  0  0  0  0  0  0  0  0  0
   -7.1546    1.3015  -13.8963 H   0  0  0  0  0  0  0  0  0  0  0  0
  1  2  1  0  0  0  0
  1  3  2  0  0  0  0
  2  4  2  0  0  0  0
  3  6  1  0  0  0  0
  4  5  1  0  0  0  0
  4  7  1  0  0  0  0
  5  6  2  0  0  0  0
  5 15  1  0  0  0  0
  6 17  1  0  0  0  0
  7 12  1  0  0  0  0
  7 14  2  0  0  0  0
  8 15  1  0  0  0  0
  8 16  2  0  0  0  0
  8 18  1  0  0  0  0
  9 13  1  0  0  0  0
 10 13  1  0  0  0  0
 11 13  1  0  0  0  0
 12 19  1  0  0  0  0
 12 20  1  0  0  0  0
 12 21  1  0  0  0  0
 13 18  1  0  0  0  0
 14 15  1  0  0  0  0
  1 22  1  0  0  0  0
  2 23  1  0  0  0  0
  3 24  1  0  0  0  0
  9 25  1  0  0  0  0
  9 26  1  0  0  0  0
  9 27  1  0  0  0  0
 10 28  1  0  0  0  0
 10 29  1  0  0  0  0
 10 30  1  0  0  0  0
 11 31  1  0  0  0  0
 11 32  1  0  0  0  0
 11 33  1  0  0  0  0
 17 34  1  0  0  0  0
M  END
> <id>
EN300-28262917

> <smiles>
CC(C)(C)OC(=O)N1N=C(C=2C=CC=C(O)C12)C(F)(F)F

> <IUPAC Name>
tert-butyl 7-hydroxy-3-(trifluoromethyl)-1H-indazole-1-carboxylate

> <CAS>
2680737-33-9

> <URL>
https://www.enaminestore.com/catalog/EN300-28262917

> <ROCS_ShapeQuery>
_x0404_0B

> <ROCS_TanimotoCombo>
0.364 

> <ROCS_ShapeTanimoto>
0.259 

> <ROCS_ColorTanimoto>
0.106 

> <ROCS_RefTversky>
0.245 

> <ROCS_RefColorTversky>
0.110 

> <ROCS_RefTverskyCombo>
0.354 

> <ROCS_FitTversky>
1.279 

> <ROCS_FitColorTversky>
0.757 

> <ROCS_FitTverskyCombo>
2.035 

> <ROCS_ColorScore>
-7.910

> <ROCS_Overlap>
1633.853

> <ROCS_Rank>
465                 

$$$$
untitled-dbase-46227_49
  -OEChem-08212314543D

 37 38  0     0  0  0  0  0  0999 V2000
   -9.1963    3.2422   -9.3529 C   0  0  0  0  0  0  0  0  0  0  0  0
   -8.8561    6.5821  -10.8807 C   0  0  0  0  0  0  0  0  0  0  0  0
   -9.0534    5.5704   -9.9510 C   0  0  0  0  0  0  0  0  0  0  0  0
   -8.6126    6.2695  -12.2218 C   0  0  0  0  0  0  0  0  0  0  0  0
   -8.9922    4.2428  -10.3599 C   0  0  0  0  0  0  0  0  0  0  0  0
   -8.7564    3.9143  -11.7072 C   0  0  0  0  0  0  0  0  0  0  0  0
   -8.5805    4.9372  -12.6678 C   0  0  0  0  0  0  0  0  0  0  0  0
   -8.4461    5.4474  -15.1533 C   0  0  0  0  0  0  0  0  0  0  0  0
   -8.6529    2.4515  -12.0597 C   0  0  0  0  0  0  0  0  0  0  0  0
   -8.7541    2.2109  -13.5556 C   0  0  0  0  0  0  0  0  0  0  0  0
   -7.8847    3.2105  -14.2966 C   0  0  0  0  0  0  0  0  0  0  0  0
   -6.5965    5.4250  -17.3419 C   0  0  0  0  0  0  0  0  0  0  0  0
   -8.5011    4.5065  -18.6976 C   0  0  0  0  0  0  0  0  0  0  0  0
   -8.6809    6.7949  -17.6783 C   0  0  0  0  0  0  0  0  0  0  0  0
   -8.1147    5.3857  -17.5102 C   0  0  0  0  0  0  0  0  0  0  0  0
   -9.3614    2.4321   -8.5384 N   0  0  0  0  0  0  0  0  0  0  0  0
   -8.3257    4.5879  -14.0430 N   0  0  0  0  0  0  0  0  0  0  0  0
   -8.2772    6.6657  -15.0925 O   0  0  0  0  0  0  0  0  0  0  0  0
   -8.6886    4.8007  -16.3352 O   0  0  0  0  0  0  0  0  0  0  0  0
   -8.9034    7.6212  -10.5683 H   0  0  0  0  0  0  0  0  0  0  0  0
   -9.2654    5.8343   -8.9173 H   0  0  0  0  0  0  0  0  0  0  0  0
   -8.4862    7.1137  -12.8860 H   0  0  0  0  0  0  0  0  0  0  0  0
   -7.6963    2.0242  -11.7253 H   0  0  0  0  0  0  0  0  0  0  0  0
   -9.4577    1.9081  -11.5408 H   0  0  0  0  0  0  0  0  0  0  0  0
   -8.4354    1.1899  -13.8019 H   0  0  0  0  0  0  0  0  0  0  0  0
   -9.7979    2.3064  -13.8757 H   0  0  0  0  0  0  0  0  0  0  0  0
   -6.8559    3.0669  -13.9694 H   0  0  0  0  0  0  0  0  0  0  0  0
   -7.9225    3.0453  -15.3746 H   0  0  0  0  0  0  0  0  0  0  0  0
   -6.3150    6.0551  -16.4906 H   0  0  0  0  0  0  0  0  0  0  0  0
   -6.1819    4.4238  -17.1855 H   0  0  0  0  0  0  0  0  0  0  0  0
   -6.1165    5.8645  -18.2238 H   0  0  0  0  0  0  0  0  0  0  0  0
   -9.5896    4.4754  -18.8221 H   0  0  0  0  0  0  0  0  0  0  0  0
   -8.1790    3.4712  -18.5378 H   0  0  0  0  0  0  0  0  0  0  0  0
   -8.0557    4.8682  -19.6300 H   0  0  0  0  0  0  0  0  0  0  0  0
   -9.7699    6.7670  -17.7991 H   0  0  0  0  0  0  0  0  0  0  0  0
   -8.4448    7.4297  -16.8181 H   0  0  0  0  0  0  0  0  0  0  0  0
   -8.2817    7.2701  -18.5817 H   0  0  0  0  0  0  0  0  0  0  0  0
  1  5  1  0  0  0  0
  1 16  3  0  0  0  0
  2  3  2  0  0  0  0
  2  4  1  0  0  0  0
  3  5  1  0  0  0  0
  4  7  2  0  0  0  0
  5  6  2  0  0  0  0
  6  7  1  0  0  0  0
  6  9  1  0  0  0  0
  7 17  1  0  0  0  0
  8 17  1  0  0  0  0
  8 18  2  0  0  0  0
  8 19  1  0  0  0  0
  9 10  1  0  0  0  0
 10 11  1  0  0  0  0
 11 17  1  0  0  0  0
 12 15  1  0  0  0  0
 13 15  1  0  0  0  0
 14 15  1  0  0  0  0
 15 19  1  0  0  0  0
  2 20  1  0  0  0  0
  3 21  1  0  0  0  0
  4 22  1  0  0  0  0
  9 23  1  0  0  0  0
  9 24  1  0  0  0  0
 10 25  1  0  0  0  0
 10 26  1  0  0  0  0
 11 27  1  0  0  0  0
 11 28  1  0  0  0  0
 12 29  1  0  0  0  0
 12 30  1  0  0  0  0
 12 31  1  0  0  0  0
 13 32  1  0  0  0  0
 13 33  1  0  0  0  0
 13 34  1  0  0  0  0
 14 35  1  0  0  0  0
 14 36  1  0  0  0  0
 14 37  1  0  0  0  0
M  END
> <id>
EN300-28280489

> <smiles>
CC(C)(C)OC(=O)N1CCCC=2C(C#N)=CC=CC12

> <IUPAC Name>
tert-butyl 5-cyano-1,2,3,4-tetrahydroquinoline-1-carboxylate

> <CAS>
2680708-82-9

> <URL>
https://www.enaminestore.com/catalog/EN300-28280489

> <ROCS_ShapeQuery>
_x0404_0B

> <ROCS_TanimotoCombo>
0.364 

> <ROCS_ShapeTanimoto>
0.311 

> <ROCS_ColorTanimoto>
0.054 

> <ROCS_RefTversky>
0.278 

> <ROCS_RefColorTversky>
0.057 

> <ROCS_RefTverskyCombo>
0.335 

> <ROCS_FitTversky>
1.607 

> <ROCS_FitColorTversky>
0.481 

> <ROCS_FitTverskyCombo>
2.088 

> <ROCS_ColorScore>
-4.106

> <ROCS_Overlap>
1854.462

> <ROCS_Rank>
466                 

$$$$
untitled-dbase-53459_90
  -OEChem-08212314543D

 42 43  0     0  0  0  0  0  0999 V2000
   -7.3598    5.2243  -18.0677 C   0  0  0  0  0  0  0  0  0  0  0  0
   -9.0486    5.2416  -11.5256 C   0  0  0  0  0  0  0  0  0  0  0  0
   -8.6769    4.7016  -18.5927 C   0  0  0  0  0  0  0  0  0  0  0  0
   -8.5523    6.6588  -14.8510 C   0  0  0  0  0  0  0  0  0  0  0  0
   -7.9772    4.2262  -14.8924 C   0  0  0  0  0  0  0  0  0  0  0  0
   -9.6138    4.2075  -17.5056 C   0  0  0  0  0  0  0  0  0  0  0  0
   -9.4892    6.4097  -13.6670 C   0  0  0  0  0  0  0  0  0  0  0  0
   -8.9251    3.9875  -13.7155 C   0  0  0  0  0  0  0  0  0  0  0  0
   -8.4118    5.4227  -15.7714 C   0  0  0  0  0  0  0  0  0  0  0  0
   -9.1202    4.8216   -8.6952 C   0  0  0  0  0  0  0  0  0  0  0  0
   -9.1512    2.3711   -9.2462 C   0  0  0  0  0  0  0  0  0  0  0  0
   -7.1808    3.7783   -9.9137 C   0  0  0  0  0  0  0  0  0  0  0  0
   -8.6939    3.7549   -9.7028 C   0  0  0  0  0  0  0  0  0  0  0  0
   -7.3756    5.6985  -16.7748 N   0  0  0  0  0  0  0  0  0  0  0  0
   -9.7102    5.1871  -16.4281 N   0  0  0  0  0  0  0  0  0  0  0  0
   -9.1090    5.2087  -12.9235 N   0  0  0  0  0  0  0  0  0  0  0  0
   -6.3711    5.3037  -18.7970 O   0  0  0  0  0  0  0  0  0  0  0  0
   -8.7727    6.2431  -10.8673 O   0  0  0  0  0  0  0  0  0  0  0  0
   -9.3332    4.0292  -10.9548 O   0  0  0  0  0  0  0  0  0  0  0  0
   -9.1654    5.4984  -19.1643 H   0  0  0  0  0  0  0  0  0  0  0  0
   -8.4440    3.8842  -19.2863 H   0  0  0  0  0  0  0  0  0  0  0  0
   -8.8977    7.5404  -15.4042 H   0  0  0  0  0  0  0  0  0  0  0  0
   -7.5628    6.9281  -14.4528 H   0  0  0  0  0  0  0  0  0  0  0  0
   -6.9704    4.4052  -14.4928 H   0  0  0  0  0  0  0  0  0  0  0  0
   -7.9169    3.3110  -15.4942 H   0  0  0  0  0  0  0  0  0  0  0  0
  -10.5995    3.9706  -17.9193 H   0  0  0  0  0  0  0  0  0  0  0  0
   -9.2191    3.2701  -17.0975 H   0  0  0  0  0  0  0  0  0  0  0  0
   -9.4750    7.2842  -13.0071 H   0  0  0  0  0  0  0  0  0  0  0  0
  -10.5268    6.2810  -13.9945 H   0  0  0  0  0  0  0  0  0  0  0  0
   -9.9159    3.6731  -14.0601 H   0  0  0  0  0  0  0  0  0  0  0  0
   -8.5322    3.1741  -13.0999 H   0  0  0  0  0  0  0  0  0  0  0  0
   -8.7938    5.8163   -9.0192 H   0  0  0  0  0  0  0  0  0  0  0  0
  -10.2067    4.8386   -8.5611 H   0  0  0  0  0  0  0  0  0  0  0  0
   -8.6537    4.6460   -7.7190 H   0  0  0  0  0  0  0  0  0  0  0  0
   -8.8475    1.6026   -9.9662 H   0  0  0  0  0  0  0  0  0  0  0  0
  -10.2444    2.3218   -9.1849 H   0  0  0  0  0  0  0  0  0  0  0  0
   -8.7369    2.1115   -8.2667 H   0  0  0  0  0  0  0  0  0  0  0  0
   -6.8748    3.0132  -10.6364 H   0  0  0  0  0  0  0  0  0  0  0  0
   -6.8392    4.7530  -10.2768 H   0  0  0  0  0  0  0  0  0  0  0  0
   -6.6536    3.5502   -8.9802 H   0  0  0  0  0  0  0  0  0  0  0  0
   -6.6019    6.2918  -16.4900 H   0  0  0  0  0  0  0  0  0  0  0  0
  -10.0948    6.0558  -16.7931 H   0  0  0  0  0  0  0  0  0  0  0  0
  1  3  1  0  0  0  0
  1 14  1  0  0  0  0
  1 17  2  0  0  0  0
  2 16  1  0  0  0  0
  2 18  2  0  0  0  0
  2 19  1  0  0  0  0
  3  6  1  0  0  0  0
  4  7  1  0  0  0  0
  4  9  1  0  0  0  0
  5  8  1  0  0  0  0
  5  9  1  0  0  0  0
  6 15  1  0  0  0  0
  7 16  1  0  0  0  0
  8 16  1  0  0  0  0
  9 14  1  0  0  0  0
  9 15  1  0  0  0  0
 10 13  1  0  0  0  0
 11 13  1  0  0  0  0
 12 13  1  0  0  0  0
 13 19  1  0  0  0  0
  3 20  1  0  0  0  0
  3 21  1  0  0  0  0
  4 22  1  0  0  0  0
  4 23  1  0  0  0  0
  5 24  1  0  0  0  0
  5 25  1  0  0  0  0
  6 26  1  0  0  0  0
  6 27  1  0  0  0  0
  7 28  1  0  0  0  0
  7 29  1  0  0  0  0
  8 30  1  0  0  0  0
  8 31  1  0  0  0  0
 10 32  1  0  0  0  0
 10 33  1  0  0  0  0
 10 34  1  0  0  0  0
 11 35  1  0  0  0  0
 11 36  1  0  0  0  0
 11 37  1  0  0  0  0
 12 38  1  0  0  0  0
 12 39  1  0  0  0  0
 12 40  1  0  0  0  0
 14 41  1  0  0  0  0
 15 42  1  0  0  0  0
M  END
> <id>
EN300-44827647

> <smiles>
CC(C)(C)OC(=O)N1CCC2(CC1)NCCC(=O)N2

> <IUPAC Name>
tert-butyl 2-oxo-1,5,9-triazaspiro[5.5]undecane-9-carboxylate

> <Purity>
95

> <URL>
https://www.enaminestore.com/catalog/EN300-44827647

> <ROCS_ShapeQuery>
_x0404_0B

> <ROCS_TanimotoCombo>
0.364 

> <ROCS_ShapeTanimoto>
0.336 

> <ROCS_ColorTanimoto>
0.028 

> <ROCS_RefTversky>
0.295 

> <ROCS_RefColorTversky>
0.032 

> <ROCS_RefTverskyCombo>
0.327 

> <ROCS_FitTversky>
1.718 

> <ROCS_FitColorTversky>
0.202 

> <ROCS_FitTverskyCombo>
1.921 

> <ROCS_ColorScore>
-2.305

> <ROCS_Overlap>
1964.692

> <ROCS_Rank>
467                 

$$$$
untitled-dbase-22556_0
  -OEChem-08212314543D

 45 48  0     1  0  0  0  0  0999 V2000
   -9.2855    4.0865  -16.2396 C   0  0  0  0  0  0  0  0  0  0  0  0
   -8.9260    4.3317  -17.5667 C   0  0  0  0  0  0  0  0  0  0  0  0
   -7.5244    6.1470  -16.8465 C   0  0  0  0  0  0  0  0  0  0  0  0
   -8.7578    4.8540  -15.1861 C   0  0  0  0  0  0  0  0  0  0  0  0
   -7.8843    5.9163  -15.5070 C   0  0  0  0  0  0  0  0  0  0  0  0
   -8.0419    5.3589  -17.8702 C   0  0  0  0  0  0  0  0  0  0  0  0
   -7.2646    6.7993  -14.4514 C   0  0  0  0  0  0  0  0  0  0  0  0
   -7.9204    6.6816  -13.0788 C   0  0  0  0  0  0  0  0  0  0  0  0
   -9.5240    3.1386  -13.3922 C   0  0  0  0  0  0  0  0  0  0  0  0
   -9.9029    2.9259  -11.9141 C   0  0  0  0  0  0  0  0  0  0  0  0
   -7.8742    5.5643  -10.1391 C   0  0  0  0  0  0  0  0  0  0  0  0
   -9.1868    4.6132  -13.7411 C   0  0  1  0  0  0  0  0  0  0  0  0
   -8.1519    5.2081  -12.7384 C   0  0  2  0  0  0  0  0  0  0  0  0
   -8.6765    5.0090  -11.3163 C   0  0  1  0  0  0  0  0  0  0  0  0
   -8.3836    4.7525   -8.9304 C   0  0  2  0  0  0  0  0  0  0  0  0
   -9.3141    3.6631   -9.5029 C   0  0  1  0  0  0  0  0  0  0  0  0
   -8.8534    3.5174  -10.9651 C   0  0  1  0  0  0  0  0  0  0  0  0
   -7.5569    2.6717  -11.0446 C   0  0  0  0  0  0  0  0  0  0  0  0
   -7.6875    5.5975  -19.1616 O   0  0  0  0  0  0  0  0  0  0  0  0
   -9.1291    5.5803   -8.0472 O   0  0  0  0  0  0  0  0  0  0  0  0
   -9.2059    2.4542   -8.7724 O   0  0  0  0  0  0  0  0  0  0  0  0
   -9.9936    3.2850  -16.0516 H   0  0  0  0  0  0  0  0  0  0  0  0
   -9.3461    3.7165  -18.3578 H   0  0  0  0  0  0  0  0  0  0  0  0
   -6.8337    6.9519  -17.0902 H   0  0  0  0  0  0  0  0  0  0  0  0
   -6.2050    6.5262  -14.3650 H   0  0  0  0  0  0  0  0  0  0  0  0
   -7.3087    7.8474  -14.7714 H   0  0  0  0  0  0  0  0  0  0  0  0
   -7.2747    7.1645  -12.3370 H   0  0  0  0  0  0  0  0  0  0  0  0
   -8.8748    7.2239  -13.0726 H   0  0  0  0  0  0  0  0  0  0  0  0
   -8.6790    2.4922  -13.6584 H   0  0  0  0  0  0  0  0  0  0  0  0
  -10.3729    2.7921  -13.9928 H   0  0  0  0  0  0  0  0  0  0  0  0
  -10.8772    3.3997  -11.7359 H   0  0  0  0  0  0  0  0  0  0  0  0
  -10.0421    1.8555  -11.7205 H   0  0  0  0  0  0  0  0  0  0  0  0
   -6.8033    5.3858  -10.2887 H   0  0  0  0  0  0  0  0  0  0  0  0
   -8.0252    6.6416  -10.0162 H   0  0  0  0  0  0  0  0  0  0  0  0
  -10.1242    5.1791  -13.6254 H   0  0  0  0  0  0  0  0  0  0  0  0
   -7.1910    4.6894  -12.8501 H   0  0  0  0  0  0  0  0  0  0  0  0
   -9.6631    5.5000  -11.2683 H   0  0  0  0  0  0  0  0  0  0  0  0
   -7.5483    4.3293   -8.3618 H   0  0  0  0  0  0  0  0  0  0  0  0
  -10.3619    3.9867   -9.4482 H   0  0  0  0  0  0  0  0  0  0  0  0
   -6.8245    3.0969  -10.3725 H   0  0  0  0  0  0  0  0  0  0  0  0
   -7.1900    2.6953  -12.0614 H   0  0  0  0  0  0  0  0  0  0  0  0
   -7.7875    1.6564  -10.7532 H   0  0  0  0  0  0  0  0  0  0  0  0
   -8.1322    4.9706  -19.7546 H   0  0  0  0  0  0  0  0  0  0  0  0
   -9.4197    5.0155   -7.3130 H   0  0  0  0  0  0  0  0  0  0  0  0
   -9.8141    1.8172   -9.1841 H   0  0  0  0  0  0  0  0  0  0  0  0
  1  2  1  0  0  0  0
  1  4  2  0  0  0  0
  2  6  2  0  0  0  0
  3  5  2  0  0  0  0
  3  6  1  0  0  0  0
  4  5  1  0  0  0  0
  4 12  1  0  0  0  0
  5  7  1  0  0  0  0
  6 19  1  0  0  0  0
  7  8  1  0  0  0  0
  8 13  1  6  0  0  0
  9 10  1  0  0  0  0
  9 12  1  1  0  0  0
 10 17  1  0  0  0  0
 11 14  1  1  0  0  0
 11 15  1  0  0  0  0
 12 13  1  0  0  0  0
 13 14  1  0  0  0  0
 14 17  1  0  0  0  0
 15 16  1  0  0  0  0
 15 20  1  6  0  0  0
 16 17  1  0  0  0  0
 16 21  1  1  0  0  0
 17 18  1  1  0  0  0
  1 22  1  0  0  0  0
  2 23  1  0  0  0  0
  3 24  1  0  0  0  0
  7 25  1  0  0  0  0
  7 26  1  0  0  0  0
  8 27  1  0  0  0  0
  8 28  1  0  0  0  0
  9 29  1  0  0  0  0
  9 30  1  0  0  0  0
 10 31  1  0  0  0  0
 10 32  1  0  0  0  0
 11 33  1  0  0  0  0
 11 34  1  0  0  0  0
 12 35  1  0  0  0  0
 13 36  1  0  0  0  0
 14 37  1  0  0  0  0
 15 38  1  0  0  0  0
 16 39  1  0  0  0  0
 18 40  1  0  0  0  0
 18 41  1  0  0  0  0
 18 42  1  0  0  0  0
 19 43  1  0  0  0  0
 20 44  1  0  0  0  0
 21 45  1  0  0  0  0
M  END
> <id>
EN300-7390799

> <smiles>
C[C@@]12CC[C@H]3[C@@H](CCC=4C=C(O)C=CC34)[C@@H]2C[C@@H](O)[C@@H]1O

> <MDLNUMBER>
MFCD00003691

> <IUPAC Name>
(1R,2R,3aS,3bR,9bS,11aS)-11a-methyl-1H,2H,3H,3aH,3bH,4H,5H,9bH,10H,11H,11aH-cyclopenta[a]phenanthrene-1,2,7-triol

> <CAS>
50-27-1

> <URL>
https://www.enaminestore.com/catalog/EN300-7390799

> <MP>
280-282

> <ROCS_ShapeQuery>
_x0404_0B

> <ROCS_TanimotoCombo>
0.364 

> <ROCS_ShapeTanimoto>
0.313 

> <ROCS_ColorTanimoto>
0.051 

> <ROCS_RefTversky>
0.283 

> <ROCS_RefColorTversky>
0.058 

> <ROCS_RefTverskyCombo>
0.341 

> <ROCS_FitTversky>
1.517 

> <ROCS_FitColorTversky>
0.314 

> <ROCS_FitTverskyCombo>
1.831 

> <ROCS_ColorScore>
-4.177

> <ROCS_Overlap>
1887.834

> <ROCS_Rank>
468                 

$$$$
untitled-dbase-51456_49
  -OEChem-08212314543D

 35 36  0     0  0  0  0  0  0999 V2000
   -8.4822    5.6734  -12.8578 C   0  0  0  0  0  0  0  0  0  0  0  0
   -8.1848    4.3164  -12.7880 C   0  0  0  0  0  0  0  0  0  0  0  0
   -8.3688    6.3237  -14.0571 C   0  0  0  0  0  0  0  0  0  0  0  0
   -7.7847    3.6588  -13.9201 C   0  0  0  0  0  0  0  0  0  0  0  0
   -9.0986    4.9723   -9.3087 C   0  0  0  0  0  0  0  0  0  0  0  0
   -8.8937    6.1903  -11.5238 C   0  0  0  0  0  0  0  0  0  0  0  0
   -8.3722    3.8081  -11.4015 C   0  0  0  0  0  0  0  0  0  0  0  0
   -8.6720    7.7733  -14.1917 C   0  0  0  0  0  0  0  0  0  0  0  0
   -8.7511    3.9544   -6.6603 C   0  0  0  0  0  0  0  0  0  0  0  0
   -9.4969    1.7509   -7.6075 C   0  0  0  0  0  0  0  0  0  0  0  0
   -7.3955    2.8313   -8.4590 C   0  0  0  0  0  0  0  0  0  0  0  0
   -8.8001    3.0758   -7.9094 C   0  0  0  0  0  0  0  0  0  0  0  0
   -7.9733    5.6625  -15.1637 N   0  0  0  0  0  0  0  0  0  0  0  0
   -7.6775    4.3129  -15.0943 N   0  0  0  0  0  0  0  0  0  0  0  0
   -8.8086    4.9997  -10.6630 N   0  0  0  0  0  0  0  0  0  0  0  0
   -8.9503    5.9292   -8.5521 O   0  0  0  0  0  0  0  0  0  0  0  0
   -7.4828    2.3291  -13.8995 O   0  0  0  0  0  0  0  0  0  0  0  0
   -9.5706    3.7501   -8.9109 O   0  0  0  0  0  0  0  0  0  0  0  0
   -8.2078    6.9522  -11.1418 H   0  0  0  0  0  0  0  0  0  0  0  0
   -9.9242    6.5586  -11.5171 H   0  0  0  0  0  0  0  0  0  0  0  0
   -9.1542    3.0457  -11.3363 H   0  0  0  0  0  0  0  0  0  0  0  0
   -7.4407    3.4408  -10.9608 H   0  0  0  0  0  0  0  0  0  0  0  0
   -7.7707    8.3748  -14.0120 H   0  0  0  0  0  0  0  0  0  0  0  0
   -9.0522    8.0138  -15.1947 H   0  0  0  0  0  0  0  0  0  0  0  0
   -9.4459    8.0907  -13.4782 H   0  0  0  0  0  0  0  0  0  0  0  0
   -8.2516    4.9065   -6.8728 H   0  0  0  0  0  0  0  0  0  0  0  0
   -9.7543    4.1662   -6.2764 H   0  0  0  0  0  0  0  0  0  0  0  0
   -8.1710    3.4718   -5.8653 H   0  0  0  0  0  0  0  0  0  0  0  0
   -9.5343    1.1173   -8.5011 H   0  0  0  0  0  0  0  0  0  0  0  0
  -10.5366    1.9171   -7.3033 H   0  0  0  0  0  0  0  0  0  0  0  0
   -8.9869    1.1983   -6.8119 H   0  0  0  0  0  0  0  0  0  0  0  0
   -7.4304    2.2011   -9.3551 H   0  0  0  0  0  0  0  0  0  0  0  0
   -6.8939    3.7699   -8.7160 H   0  0  0  0  0  0  0  0  0  0  0  0
   -6.7789    2.2957   -7.7281 H   0  0  0  0  0  0  0  0  0  0  0  0
   -7.2202    2.0327  -14.7846 H   0  0  0  0  0  0  0  0  0  0  0  0
  1  2  2  0  0  0  0
  1  3  1  0  0  0  0
  1  6  1  0  0  0  0
  2  4  1  0  0  0  0
  2  7  1  0  0  0  0
  3  8  1  0  0  0  0
  3 13  2  0  0  0  0
  4 14  2  0  0  0  0
  4 17  1  0  0  0  0
  5 15  1  0  0  0  0
  5 16  2  0  0  0  0
  5 18  1  0  0  0  0
  6 15  1  0  0  0  0
  7 15  1  0  0  0  0
  9 12  1  0  0  0  0
 10 12  1  0  0  0  0
 11 12  1  0  0  0  0
 12 18  1  0  0  0  0
 13 14  1  0  0  0  0
  6 19  1  0  0  0  0
  6 20  1  0  0  0  0
  7 21  1  0  0  0  0
  7 22  1  0  0  0  0
  8 23  1  0  0  0  0
  8 24  1  0  0  0  0
  8 25  1  0  0  0  0
  9 26  1  0  0  0  0
  9 27  1  0  0  0  0
  9 28  1  0  0  0  0
 10 29  1  0  0  0  0
 10 30  1  0  0  0  0
 10 31  1  0  0  0  0
 11 32  1  0  0  0  0
 11 33  1  0  0  0  0
 11 34  1  0  0  0  0
 17 35  1  0  0  0  0
M  END
> <id>
EN300-43356278

> <smiles>
CC=1N=NC(O)=C2CN(CC21)C(=O)OC(C)(C)C

> <IUPAC Name>
tert-butyl 1-hydroxy-4-methyl-5H,6H,7H-pyrrolo[3,4-d]pyridazine-6-carboxylate

> <URL>
https://www.enaminestore.com/catalog/EN300-43356278

> <ROCS_ShapeQuery>
_x0404_0B

> <ROCS_TanimotoCombo>
0.364 

> <ROCS_ShapeTanimoto>
0.255 

> <ROCS_ColorTanimoto>
0.109 

> <ROCS_RefTversky>
0.238 

> <ROCS_RefColorTversky>
0.114 

> <ROCS_RefTverskyCombo>
0.352 

> <ROCS_FitTversky>
1.411 

> <ROCS_FitColorTversky>
0.705 

> <ROCS_FitTverskyCombo>
2.117 

> <ROCS_ColorScore>
-8.241

> <ROCS_Overlap>
1584.984

> <ROCS_Rank>
469                 

$$$$
untitled-dbase-30489_88
  -OEChem-08212314543D

 41 42  0     1  0  0  0  0  0999 V2000
  -10.0087    3.5787   -8.1261 C   0  0  0  0  0  0  0  0  0  0  0  0
   -8.6438    5.5615  -14.3249 C   0  0  0  0  0  0  0  0  0  0  0  0
   -7.8422    5.2530  -10.7146 C   0  0  0  0  0  0  0  0  0  0  0  0
   -9.8427    3.7502  -11.2487 C   0  0  0  0  0  0  0  0  0  0  0  0
   -8.3929    6.0285  -11.9052 C   0  0  0  0  0  0  0  0  0  0  0  0
   -9.2158    3.7823  -12.6393 C   0  0  0  0  0  0  0  0  0  0  0  0
   -8.1507    3.0708   -9.4793 C   0  0  0  0  0  0  0  0  0  0  0  0
   -9.7072    4.8113   -8.9507 C   0  0  2  0  0  0  0  0  0  0  0  0
   -8.8742    4.2578  -10.1403 C   0  0  0  0  0  0  0  0  0  0  0  0
   -7.4688    5.3043  -16.9207 C   0  0  0  0  0  0  0  0  0  0  0  0
   -9.3777    3.7527  -17.4285 C   0  0  0  0  0  0  0  0  0  0  0  0
   -9.8363    6.1566  -16.8634 C   0  0  0  0  0  0  0  0  0  0  0  0
   -8.9238    4.9579  -16.6078 C   0  0  0  0  0  0  0  0  0  0  0  0
   -9.0751    2.6115   -8.4781 N   0  0  0  0  0  0  0  0  0  0  0  0
   -8.7596    5.1292  -13.0000 N   0  0  0  0  0  0  0  0  0  0  0  0
  -10.8816    3.4899   -7.2766 O   0  0  0  0  0  0  0  0  0  0  0  0
   -8.2445    6.6760  -14.6569 O   0  0  0  0  0  0  0  0  0  0  0  0
   -8.9558    5.6581   -8.0988 O   0  0  0  0  0  0  0  0  0  0  0  0
   -9.0194    4.5988  -15.2247 O   0  0  0  0  0  0  0  0  0  0  0  0
   -6.9263    4.7358  -11.0146 H   0  0  0  0  0  0  0  0  0  0  0  0
   -7.5582    5.9795   -9.9459 H   0  0  0  0  0  0  0  0  0  0  0  0
  -10.7472    4.3722  -11.2482 H   0  0  0  0  0  0  0  0  0  0  0  0
  -10.1695    2.7282  -11.0226 H   0  0  0  0  0  0  0  0  0  0  0  0
   -9.2491    6.6270  -11.5805 H   0  0  0  0  0  0  0  0  0  0  0  0
   -7.6494    6.7294  -12.3004 H   0  0  0  0  0  0  0  0  0  0  0  0
   -8.3407    3.1215  -12.6890 H   0  0  0  0  0  0  0  0  0  0  0  0
   -9.9369    3.4130  -13.3779 H   0  0  0  0  0  0  0  0  0  0  0  0
   -7.9857    2.2399  -10.1751 H   0  0  0  0  0  0  0  0  0  0  0  0
   -7.2019    3.3247   -8.9999 H   0  0  0  0  0  0  0  0  0  0  0  0
  -10.6121    5.2747   -9.2284 H   0  0  0  0  0  0  0  0  0  0  0  0
   -7.1392    6.1689  -16.3336 H   0  0  0  0  0  0  0  0  0  0  0  0
   -6.7995    4.4642  -16.7084 H   0  0  0  0  0  0  0  0  0  0  0  0
   -7.3511    5.5830  -17.9741 H   0  0  0  0  0  0  0  0  0  0  0  0
  -10.4211    3.5006  -17.2072 H   0  0  0  0  0  0  0  0  0  0  0  0
   -8.7859    2.8648  -17.1782 H   0  0  0  0  0  0  0  0  0  0  0  0
   -9.2865    3.9384  -18.5035 H   0  0  0  0  0  0  0  0  0  0  0  0
  -10.8800    5.9084  -16.6391 H   0  0  0  0  0  0  0  0  0  0  0  0
   -9.5480    7.0200  -16.2551 H   0  0  0  0  0  0  0  0  0  0  0  0
   -9.8082    6.4495  -17.9192 H   0  0  0  0  0  0  0  0  0  0  0  0
   -9.0489    1.6818   -8.0723 H   0  0  0  0  0  0  0  0  0  0  0  0
   -9.5076    5.8604   -7.3199 H   0  0  0  0  0  0  0  0  0  0  0  0
  1  8  1  0  0  0  0
  1 14  1  0  0  0  0
  1 16  2  0  0  0  0
  2 15  1  0  0  0  0
  2 17  2  0  0  0  0
  2 19  1  0  0  0  0
  3  5  1  0  0  0  0
  3  9  1  0  0  0  0
  4  6  1  0  0  0  0
  4  9  1  0  0  0  0
  5 15  1  0  0  0  0
  6 15  1  0  0  0  0
  7  9  1  0  0  0  0
  7 14  1  0  0  0  0
  8  9  1  0  0  0  0
  8 18  1  0  0  0  0
 10 13  1  0  0  0  0
 11 13  1  0  0  0  0
 12 13  1  0  0  0  0
 13 19  1  0  0  0  0
  3 20  1  0  0  0  0
  3 21  1  0  0  0  0
  4 22  1  0  0  0  0
  4 23  1  0  0  0  0
  5 24  1  0  0  0  0
  5 25  1  0  0  0  0
  6 26  1  0  0  0  0
  6 27  1  0  0  0  0
  7 28  1  0  0  0  0
  7 29  1  0  0  0  0
  8 30  1  0  0  0  0
 10 31  1  0  0  0  0
 10 32  1  0  0  0  0
 10 33  1  0  0  0  0
 11 34  1  0  0  0  0
 11 35  1  0  0  0  0
 11 36  1  0  0  0  0
 12 37  1  0  0  0  0
 12 38  1  0  0  0  0
 12 39  1  0  0  0  0
 14 40  1  0  0  0  0
 18 41  1  0  0  0  0
M  END
> <id>
EN300-26665946

> <smiles>
CC(C)(C)OC(=O)N1CCC2(CNC(=O)C2O)CC1

> <IUPAC Name>
tert-butyl 4-hydroxy-3-oxo-2,8-diazaspiro[4.5]decane-8-carboxylate

> <CAS>
2413884-56-5

> <URL>
https://www.enaminestore.com/catalog/EN300-26665946

> <ROCS_ShapeQuery>
_x0404_0B

> <ROCS_TanimotoCombo>
0.364 

> <ROCS_ShapeTanimoto>
0.291 

> <ROCS_ColorTanimoto>
0.073 

> <ROCS_RefTversky>
0.264 

> <ROCS_RefColorTversky>
0.079 

> <ROCS_RefTverskyCombo>
0.343 

> <ROCS_FitTversky>
1.538 

> <ROCS_FitColorTversky>
0.499 

> <ROCS_FitTverskyCombo>
2.037 

> <ROCS_ColorScore>
-5.681

> <ROCS_Overlap>
1763.341

> <ROCS_Rank>
470                 

$$$$
untitled-dbase-46183_126
  -OEChem-08212314543D

 43 44  0     0  0  0  0  0  0999 V2000
   -8.4843    5.5733  -14.2856 C   0  0  0  0  0  0  0  0  0  0  0  0
   -7.4886    5.0046  -10.7641 C   0  0  0  0  0  0  0  0  0  0  0  0
   -9.8027    3.9934  -11.1295 C   0  0  0  0  0  0  0  0  0  0  0  0
   -7.9569    5.9195  -11.8894 C   0  0  0  0  0  0  0  0  0  0  0  0
   -9.3050    3.9245  -12.5706 C   0  0  0  0  0  0  0  0  0  0  0  0
   -9.5331    2.9758   -7.6309 C   0  0  0  0  0  0  0  0  0  0  0  0
  -10.1289    4.2844   -8.1417 C   0  0  0  0  0  0  0  0  0  0  0  0
   -8.0937    2.8849   -9.5538 C   0  0  0  0  0  0  0  0  0  0  0  0
   -8.6569    4.2227  -10.1015 C   0  0  0  0  0  0  0  0  0  0  0  0
   -7.0630    5.6016  -16.7683 C   0  0  0  0  0  0  0  0  0  0  0  0
   -8.4308    3.5806  -17.3627 C   0  0  0  0  0  0  0  0  0  0  0  0
   -9.5683    5.7780  -16.9319 C   0  0  0  0  0  0  0  0  0  0  0  0
   -8.3919    4.8776  -16.5575 C   0  0  0  0  0  0  0  0  0  0  0  0
   -9.0615    2.1483   -8.7385 N   0  0  0  0  0  0  0  0  0  0  0  0
   -9.1792    5.0293   -8.9732 N   0  0  0  0  0  0  0  0  0  0  0  0
   -8.5931    5.1478  -12.9583 N   0  0  0  0  0  0  0  0  0  0  0  0
   -8.3733    6.7487  -14.6293 O   0  0  0  0  0  0  0  0  0  0  0  0
   -8.5067    4.5295  -15.1730 O   0  0  0  0  0  0  0  0  0  0  0  0
   -6.7189    4.3328  -11.1536 H   0  0  0  0  0  0  0  0  0  0  0  0
   -6.9960    5.6239  -10.0034 H   0  0  0  0  0  0  0  0  0  0  0  0
  -10.5313    4.8121  -11.0561 H   0  0  0  0  0  0  0  0  0  0  0  0
  -10.3483    3.0716  -10.8939 H   0  0  0  0  0  0  0  0  0  0  0  0
   -8.6396    6.6682  -11.4830 H   0  0  0  0  0  0  0  0  0  0  0  0
   -7.1169    6.4592  -12.3352 H   0  0  0  0  0  0  0  0  0  0  0  0
   -8.6108    3.0872  -12.7111 H   0  0  0  0  0  0  0  0  0  0  0  0
  -10.1522    3.7486  -13.2430 H   0  0  0  0  0  0  0  0  0  0  0  0
   -8.6948    3.1899   -6.9609 H   0  0  0  0  0  0  0  0  0  0  0  0
  -10.2736    2.4214   -7.0431 H   0  0  0  0  0  0  0  0  0  0  0  0
  -11.0227    4.0693   -8.7379 H   0  0  0  0  0  0  0  0  0  0  0  0
  -10.4651    4.9073   -7.3050 H   0  0  0  0  0  0  0  0  0  0  0  0
   -7.7639    2.2392  -10.3826 H   0  0  0  0  0  0  0  0  0  0  0  0
   -7.1980    3.0512   -8.9422 H   0  0  0  0  0  0  0  0  0  0  0  0
   -7.0311    6.5332  -16.1919 H   0  0  0  0  0  0  0  0  0  0  0  0
   -6.2128    4.9792  -16.4705 H   0  0  0  0  0  0  0  0  0  0  0  0
   -6.9339    5.8839  -17.8194 H   0  0  0  0  0  0  0  0  0  0  0  0
   -9.3826    3.0577  -17.2145 H   0  0  0  0  0  0  0  0  0  0  0  0
   -7.6454    2.8917  -17.0314 H   0  0  0  0  0  0  0  0  0  0  0  0
   -8.3002    3.7659  -18.4338 H   0  0  0  0  0  0  0  0  0  0  0  0
  -10.5217    5.2589  -16.7808 H   0  0  0  0  0  0  0  0  0  0  0  0
   -9.5775    6.6974  -16.3376 H   0  0  0  0  0  0  0  0  0  0  0  0
   -9.5289    6.0495  -17.9930 H   0  0  0  0  0  0  0  0  0  0  0  0
   -8.6243    1.3044   -8.3679 H   0  0  0  0  0  0  0  0  0  0  0  0
   -9.6542    5.8462   -9.3468 H   0  0  0  0  0  0  0  0  0  0  0  0
  1 16  1  0  0  0  0
  1 17  2  0  0  0  0
  1 18  1  0  0  0  0
  2  4  1  0  0  0  0
  2  9  1  0  0  0  0
  3  5  1  0  0  0  0
  3  9  1  0  0  0  0
  4 16  1  0  0  0  0
  5 16  1  0  0  0  0
  6  7  1  0  0  0  0
  6 14  1  0  0  0  0
  7 15  1  0  0  0  0
  8  9  1  0  0  0  0
  8 14  1  0  0  0  0
  9 15  1  0  0  0  0
 10 13  1  0  0  0  0
 11 13  1  0  0  0  0
 12 13  1  0  0  0  0
 13 18  1  0  0  0  0
  2 19  1  0  0  0  0
  2 20  1  0  0  0  0
  3 21  1  0  0  0  0
  3 22  1  0  0  0  0
  4 23  1  0  0  0  0
  4 24  1  0  0  0  0
  5 25  1  0  0  0  0
  5 26  1  0  0  0  0
  6 27  1  0  0  0  0
  6 28  1  0  0  0  0
  7 29  1  0  0  0  0
  7 30  1  0  0  0  0
  8 31  1  0  0  0  0
  8 32  1  0  0  0  0
 10 33  1  0  0  0  0
 10 34  1  0  0  0  0
 10 35  1  0  0  0  0
 11 36  1  0  0  0  0
 11 37  1  0  0  0  0
 11 38  1  0  0  0  0
 12 39  1  0  0  0  0
 12 40  1  0  0  0  0
 12 41  1  0  0  0  0
 14 42  1  0  0  0  0
 15 43  1  0  0  0  0
M  END
> <id>
EN300-1679834

> <smiles>
CC(C)(C)OC(=O)N1CCC2(CC1)CNCCN2

> <MDLNUMBER>
MFCD32704733

> <IUPAC Name>
tert-butyl 1,4,9-triazaspiro[5.5]undecane-9-carboxylate

> <CAS>
2382884-86-6

> <Purity>
95

> <URL>
https://www.enaminestore.com/catalog/EN300-1679834

> <ROCS_ShapeQuery>
_x0404_0B

> <ROCS_TanimotoCombo>
0.364 

> <ROCS_ShapeTanimoto>
0.281 

> <ROCS_ColorTanimoto>
0.083 

> <ROCS_RefTversky>
0.256 

> <ROCS_RefColorTversky>
0.088 

> <ROCS_RefTverskyCombo>
0.344 

> <ROCS_FitTversky>
1.560 

> <ROCS_FitColorTversky>
0.561 

> <ROCS_FitTverskyCombo>
2.121 

> <ROCS_ColorScore>
-6.388

> <ROCS_Overlap>
1703.475

> <ROCS_Rank>
471                 

$$$$
untitled-dbase-17206_488
  -OEChem-08212314543D

 37 37  0     0  0  0  0  0  0999 V2000
   -8.8776    4.1874   -9.1754 C   0  0  0  0  0  0  0  0  0  0  0  0
   -8.5075    5.6778  -14.4817 C   0  0  0  0  0  0  0  0  0  0  0  0
   -8.9725    6.1102  -10.8507 C   0  0  0  0  0  0  0  0  0  0  0  0
   -7.7274    4.0284  -11.3534 C   0  0  0  0  0  0  0  0  0  0  0  0
   -9.6103    6.0491  -12.2398 C   0  0  0  0  0  0  0  0  0  0  0  0
   -8.4051    3.9423  -12.7131 C   0  0  0  0  0  0  0  0  0  0  0  0
   -6.7260    5.7451  -16.7208 C   0  0  0  0  0  0  0  0  0  0  0  0
   -7.8977    3.6570  -17.4799 C   0  0  0  0  0  0  0  0  0  0  0  0
   -9.1823    5.8046  -17.2666 C   0  0  0  0  0  0  0  0  0  0  0  0
   -8.0388    4.9633  -16.7016 C   0  0  0  0  0  0  0  0  0  0  0  0
   -8.5318    4.7851  -10.3910 N   0  0  0  0  0  0  0  0  0  0  0  0
   -8.8058    5.2668  -13.1792 N   0  0  0  0  0  0  0  0  0  0  0  0
   -9.3272    2.1409   -7.9479 N   0  0  0  0  0  0  0  0  0  0  0  0
   -8.9740    2.8097   -9.1060 N   0  0  0  0  0  0  0  0  0  0  0  0
   -9.1174    4.8522   -8.1585 O   0  0  0  0  0  0  0  0  0  0  0  0
   -8.3959    6.8521  -14.8292 O   0  0  0  0  0  0  0  0  0  0  0  0
   -8.3483    4.6257  -15.3445 O   0  0  0  0  0  0  0  0  0  0  0  0
   -8.0858    6.7543  -10.8656 H   0  0  0  0  0  0  0  0  0  0  0  0
   -9.6782    6.5503  -10.1402 H   0  0  0  0  0  0  0  0  0  0  0  0
   -7.5830    3.0276  -10.9462 H   0  0  0  0  0  0  0  0  0  0  0  0
   -6.7556    4.5096  -11.4519 H   0  0  0  0  0  0  0  0  0  0  0  0
  -10.5939    5.5812  -12.1808 H   0  0  0  0  0  0  0  0  0  0  0  0
   -9.7359    7.0547  -12.6408 H   0  0  0  0  0  0  0  0  0  0  0  0
   -7.7179    3.5327  -13.4593 H   0  0  0  0  0  0  0  0  0  0  0  0
   -9.2686    3.2759  -12.6617 H   0  0  0  0  0  0  0  0  0  0  0  0
   -6.8232    6.6835  -16.1632 H   0  0  0  0  0  0  0  0  0  0  0  0
   -5.9050    5.1656  -16.2861 H   0  0  0  0  0  0  0  0  0  0  0  0
   -6.4504    6.0213  -17.7450 H   0  0  0  0  0  0  0  0  0  0  0  0
   -8.8373    3.0928  -17.4687 H   0  0  0  0  0  0  0  0  0  0  0  0
   -7.1428    3.0085  -17.0206 H   0  0  0  0  0  0  0  0  0  0  0  0
   -7.6133    3.8361  -18.5218 H   0  0  0  0  0  0  0  0  0  0  0  0
  -10.1240    5.2441  -17.2529 H   0  0  0  0  0  0  0  0  0  0  0  0
   -9.3222    6.7293  -16.6972 H   0  0  0  0  0  0  0  0  0  0  0  0
   -8.9932    6.0659  -18.3141 H   0  0  0  0  0  0  0  0  0  0  0  0
   -9.9770    2.7440   -7.4451 H   0  0  0  0  0  0  0  0  0  0  0  0
   -9.8642    1.3224   -8.2317 H   0  0  0  0  0  0  0  0  0  0  0  0
   -8.7949    2.2038   -9.9338 H   0  0  0  0  0  0  0  0  0  0  0  0
  1 11  1  0  0  0  0
  1 14  1  0  0  0  0
  1 15  2  0  0  0  0
  2 12  1  0  0  0  0
  2 16  2  0  0  0  0
  2 17  1  0  0  0  0
  3  5  1  0  0  0  0
  3 11  1  0  0  0  0
  4  6  1  0  0  0  0
  4 11  1  0  0  0  0
  5 12  1  0  0  0  0
  6 12  1  0  0  0  0
  7 10  1  0  0  0  0
  8 10  1  0  0  0  0
  9 10  1  0  0  0  0
 10 17  1  0  0  0  0
 13 14  1  0  0  0  0
  3 18  1  0  0  0  0
  3 19  1  0  0  0  0
  4 20  1  0  0  0  0
  4 21  1  0  0  0  0
  5 22  1  0  0  0  0
  5 23  1  0  0  0  0
  6 24  1  0  0  0  0
  6 25  1  0  0  0  0
  7 26  1  0  0  0  0
  7 27  1  0  0  0  0
  7 28  1  0  0  0  0
  8 29  1  0  0  0  0
  8 30  1  0  0  0  0
  8 31  1  0  0  0  0
  9 32  1  0  0  0  0
  9 33  1  0  0  0  0
  9 34  1  0  0  0  0
 13 35  1  0  0  0  0
 13 36  1  0  0  0  0
 14 37  1  0  0  0  0
M  END
> <id>
EN300-12442359

> <smiles>
CC(C)(C)OC(=O)N1CCN(CC1)C(=O)NN

> <MDLNUMBER>
MFCD07774242

> <IUPAC Name>
tert-butyl 4-(hydrazinecarbonyl)piperazine-1-carboxylate

> <CAS>
874842-90-7

> <Purity>
95

> <URL>
https://www.enaminestore.com/catalog/EN300-12442359

> <ROCS_ShapeQuery>
_x0404_0B

> <ROCS_TanimotoCombo>
0.364 

> <ROCS_ShapeTanimoto>
0.296 

> <ROCS_ColorTanimoto>
0.068 

> <ROCS_RefTversky>
0.264 

> <ROCS_RefColorTversky>
0.072 

> <ROCS_RefTverskyCombo>
0.337 

> <ROCS_FitTversky>
1.680 

> <ROCS_FitColorTversky>
0.535 

> <ROCS_FitTverskyCombo>
2.215 

> <ROCS_ColorScore>
-5.222

> <ROCS_Overlap>
1760.745

> <ROCS_Rank>
472                 

$$$$
untitled-dbase-33520_13
  -OEChem-08212314543D

 36 37  0     0  0  0  0  0  0999 V2000
   -9.1057    6.1395  -10.6506 C   0  0  0  0  0  0  0  0  0  0  0  0
   -9.2940    6.8568   -9.4890 C   0  0  0  0  0  0  0  0  0  0  0  0
   -8.5466    4.9572   -8.8633 C   0  0  0  0  0  0  0  0  0  0  0  0
   -8.2903    5.6490  -14.2374 C   0  0  0  0  0  0  0  0  0  0  0  0
   -9.3325    6.4524  -12.0842 C   0  0  0  0  0  0  0  0  0  0  0  0
   -8.2645    3.8449  -11.1058 C   0  0  0  0  0  0  0  0  0  0  0  0
   -8.9125    4.0129  -12.4761 C   0  0  0  0  0  0  0  0  0  0  0  0
   -7.1143    5.6590  -16.8463 C   0  0  0  0  0  0  0  0  0  0  0  0
   -7.3515    3.1598  -16.7609 C   0  0  0  0  0  0  0  0  0  0  0  0
   -9.3974    4.6140  -16.6721 C   0  0  0  0  0  0  0  0  0  0  0  0
   -8.0561    3.8146   -8.0664 C   0  0  0  0  0  0  0  0  0  0  0  0
   -7.9247    4.4923  -16.2833 C   0  0  0  0  0  0  0  0  0  0  0  0
   -8.9446    6.1163   -8.3840 N   0  0  0  0  0  0  0  0  0  0  0  0
   -8.6295    4.9297  -10.2212 N   0  0  0  0  0  0  0  0  0  0  0  0
   -8.7835    5.3959  -12.9521 N   0  0  0  0  0  0  0  0  0  0  0  0
   -8.2649    6.7594  -14.7650 O   0  0  0  0  0  0  0  0  0  0  0  0
   -7.8267    4.5169  -14.8546 O   0  0  0  0  0  0  0  0  0  0  0  0
   -8.0362    4.0403   -6.7134 F   0  0  0  0  0  0  0  0  0  0  0  0
   -8.7973    2.6695   -8.2118 F   0  0  0  0  0  0  0  0  0  0  0  0
   -6.7738    3.4476   -8.3818 F   0  0  0  0  0  0  0  0  0  0  0  0
   -9.9482    8.6185   -9.3632 Br  0  0  0  0  0  0  0  0  0  0  0  0
  -10.4067    6.5115  -12.2926 H   0  0  0  0  0  0  0  0  0  0  0  0
   -8.8838    7.4184  -12.3345 H   0  0  0  0  0  0  0  0  0  0  0  0
   -8.5827    2.9019  -10.6502 H   0  0  0  0  0  0  0  0  0  0  0  0
   -7.1718    3.8544  -11.1867 H   0  0  0  0  0  0  0  0  0  0  0  0
   -8.4742    3.3070  -13.1885 H   0  0  0  0  0  0  0  0  0  0  0  0
   -9.9870    3.7982  -12.4208 H   0  0  0  0  0  0  0  0  0  0  0  0
   -7.5226    6.6173  -16.5058 H   0  0  0  0  0  0  0  0  0  0  0  0
   -6.0631    5.6023  -16.5455 H   0  0  0  0  0  0  0  0  0  0  0  0
   -7.1606    5.6749  -17.9412 H   0  0  0  0  0  0  0  0  0  0  0  0
   -7.9299    2.3200  -16.3593 H   0  0  0  0  0  0  0  0  0  0  0  0
   -6.3241    3.0262  -16.4031 H   0  0  0  0  0  0  0  0  0  0  0  0
   -7.3501    3.0890  -17.8534 H   0  0  0  0  0  0  0  0  0  0  0  0
   -9.9788    3.7773  -16.2684 H   0  0  0  0  0  0  0  0  0  0  0  0
   -9.8354    5.5480  -16.3055 H   0  0  0  0  0  0  0  0  0  0  0  0
   -9.5172    4.5770  -17.7610 H   0  0  0  0  0  0  0  0  0  0  0  0
  1  2  2  0  0  0  0
  1  5  1  0  0  0  0
  1 14  1  0  0  0  0
  2 13  1  0  0  0  0
  2 21  1  0  0  0  0
  3 11  1  0  0  0  0
  3 13  2  0  0  0  0
  3 14  1  0  0  0  0
  4 15  1  0  0  0  0
  4 16  2  0  0  0  0
  4 17  1  0  0  0  0
  5 15  1  0  0  0  0
  6  7  1  0  0  0  0
  6 14  1  0  0  0  0
  7 15  1  0  0  0  0
  8 12  1  0  0  0  0
  9 12  1  0  0  0  0
 10 12  1  0  0  0  0
 11 18  1  0  0  0  0
 11 19  1  0  0  0  0
 11 20  1  0  0  0  0
 12 17  1  0  0  0  0
  5 22  1  0  0  0  0
  5 23  1  0  0  0  0
  6 24  1  0  0  0  0
  6 25  1  0  0  0  0
  7 26  1  0  0  0  0
  7 27  1  0  0  0  0
  8 28  1  0  0  0  0
  8 29  1  0  0  0  0
  8 30  1  0  0  0  0
  9 31  1  0  0  0  0
  9 32  1  0  0  0  0
  9 33  1  0  0  0  0
 10 34  1  0  0  0  0
 10 35  1  0  0  0  0
 10 36  1  0  0  0  0
M  END
> <id>
EN300-708712

> <smiles>
CC(C)(C)OC(=O)N1CCN2C(=NC(Br)=C2C1)C(F)(F)F

> <MDLNUMBER>
MFCD24848028

> <IUPAC Name>
tert-butyl 1-bromo-3-(trifluoromethyl)-5H,6H,7H,8H-imidazo[1,5-a]pyrazine-7-carboxylate

> <CAS>
1152440-02-2

> <Purity>
95

> <URL>
https://www.enaminestore.com/catalog/EN300-708712

> <ROCS_ShapeQuery>
_x0404_0B

> <ROCS_TanimotoCombo>
0.364 

> <ROCS_ShapeTanimoto>
0.300 

> <ROCS_ColorTanimoto>
0.064 

> <ROCS_RefTversky>
0.274 

> <ROCS_RefColorTversky>
0.069 

> <ROCS_RefTverskyCombo>
0.343 

> <ROCS_FitTversky>
1.463 

> <ROCS_FitColorTversky>
0.475 

> <ROCS_FitTverskyCombo>
1.938 

> <ROCS_ColorScore>
-4.959

> <ROCS_Overlap>
1828.903

> <ROCS_Rank>
473                 

$$$$
untitled-dbase-47355_499
  -OEChem-08212314543D

 37 37  0     0  0  0  0  0  0999 V2000
   -8.9869    4.1553   -9.1010 C   0  0  0  0  0  0  0  0  0  0  0  0
   -8.4382    5.7181  -14.4994 C   0  0  0  0  0  0  0  0  0  0  0  0
   -8.6744    5.9825  -10.7328 C   0  0  0  0  0  0  0  0  0  0  0  0
   -8.5870    3.5885  -11.4689 C   0  0  0  0  0  0  0  0  0  0  0  0
   -9.1777    6.2296  -12.1518 C   0  0  0  0  0  0  0  0  0  0  0  0
   -7.8239    4.1960  -12.6413 C   0  0  0  0  0  0  0  0  0  0  0  0
   -7.0609    5.6936  -17.0065 C   0  0  0  0  0  0  0  0  0  0  0  0
   -8.1767    3.4758  -17.3884 C   0  0  0  0  0  0  0  0  0  0  0  0
   -9.5707    5.5487  -17.1276 C   0  0  0  0  0  0  0  0  0  0  0  0
   -8.2880    4.8355  -16.7021 C   0  0  0  0  0  0  0  0  0  0  0  0
   -8.7611    4.5615  -10.3856 N   0  0  0  0  0  0  0  0  0  0  0  0
   -8.4791    5.4032  -13.1388 N   0  0  0  0  0  0  0  0  0  0  0  0
   -9.2759    2.2987   -7.6017 N   0  0  0  0  0  0  0  0  0  0  0  0
   -9.0526    2.8036   -8.8695 N   0  0  0  0  0  0  0  0  0  0  0  0
   -8.4769    6.8623  -14.9474 O   0  0  0  0  0  0  0  0  0  0  0  0
   -8.3426    4.6030  -15.2901 O   0  0  0  0  0  0  0  0  0  0  0  0
   -9.1743    5.2612   -7.8600 S   0  0  0  0  0  0  0  0  0  0  0  0
   -7.6338    6.3254  -10.6317 H   0  0  0  0  0  0  0  0  0  0  0  0
   -9.2764    6.5430  -10.0005 H   0  0  0  0  0  0  0  0  0  0  0  0
   -9.5905    3.2585  -11.7839 H   0  0  0  0  0  0  0  0  0  0  0  0
   -8.0582    2.7010  -11.0868 H   0  0  0  0  0  0  0  0  0  0  0  0
  -10.2619    6.0476  -12.1980 H   0  0  0  0  0  0  0  0  0  0  0  0
   -9.0216    7.2822  -12.4390 H   0  0  0  0  0  0  0  0  0  0  0  0
   -6.8068    4.4802  -12.3312 H   0  0  0  0  0  0  0  0  0  0  0  0
   -7.7151    3.4441  -13.4336 H   0  0  0  0  0  0  0  0  0  0  0  0
   -7.1370    6.6705  -16.5157 H   0  0  0  0  0  0  0  0  0  0  0  0
   -6.1372    5.2086  -16.6744 H   0  0  0  0  0  0  0  0  0  0  0  0
   -6.9801    5.8931  -18.0811 H   0  0  0  0  0  0  0  0  0  0  0  0
   -9.0550    2.8568  -17.1727 H   0  0  0  0  0  0  0  0  0  0  0  0
   -7.3085    2.9204  -17.0154 H   0  0  0  0  0  0  0  0  0  0  0  0
   -8.0826    3.5779  -18.4743 H   0  0  0  0  0  0  0  0  0  0  0  0
  -10.4510    4.9335  -16.9094 H   0  0  0  0  0  0  0  0  0  0  0  0
   -9.6859    6.5103  -16.6169 H   0  0  0  0  0  0  0  0  0  0  0  0
   -9.5776    5.7258  -18.2092 H   0  0  0  0  0  0  0  0  0  0  0  0
   -9.8891    2.9589   -7.1255 H   0  0  0  0  0  0  0  0  0  0  0  0
   -9.8181    1.4432   -7.7163 H   0  0  0  0  0  0  0  0  0  0  0  0
   -8.9369    2.1396   -9.6284 H   0  0  0  0  0  0  0  0  0  0  0  0
  1 11  1  0  0  0  0
  1 14  1  0  0  0  0
  1 17  2  0  0  0  0
  2 12  1  0  0  0  0
  2 15  2  0  0  0  0
  2 16  1  0  0  0  0
  3  5  1  0  0  0  0
  3 11  1  0  0  0  0
  4  6  1  0  0  0  0
  4 11  1  0  0  0  0
  5 12  1  0  0  0  0
  6 12  1  0  0  0  0
  7 10  1  0  0  0  0
  8 10  1  0  0  0  0
  9 10  1  0  0  0  0
 10 16  1  0  0  0  0
 13 14  1  0  0  0  0
  3 18  1  0  0  0  0
  3 19  1  0  0  0  0
  4 20  1  0  0  0  0
  4 21  1  0  0  0  0
  5 22  1  0  0  0  0
  5 23  1  0  0  0  0
  6 24  1  0  0  0  0
  6 25  1  0  0  0  0
  7 26  1  0  0  0  0
  7 27  1  0  0  0  0
  7 28  1  0  0  0  0
  8 29  1  0  0  0  0
  8 30  1  0  0  0  0
  8 31  1  0  0  0  0
  9 32  1  0  0  0  0
  9 33  1  0  0  0  0
  9 34  1  0  0  0  0
 13 35  1  0  0  0  0
 13 36  1  0  0  0  0
 14 37  1  0  0  0  0
M  END
> <id>
EN300-236869

> <smiles>
CC(C)(C)OC(=O)N1CCN(CC1)C(=S)NN

> <MDLNUMBER>
MFCD16653423

> <IUPAC Name>
tert-butyl 4-(aminocarbamothioyl)piperazine-1-carboxylate

> <CAS>
741254-59-1

> <URL>
https://www.enaminestore.com/catalog/EN300-236869

> <ROCS_ShapeQuery>
_x0404_0B

> <ROCS_TanimotoCombo>
0.364 

> <ROCS_ShapeTanimoto>
0.295 

> <ROCS_ColorTanimoto>
0.069 

> <ROCS_RefTversky>
0.263 

> <ROCS_RefColorTversky>
0.074 

> <ROCS_RefTverskyCombo>
0.337 

> <ROCS_FitTversky>
1.689 

> <ROCS_FitColorTversky>
0.545 

> <ROCS_FitTverskyCombo>
2.234 

> <ROCS_ColorScore>
-5.316

> <ROCS_Overlap>
1751.796

> <ROCS_Rank>
474                 

$$$$
untitled-dbase-16647_3
  -OEChem-08212314543D

 39 42  0     1  0  0  0  0  0999 V2000
   -8.2272    5.7984  -18.0626 C   0  0  0  0  0  0  0  0  0  0  0  0
   -7.6226    6.9802  -11.1658 C   0  0  0  0  0  0  0  0  0  0  0  0
   -9.1103    7.3888  -11.2829 C   0  0  0  0  0  0  0  0  0  0  0  0
   -7.2270    5.4345  -16.9496 C   0  0  0  0  0  0  0  0  0  0  0  0
   -9.2518    4.8914  -17.3561 C   0  0  0  0  0  0  0  0  0  0  0  0
   -7.6467    4.6268  -12.1887 C   0  0  0  0  0  0  0  0  0  0  0  0
  -10.1464    5.3133  -12.3768 C   0  0  0  0  0  0  0  0  0  0  0  0
   -8.2263    3.8303  -15.1943 C   0  0  0  0  0  0  0  0  0  0  0  0
   -8.9623    6.2633  -15.1850 C   0  0  0  0  0  0  0  0  0  0  0  0
   -7.5563    5.4662  -10.8975 C   0  0  2  0  0  0  0  0  0  0  0  0
   -9.9749    6.1318  -11.0807 C   0  0  1  0  0  0  0  0  0  0  0  0
   -8.4445    5.0948  -16.0332 C   0  0  0  0  0  0  0  0  0  0  0  0
   -8.8281    4.9879  -13.1441 C   0  0  0  0  0  0  0  0  0  0  0  0
   -9.1196    3.8426  -14.0393 N   0  0  0  0  0  0  0  0  0  0  0  0
   -9.3995    3.7760   -9.9596 O   0  0  0  0  0  0  0  0  0  0  0  0
   -8.9154    5.8934   -8.6637 O   0  0  0  0  0  0  0  0  0  0  0  0
   -8.4107    6.1687  -13.8721 O   0  0  0  0  0  0  0  0  0  0  0  0
   -9.0196    5.1711   -9.9148 S   0  0  0  0  0  0  0  0  0  0  0  0
   -8.5083    6.8564  -18.0767 H   0  0  0  0  0  0  0  0  0  0  0  0
   -7.9429    5.4946  -19.0723 H   0  0  0  0  0  0  0  0  0  0  0  0
   -7.0395    7.2756  -12.0437 H   0  0  0  0  0  0  0  0  0  0  0  0
   -7.1842    7.5177  -10.3147 H   0  0  0  0  0  0  0  0  0  0  0  0
   -9.3318    8.1126  -10.4879 H   0  0  0  0  0  0  0  0  0  0  0  0
   -9.3281    7.8980  -12.2268 H   0  0  0  0  0  0  0  0  0  0  0  0
   -6.5954    4.5746  -17.2047 H   0  0  0  0  0  0  0  0  0  0  0  0
   -6.5798    6.2512  -16.6160 H   0  0  0  0  0  0  0  0  0  0  0  0
  -10.2809    5.2581  -17.3547 H   0  0  0  0  0  0  0  0  0  0  0  0
   -9.2473    3.8625  -17.7323 H   0  0  0  0  0  0  0  0  0  0  0  0
   -6.7000    4.7438  -12.7331 H   0  0  0  0  0  0  0  0  0  0  0  0
   -7.7086    3.5696  -11.8990 H   0  0  0  0  0  0  0  0  0  0  0  0
  -10.6597    4.3772  -12.1178 H   0  0  0  0  0  0  0  0  0  0  0  0
  -10.8422    5.8635  -13.0192 H   0  0  0  0  0  0  0  0  0  0  0  0
   -8.3878    2.9336  -15.8022 H   0  0  0  0  0  0  0  0  0  0  0  0
   -7.1923    3.7820  -14.8367 H   0  0  0  0  0  0  0  0  0  0  0  0
   -8.6546    7.2258  -15.5990 H   0  0  0  0  0  0  0  0  0  0  0  0
  -10.0526    6.2712  -15.1379 H   0  0  0  0  0  0  0  0  0  0  0  0
   -6.6745    5.1903  -10.3118 H   0  0  0  0  0  0  0  0  0  0  0  0
  -10.9451    6.3658  -10.6336 H   0  0  0  0  0  0  0  0  0  0  0  0
  -10.0853    3.8806  -14.3506 H   0  0  0  0  0  0  0  0  0  0  0  0
  1  4  1  0  0  0  0
  1  5  1  0  0  0  0
  2  3  1  0  0  0  0
  2 10  1  0  0  0  0
  3 11  1  0  0  0  0
  4 12  1  0  0  0  0
  5 12  1  0  0  0  0
  6 10  1  0  0  0  0
  6 13  1  0  0  0  0
  7 11  1  0  0  0  0
  7 13  1  0  0  0  0
  8 12  1  0  0  0  0
  8 14  1  0  0  0  0
  9 12  1  0  0  0  0
  9 17  1  0  0  0  0
 10 18  1  0  0  0  0
 11 18  1  0  0  0  0
 13 14  1  0  0  0  0
 13 17  1  0  0  0  0
 15 18  2  0  0  0  0
 16 18  2  0  0  0  0
  1 19  1  0  0  0  0
  1 20  1  0  0  0  0
  2 21  1  0  0  0  0
  2 22  1  0  0  0  0
  3 23  1  0  0  0  0
  3 24  1  0  0  0  0
  4 25  1  0  0  0  0
  4 26  1  0  0  0  0
  5 27  1  0  0  0  0
  5 28  1  0  0  0  0
  6 29  1  0  0  0  0
  6 30  1  0  0  0  0
  7 31  1  0  0  0  0
  7 32  1  0  0  0  0
  8 33  1  0  0  0  0
  8 34  1  0  0  0  0
  9 35  1  0  0  0  0
  9 36  1  0  0  0  0
 10 37  1  0  0  0  0
 11 38  1  0  0  0  0
 14 39  1  0  0  0  0
M  END
> <id>
EN300-1278908

> <smiles>
O=S1(=O)C2CCC1CC3(C2)NCC4(CCC4)CO3

> <IUPAC Name>
8lambda6-dispiro[8lambda6-thiabicyclo[3.2.1]octane-3,2'-[1,3]oxazinane-5',1''-cyclobutane]-8,8-dione

> <CAS>
2172513-36-7

> <URL>
https://www.enaminestore.com/catalog/EN300-1278908

> <ROCS_ShapeQuery>
_x0404_0B

> <ROCS_TanimotoCombo>
0.364 

> <ROCS_ShapeTanimoto>
0.273 

> <ROCS_ColorTanimoto>
0.091 

> <ROCS_RefTversky>
0.250 

> <ROCS_RefColorTversky>
0.101 

> <ROCS_RefTverskyCombo>
0.351 

> <ROCS_FitTversky>
1.512 

> <ROCS_FitColorTversky>
0.464 

> <ROCS_FitTverskyCombo>
1.977 

> <ROCS_ColorScore>
-7.347

> <ROCS_Overlap>
1666.609

> <ROCS_Rank>
475                 

$$$$
untitled-dbase-13981_85
  -OEChem-08212314543D

 39 40  0     0  0  0  0  0  0999 V2000
   -9.0642    2.7044   -8.8111 C   0  0  0  0  0  0  0  0  0  0  0  0
   -8.7768    2.7314  -10.1778 C   0  0  0  0  0  0  0  0  0  0  0  0
   -9.1729    3.8947   -8.0946 C   0  0  0  0  0  0  0  0  0  0  0  0
   -8.6109    3.9501  -10.8517 C   0  0  0  0  0  0  0  0  0  0  0  0
   -8.9969    5.1146   -8.7429 C   0  0  0  0  0  0  0  0  0  0  0  0
   -8.7316    5.1376  -10.1137 C   0  0  0  0  0  0  0  0  0  0  0  0
   -8.2180    5.4044  -14.3614 C   0  0  0  0  0  0  0  0  0  0  0  0
   -8.2433    3.9385  -12.3170 C   0  0  0  0  0  0  0  0  0  0  0  0
   -9.9644    5.7440  -12.6415 C   0  0  0  0  0  0  0  0  0  0  0  0
   -9.6023    6.7521  -11.5513 C   0  0  0  0  0  0  0  0  0  0  0  0
   -5.9453    5.6539  -16.0815 C   0  0  0  0  0  0  0  0  0  0  0  0
   -6.4782    3.3129  -16.8197 C   0  0  0  0  0  0  0  0  0  0  0  0
   -8.1359    5.1574  -17.2169 C   0  0  0  0  0  0  0  0  0  0  0  0
   -7.0535    4.6210  -16.2813 C   0  0  0  0  0  0  0  0  0  0  0  0
   -8.7801    5.0424  -13.1310 N   0  0  0  0  0  0  0  0  0  0  0  0
   -9.1005    6.3113   -8.0015 N   0  0  0  0  0  0  0  0  0  0  0  0
   -8.2310    6.5444  -14.8219 O   0  0  0  0  0  0  0  0  0  0  0  0
   -8.5179    6.3558  -10.7007 O   0  0  0  0  0  0  0  0  0  0  0  0
   -7.6487    4.3394  -15.0094 O   0  0  0  0  0  0  0  0  0  0  0  0
   -9.1947    1.7523   -8.3046 H   0  0  0  0  0  0  0  0  0  0  0  0
   -8.6756    1.7889  -10.7115 H   0  0  0  0  0  0  0  0  0  0  0  0
   -9.3927    3.8582   -7.0308 H   0  0  0  0  0  0  0  0  0  0  0  0
   -7.1328    3.9413  -12.4184 H   0  0  0  0  0  0  0  0  0  0  0  0
   -8.5476    2.9705  -12.7768 H   0  0  0  0  0  0  0  0  0  0  0  0
  -10.6835    5.0213  -12.2392 H   0  0  0  0  0  0  0  0  0  0  0  0
  -10.4336    6.2456  -13.4967 H   0  0  0  0  0  0  0  0  0  0  0  0
   -9.2740    7.6897  -12.0428 H   0  0  0  0  0  0  0  0  0  0  0  0
  -10.4960    7.0480  -10.9551 H   0  0  0  0  0  0  0  0  0  0  0  0
   -6.3541    6.5943  -15.6950 H   0  0  0  0  0  0  0  0  0  0  0  0
   -5.1803    5.2951  -15.3851 H   0  0  0  0  0  0  0  0  0  0  0  0
   -5.4601    5.8960  -17.0339 H   0  0  0  0  0  0  0  0  0  0  0  0
   -7.2699    2.5689  -16.9646 H   0  0  0  0  0  0  0  0  0  0  0  0
   -5.7700    2.8752  -16.1069 H   0  0  0  0  0  0  0  0  0  0  0  0
   -5.9626    3.4608  -17.7741 H   0  0  0  0  0  0  0  0  0  0  0  0
   -8.9310    4.4168  -17.3604 H   0  0  0  0  0  0  0  0  0  0  0  0
   -8.5860    6.0766  -16.8279 H   0  0  0  0  0  0  0  0  0  0  0  0
   -7.7238    5.3651  -18.2110 H   0  0  0  0  0  0  0  0  0  0  0  0
   -8.9274    7.1827   -8.4584 H   0  0  0  0  0  0  0  0  0  0  0  0
   -9.2517    6.2601   -7.0152 H   0  0  0  0  0  0  0  0  0  0  0  0
  1  2  1  0  0  0  0
  1  3  2  0  0  0  0
  2  4  2  0  0  0  0
  3  5  1  0  0  0  0
  4  6  1  0  0  0  0
  4  8  1  0  0  0  0
  5  6  2  0  0  0  0
  5 16  1  0  0  0  0
  6 18  1  0  0  0  0
  7 15  1  0  0  0  0
  7 17  2  0  0  0  0
  7 19  1  0  0  0  0
  8 15  1  0  0  0  0
  9 10  1  0  0  0  0
  9 15  1  0  0  0  0
 10 18  1  0  0  0  0
 11 14  1  0  0  0  0
 12 14  1  0  0  0  0
 13 14  1  0  0  0  0
 14 19  1  0  0  0  0
  1 20  1  0  0  0  0
  2 21  1  0  0  0  0
  3 22  1  0  0  0  0
  8 23  1  0  0  0  0
  8 24  1  0  0  0  0
  9 25  1  0  0  0  0
  9 26  1  0  0  0  0
 10 27  1  0  0  0  0
 10 28  1  0  0  0  0
 11 29  1  0  0  0  0
 11 30  1  0  0  0  0
 11 31  1  0  0  0  0
 12 32  1  0  0  0  0
 12 33  1  0  0  0  0
 12 34  1  0  0  0  0
 13 35  1  0  0  0  0
 13 36  1  0  0  0  0
 13 37  1  0  0  0  0
 16 38  1  0  0  0  0
 16 39  1  0  0  0  0
M  END
> <id>
EN300-658354

> <smiles>
CC(C)(C)OC(=O)N1CCOC=2C(N)=CC=CC2C1

> <MDLNUMBER>
MFCD28619744

> <IUPAC Name>
tert-butyl 9-amino-2,3,4,5-tetrahydro-1,4-benzoxazepine-4-carboxylate

> <CAS>
1782779-66-1

> <URL>
https://www.enaminestore.com/catalog/EN300-658354

> <ROCS_ShapeQuery>
_x0404_0B

> <ROCS_TanimotoCombo>
0.364 

> <ROCS_ShapeTanimoto>
0.291 

> <ROCS_ColorTanimoto>
0.073 

> <ROCS_RefTversky>
0.264 

> <ROCS_RefColorTversky>
0.078 

> <ROCS_RefTverskyCombo>
0.342 

> <ROCS_FitTversky>
1.524 

> <ROCS_FitColorTversky>
0.540 

> <ROCS_FitTverskyCombo>
2.063 

> <ROCS_ColorScore>
-5.632

> <ROCS_Overlap>
1762.637

> <ROCS_Rank>
476                 

$$$$
untitled-dbase-22617_108
  -OEChem-08212314543D

 38 39  0     0  0  0  0  0  0999 V2000
   -8.1576    1.6298   -8.3245 C   0  0  0  0  0  0  0  0  0  0  0  0
   -8.3494    2.7774   -8.6214 C   0  0  0  0  0  0  0  0  0  0  0  0
   -8.8424    5.0764   -7.9881 C   0  0  0  0  0  0  0  0  0  0  0  0
   -8.9697    6.7887   -9.5183 C   0  0  0  0  0  0  0  0  0  0  0  0
   -8.5774    4.1427   -8.9742 C   0  0  0  0  0  0  0  0  0  0  0  0
   -8.7258    5.9416  -10.5960 C   0  0  0  0  0  0  0  0  0  0  0  0
   -8.5349    4.5905  -10.2910 C   0  0  0  0  0  0  0  0  0  0  0  0
   -8.5952    5.7700  -14.3976 C   0  0  0  0  0  0  0  0  0  0  0  0
   -8.6100    6.5027  -11.9888 C   0  0  0  0  0  0  0  0  0  0  0  0
  -10.0143    4.5690  -12.7650 C   0  0  0  0  0  0  0  0  0  0  0  0
   -9.3420    3.3656  -12.1045 C   0  0  0  0  0  0  0  0  0  0  0  0
   -6.6693    5.2216  -16.4410 C   0  0  0  0  0  0  0  0  0  0  0  0
   -8.0951    3.2286  -16.9927 C   0  0  0  0  0  0  0  0  0  0  0  0
   -9.0405    5.5443  -17.2209 C   0  0  0  0  0  0  0  0  0  0  0  0
   -8.0860    4.6491  -16.4320 C   0  0  0  0  0  0  0  0  0  0  0  0
   -9.0425    6.3908   -8.2262 N   0  0  0  0  0  0  0  0  0  0  0  0
   -9.0441    5.6146  -13.0804 N   0  0  0  0  0  0  0  0  0  0  0  0
   -8.2775    6.8466  -14.8996 O   0  0  0  0  0  0  0  0  0  0  0  0
   -8.2228    3.6826  -11.2658 O   0  0  0  0  0  0  0  0  0  0  0  0
   -8.5412    4.5805  -15.0759 O   0  0  0  0  0  0  0  0  0  0  0  0
   -7.9870    0.6121   -8.0611 H   0  0  0  0  0  0  0  0  0  0  0  0
   -8.9078    4.7954   -6.9410 H   0  0  0  0  0  0  0  0  0  0  0  0
   -9.1274    7.8536   -9.6671 H   0  0  0  0  0  0  0  0  0  0  0  0
   -9.1987    7.4460  -12.0566 H   0  0  0  0  0  0  0  0  0  0  0  0
   -7.5626    6.8272  -12.1805 H   0  0  0  0  0  0  0  0  0  0  0  0
  -10.5165    4.2411  -13.6828 H   0  0  0  0  0  0  0  0  0  0  0  0
  -10.7738    5.0042  -12.1030 H   0  0  0  0  0  0  0  0  0  0  0  0
  -10.0847    2.8740  -11.4445 H   0  0  0  0  0  0  0  0  0  0  0  0
   -9.0754    2.5842  -12.8530 H   0  0  0  0  0  0  0  0  0  0  0  0
   -6.6586    6.2412  -16.0393 H   0  0  0  0  0  0  0  0  0  0  0  0
   -5.9823    4.6076  -15.8496 H   0  0  0  0  0  0  0  0  0  0  0  0
   -6.2810    5.2883  -17.4637 H   0  0  0  0  0  0  0  0  0  0  0  0
   -9.1095    2.8139  -16.9882 H   0  0  0  0  0  0  0  0  0  0  0  0
   -7.4857    2.5606  -16.3733 H   0  0  0  0  0  0  0  0  0  0  0  0
   -7.7119    3.1964  -18.0178 H   0  0  0  0  0  0  0  0  0  0  0  0
  -10.0567    5.1338  -17.2147 H   0  0  0  0  0  0  0  0  0  0  0  0
   -9.0748    6.5584  -16.8098 H   0  0  0  0  0  0  0  0  0  0  0  0
   -8.7380    5.6050  -18.2727 H   0  0  0  0  0  0  0  0  0  0  0  0
  1  2  3  0  0  0  0
  2  5  1  0  0  0  0
  3  5  1  0  0  0  0
  3 16  2  0  0  0  0
  4  6  2  0  0  0  0
  4 16  1  0  0  0  0
  5  7  2  0  0  0  0
  6  7  1  0  0  0  0
  6  9  1  0  0  0  0
  7 19  1  0  0  0  0
  8 17  1  0  0  0  0
  8 18  2  0  0  0  0
  8 20  1  0  0  0  0
  9 17  1  0  0  0  0
 10 11  1  0  0  0  0
 10 17  1  0  0  0  0
 11 19  1  0  0  0  0
 12 15  1  0  0  0  0
 13 15  1  0  0  0  0
 14 15  1  0  0  0  0
 15 20  1  0  0  0  0
  1 21  1  0  0  0  0
  3 22  1  0  0  0  0
  4 23  1  0  0  0  0
  9 24  1  0  0  0  0
  9 25  1  0  0  0  0
 10 26  1  0  0  0  0
 10 27  1  0  0  0  0
 11 28  1  0  0  0  0
 11 29  1  0  0  0  0
 12 30  1  0  0  0  0
 12 31  1  0  0  0  0
 12 32  1  0  0  0  0
 13 33  1  0  0  0  0
 13 34  1  0  0  0  0
 13 35  1  0  0  0  0
 14 36  1  0  0  0  0
 14 37  1  0  0  0  0
 14 38  1  0  0  0  0
M  END
> <id>
EN300-37108848

> <smiles>
CC(C)(C)OC(=O)N1CCOC=2C(C#C)=CN=CC2C1

> <IUPAC Name>
tert-butyl 9-ethynyl-2H,3H,4H,5H-pyrido[3,4-f][1,4]oxazepine-4-carboxylate

> <CAS>
2732245-73-5

> <URL>
https://www.enaminestore.com/catalog/EN300-37108848

> <ROCS_ShapeQuery>
_x0404_0B

> <ROCS_TanimotoCombo>
0.364 

> <ROCS_ShapeTanimoto>
0.305 

> <ROCS_ColorTanimoto>
0.059 

> <ROCS_RefTversky>
0.276 

> <ROCS_RefColorTversky>
0.064 

> <ROCS_RefTverskyCombo>
0.340 

> <ROCS_FitTversky>
1.529 

> <ROCS_FitColorTversky>
0.442 

> <ROCS_FitTverskyCombo>
1.971 

> <ROCS_ColorScore>
-4.613

> <ROCS_Overlap>
1838.973

> <ROCS_Rank>
477                 

$$$$
untitled-dbase-16530_30
  -OEChem-08212314543D

 38 39  0     0  0  0  0  0  0999 V2000
   -8.2516    3.7114  -15.4552 C   0  0  0  0  0  0  0  0  0  0  0  0
   -8.8345    4.9244  -15.8127 C   0  0  0  0  0  0  0  0  0  0  0  0
   -8.3709    4.3357  -13.1107 C   0  0  0  0  0  0  0  0  0  0  0  0
   -8.9426    5.5678  -13.4755 C   0  0  0  0  0  0  0  0  0  0  0  0
   -8.0213    3.4174  -14.1114 C   0  0  0  0  0  0  0  0  0  0  0  0
   -9.1829    5.8478  -14.8275 C   0  0  0  0  0  0  0  0  0  0  0  0
   -8.9047    4.6768   -9.3798 C   0  0  0  0  0  0  0  0  0  0  0  0
   -9.3486    6.5615  -12.4190 C   0  0  0  0  0  0  0  0  0  0  0  0
   -8.1107    3.9822  -11.6669 C   0  0  0  0  0  0  0  0  0  0  0  0
   -8.5339    6.3796  -11.1444 C   0  0  0  0  0  0  0  0  0  0  0  0
   -9.7526    3.5810   -6.8760 C   0  0  0  0  0  0  0  0  0  0  0  0
   -9.7030    1.3571   -8.0427 C   0  0  0  0  0  0  0  0  0  0  0  0
   -7.5862    2.6855   -7.7922 C   0  0  0  0  0  0  0  0  0  0  0  0
   -9.1000    2.7591   -7.9866 C   0  0  0  0  0  0  0  0  0  0  0  0
   -8.5782    4.9876  -10.7043 N   0  0  0  0  0  0  0  0  0  0  0  0
   -7.4286    2.1745  -13.7868 N   0  0  0  0  0  0  0  0  0  0  0  0
   -8.7880    5.4545   -8.4347 O   0  0  0  0  0  0  0  0  0  0  0  0
   -9.3683    3.3947   -9.2417 O   0  0  0  0  0  0  0  0  0  0  0  0
   -9.7509    7.0077  -15.1877 F   0  0  0  0  0  0  0  0  0  0  0  0
   -7.9778    3.0028  -16.2328 H   0  0  0  0  0  0  0  0  0  0  0  0
   -9.0165    5.1529  -16.8586 H   0  0  0  0  0  0  0  0  0  0  0  0
   -9.2099    7.5749  -12.8148 H   0  0  0  0  0  0  0  0  0  0  0  0
  -10.4104    6.4386  -12.1755 H   0  0  0  0  0  0  0  0  0  0  0  0
   -8.6355    3.0520  -11.4179 H   0  0  0  0  0  0  0  0  0  0  0  0
   -7.0367    3.8261  -11.5194 H   0  0  0  0  0  0  0  0  0  0  0  0
   -7.5018    6.7039  -11.3118 H   0  0  0  0  0  0  0  0  0  0  0  0
   -8.9409    6.9898  -10.3285 H   0  0  0  0  0  0  0  0  0  0  0  0
   -9.3225    4.5880   -6.8324 H   0  0  0  0  0  0  0  0  0  0  0  0
  -10.8339    3.6708   -7.0228 H   0  0  0  0  0  0  0  0  0  0  0  0
   -9.5730    3.1256   -5.8954 H   0  0  0  0  0  0  0  0  0  0  0  0
   -9.2377    0.7638   -8.8381 H   0  0  0  0  0  0  0  0  0  0  0  0
  -10.7729    1.4015   -8.2763 H   0  0  0  0  0  0  0  0  0  0  0  0
   -9.5770    0.8249   -7.0943 H   0  0  0  0  0  0  0  0  0  0  0  0
   -7.1179    2.0960   -8.5887 H   0  0  0  0  0  0  0  0  0  0  0  0
   -7.1315    3.6814   -7.7865 H   0  0  0  0  0  0  0  0  0  0  0  0
   -7.3382    2.1840   -6.8498 H   0  0  0  0  0  0  0  0  0  0  0  0
   -7.2356    1.5249  -14.5192 H   0  0  0  0  0  0  0  0  0  0  0  0
   -7.3031    1.9351  -12.8263 H   0  0  0  0  0  0  0  0  0  0  0  0
  1  2  2  0  0  0  0
  1  5  1  0  0  0  0
  2  6  1  0  0  0  0
  3  4  1  0  0  0  0
  3  5  2  0  0  0  0
  3  9  1  0  0  0  0
  4  6  2  0  0  0  0
  4  8  1  0  0  0  0
  5 16  1  0  0  0  0
  6 19  1  0  0  0  0
  7 15  1  0  0  0  0
  7 17  2  0  0  0  0
  7 18  1  0  0  0  0
  8 10  1  0  0  0  0
  9 15  1  0  0  0  0
 10 15  1  0  0  0  0
 11 14  1  0  0  0  0
 12 14  1  0  0  0  0
 13 14  1  0  0  0  0
 14 18  1  0  0  0  0
  1 20  1  0  0  0  0
  2 21  1  0  0  0  0
  8 22  1  0  0  0  0
  8 23  1  0  0  0  0
  9 24  1  0  0  0  0
  9 25  1  0  0  0  0
 10 26  1  0  0  0  0
 10 27  1  0  0  0  0
 11 28  1  0  0  0  0
 11 29  1  0  0  0  0
 11 30  1  0  0  0  0
 12 31  1  0  0  0  0
 12 32  1  0  0  0  0
 12 33  1  0  0  0  0
 13 34  1  0  0  0  0
 13 35  1  0  0  0  0
 13 36  1  0  0  0  0
 16 37  1  0  0  0  0
 16 38  1  0  0  0  0
M  END
> <id>
EN300-1295246

> <smiles>
CC(C)(C)OC(=O)N1CCC=2C(F)=CC=C(N)C2C1

> <IUPAC Name>
tert-butyl 8-amino-5-fluoro-1,2,3,4-tetrahydroisoquinoline-2-carboxylate

> <CAS>
2172440-12-7

> <URL>
https://www.enaminestore.com/catalog/EN300-1295246

> <ROCS_ShapeQuery>
_x0404_0B

> <ROCS_TanimotoCombo>
0.364 

> <ROCS_ShapeTanimoto>
0.272 

> <ROCS_ColorTanimoto>
0.092 

> <ROCS_RefTversky>
0.251 

> <ROCS_RefColorTversky>
0.096 

> <ROCS_RefTverskyCombo>
0.346 

> <ROCS_FitTversky>
1.446 

> <ROCS_FitColorTversky>
0.727 

> <ROCS_FitTverskyCombo>
2.174 

> <ROCS_ColorScore>
-6.897

> <ROCS_Overlap>
1670.706

> <ROCS_Rank>
478                 

$$$$
untitled-dbase-29184_2
  -OEChem-08212314543D

 37 38  0     0  0  0  0  0  0999 V2000
   -8.4773    5.9236   -8.0747 C   0  0  0  0  0  0  0  0  0  0  0  0
   -8.5272    6.4639   -9.3595 C   0  0  0  0  0  0  0  0  0  0  0  0
   -8.7018    4.5629   -7.8823 C   0  0  0  0  0  0  0  0  0  0  0  0
   -8.8039    5.6476  -10.4658 C   0  0  0  0  0  0  0  0  0  0  0  0
   -9.0478    4.2770  -10.2668 C   0  0  0  0  0  0  0  0  0  0  0  0
   -8.9816    3.7411   -8.9735 C   0  0  0  0  0  0  0  0  0  0  0  0
   -8.6661    5.5387  -14.2464 C   0  0  0  0  0  0  0  0  0  0  0  0
   -9.3229    3.3741  -11.4405 C   0  0  0  0  0  0  0  0  0  0  0  0
   -8.8463    6.2660  -11.8416 C   0  0  0  0  0  0  0  0  0  0  0  0
   -9.9119    4.1510  -12.6114 C   0  0  0  0  0  0  0  0  0  0  0  0
   -7.0731    4.8124  -16.5098 C   0  0  0  0  0  0  0  0  0  0  0  0
   -9.0305    3.3983  -17.2013 C   0  0  0  0  0  0  0  0  0  0  0  0
   -9.2887    5.8903  -17.0235 C   0  0  0  0  0  0  0  0  0  0  0  0
   -8.5920    4.6556  -16.4535 C   0  0  0  0  0  0  0  0  0  0  0  0
   -9.0772    5.3068  -12.9292 N   0  0  0  0  0  0  0  0  0  0  0  0
   -8.0796    6.5515  -14.6231 O   0  0  0  0  0  0  0  0  0  0  0  0
   -9.1822    2.4103   -8.7523 O   0  0  0  0  0  0  0  0  0  0  0  0
   -8.9839    4.5022  -15.0845 O   0  0  0  0  0  0  0  0  0  0  0  0
   -8.2587    6.5635   -7.2249 H   0  0  0  0  0  0  0  0  0  0  0  0
   -8.3444    7.5269   -9.4963 H   0  0  0  0  0  0  0  0  0  0  0  0
   -8.6549    4.1477   -6.8791 H   0  0  0  0  0  0  0  0  0  0  0  0
   -8.3865    2.8893  -11.7419 H   0  0  0  0  0  0  0  0  0  0  0  0
  -10.0342    2.5883  -11.1613 H   0  0  0  0  0  0  0  0  0  0  0  0
   -9.6679    6.9909  -11.8863 H   0  0  0  0  0  0  0  0  0  0  0  0
   -7.9071    6.7999  -12.0236 H   0  0  0  0  0  0  0  0  0  0  0  0
  -10.0155    3.4936  -13.4807 H   0  0  0  0  0  0  0  0  0  0  0  0
  -10.9117    4.5310  -12.3666 H   0  0  0  0  0  0  0  0  0  0  0  0
   -6.7543    5.7138  -15.9742 H   0  0  0  0  0  0  0  0  0  0  0  0
   -6.5619    3.9488  -16.0721 H   0  0  0  0  0  0  0  0  0  0  0  0
   -6.7302    4.9300  -17.5441 H   0  0  0  0  0  0  0  0  0  0  0  0
  -10.1196    3.2818  -17.1635 H   0  0  0  0  0  0  0  0  0  0  0  0
   -8.6077    2.5003  -16.7365 H   0  0  0  0  0  0  0  0  0  0  0  0
   -8.7208    3.4239  -18.2510 H   0  0  0  0  0  0  0  0  0  0  0  0
  -10.3782    5.7780  -16.9832 H   0  0  0  0  0  0  0  0  0  0  0  0
   -9.0143    6.7974  -16.4753 H   0  0  0  0  0  0  0  0  0  0  0  0
   -9.0311    6.0303  -18.0796 H   0  0  0  0  0  0  0  0  0  0  0  0
   -9.0960    2.2126   -7.8071 H   0  0  0  0  0  0  0  0  0  0  0  0
  1  2  1  0  0  0  0
  1  3  2  0  0  0  0
  2  4  2  0  0  0  0
  3  6  1  0  0  0  0
  4  5  1  0  0  0  0
  4  9  1  0  0  0  0
  5  6  2  0  0  0  0
  5  8  1  0  0  0  0
  6 17  1  0  0  0  0
  7 15  1  0  0  0  0
  7 16  2  0  0  0  0
  7 18  1  0  0  0  0
  8 10  1  0  0  0  0
  9 15  1  0  0  0  0
 10 15  1  0  0  0  0
 11 14  1  0  0  0  0
 12 14  1  0  0  0  0
 13 14  1  0  0  0  0
 14 18  1  0  0  0  0
  1 19  1  0  0  0  0
  2 20  1  0  0  0  0
  3 21  1  0  0  0  0
  8 22  1  0  0  0  0
  8 23  1  0  0  0  0
  9 24  1  0  0  0  0
  9 25  1  0  0  0  0
 10 26  1  0  0  0  0
 10 27  1  0  0  0  0
 11 28  1  0  0  0  0
 11 29  1  0  0  0  0
 11 30  1  0  0  0  0
 12 31  1  0  0  0  0
 12 32  1  0  0  0  0
 12 33  1  0  0  0  0
 13 34  1  0  0  0  0
 13 35  1  0  0  0  0
 13 36  1  0  0  0  0
 17 37  1  0  0  0  0
M  END
> <id>
EN300-128926

> <smiles>
CC(C)(C)OC(=O)N1CCC=2C(O)=CC=CC2C1

> <MDLNUMBER>
MFCD08275037

> <IUPAC Name>
tert-butyl 5-hydroxy-1,2,3,4-tetrahydroisoquinoline-2-carboxylate

> <CAS>
216064-48-1

> <Purity>
95

> <URL>
https://www.enaminestore.com/catalog/EN300-128926

> <MP>
156-158

> <ROCS_ShapeQuery>
_x0404_0B

> <ROCS_TanimotoCombo>
0.364 

> <ROCS_ShapeTanimoto>
0.292 

> <ROCS_ColorTanimoto>
0.072 

> <ROCS_RefTversky>
0.264 

> <ROCS_RefColorTversky>
0.076 

> <ROCS_RefTverskyCombo>
0.339 

> <ROCS_FitTversky>
1.583 

> <ROCS_FitColorTversky>
0.576 

> <ROCS_FitTverskyCombo>
2.159 

> <ROCS_ColorScore>
-5.462

> <ROCS_Overlap>
1758.051

> <ROCS_Rank>
479                 

$$$$
untitled-dbase-42634_118
  -OEChem-08212314543D

 43 45  0     1  0  0  0  0  0999 V2000
   -9.1650    3.0743  -10.1185 C   0  0  0  0  0  0  0  0  0  0  0  0
   -9.0013    2.0991   -9.1291 C   0  0  0  0  0  0  0  0  0  0  0  0
   -8.7745    3.8070   -7.4193 C   0  0  0  0  0  0  0  0  0  0  0  0
   -9.1398    4.4093   -9.7489 C   0  0  0  0  0  0  0  0  0  0  0  0
   -8.9241    4.7519   -8.4171 C   0  0  0  0  0  0  0  0  0  0  0  0
   -8.8143    2.4631   -7.7871 C   0  0  0  0  0  0  0  0  0  0  0  0
   -9.0090    5.7282  -14.3820 C   0  0  0  0  0  0  0  0  0  0  0  0
  -11.4803    5.1788  -11.6225 C   0  0  0  0  0  0  0  0  0  0  0  0
  -10.7158    4.7673  -12.8788 C   0  0  0  0  0  0  0  0  0  0  0  0
   -8.6053    5.7277  -11.9078 C   0  0  0  0  0  0  0  0  0  0  0  0
   -8.6798    6.6300   -9.5395 C   0  0  0  0  0  0  0  0  0  0  0  0
   -9.3339    5.6571  -10.5572 C   0  0  2  0  0  0  0  0  0  0  0  0
   -8.2682    3.7330  -16.2946 C   0  0  0  0  0  0  0  0  0  0  0  0
  -10.4001    4.3381  -17.4771 C   0  0  0  0  0  0  0  0  0  0  0  0
   -8.5920    6.0591  -17.1997 C   0  0  0  0  0  0  0  0  0  0  0  0
   -9.2778    4.8454  -16.5742 C   0  0  0  0  0  0  0  0  0  0  0  0
  -10.7453    6.0426  -10.7011 N   0  0  0  0  0  0  0  0  0  0  0  0
   -9.4584    5.4778  -13.0773 N   0  0  0  0  0  0  0  0  0  0  0  0
   -7.9654    6.3176  -14.6565 O   0  0  0  0  0  0  0  0  0  0  0  0
   -8.8709    6.1065   -8.2046 O   0  0  0  0  0  0  0  0  0  0  0  0
   -9.8702    5.2456  -15.3332 O   0  0  0  0  0  0  0  0  0  0  0  0
   -8.6089    1.1209   -6.4715 Br  0  0  0  0  0  0  0  0  0  0  0  0
   -9.2994    2.7807  -11.1565 H   0  0  0  0  0  0  0  0  0  0  0  0
   -9.0132    1.0510   -9.4213 H   0  0  0  0  0  0  0  0  0  0  0  0
   -8.6352    4.1123   -6.3878 H   0  0  0  0  0  0  0  0  0  0  0  0
  -12.4394    5.6616  -11.9114 H   0  0  0  0  0  0  0  0  0  0  0  0
  -11.7806    4.2613  -11.0749 H   0  0  0  0  0  0  0  0  0  0  0  0
  -10.4688    3.6857  -12.8379 H   0  0  0  0  0  0  0  0  0  0  0  0
  -11.3702    4.8876  -13.7662 H   0  0  0  0  0  0  0  0  0  0  0  0
   -8.0782    6.6994  -12.0177 H   0  0  0  0  0  0  0  0  0  0  0  0
   -7.7959    4.9661  -11.9581 H   0  0  0  0  0  0  0  0  0  0  0  0
   -7.6091    6.7701   -9.7178 H   0  0  0  0  0  0  0  0  0  0  0  0
   -9.1493    7.6221   -9.5584 H   0  0  0  0  0  0  0  0  0  0  0  0
   -7.4611    4.0932  -15.6467 H   0  0  0  0  0  0  0  0  0  0  0  0
   -8.7412    2.8704  -15.8140 H   0  0  0  0  0  0  0  0  0  0  0  0
   -7.7924    3.3946  -17.2222 H   0  0  0  0  0  0  0  0  0  0  0  0
  -11.1268    5.1329  -17.6803 H   0  0  0  0  0  0  0  0  0  0  0  0
  -10.9562    3.5283  -16.9911 H   0  0  0  0  0  0  0  0  0  0  0  0
  -10.0141    3.9687  -18.4327 H   0  0  0  0  0  0  0  0  0  0  0  0
   -9.3160    6.8571  -17.4003 H   0  0  0  0  0  0  0  0  0  0  0  0
   -7.8080    6.4594  -16.5487 H   0  0  0  0  0  0  0  0  0  0  0  0
   -8.1435    5.7986  -18.1652 H   0  0  0  0  0  0  0  0  0  0  0  0
  -10.8111    7.0095  -11.0241 H   0  0  0  0  0  0  0  0  0  0  0  0
  1  2  1  0  0  0  0
  1  4  2  0  0  0  0
  2  6  2  0  0  0  0
  3  5  2  0  0  0  0
  3  6  1  0  0  0  0
  4  5  1  0  0  0  0
  4 12  1  0  0  0  0
  5 20  1  0  0  0  0
  6 22  1  0  0  0  0
  7 18  1  0  0  0  0
  7 19  2  0  0  0  0
  7 21  1  0  0  0  0
  8  9  1  0  0  0  0
  8 17  1  0  0  0  0
  9 18  1  0  0  0  0
 10 12  1  0  0  0  0
 10 18  1  0  0  0  0
 11 12  1  0  0  0  0
 11 20  1  0  0  0  0
 12 17  1  0  0  0  0
 13 16  1  0  0  0  0
 14 16  1  0  0  0  0
 15 16  1  0  0  0  0
 16 21  1  0  0  0  0
  1 23  1  0  0  0  0
  2 24  1  0  0  0  0
  3 25  1  0  0  0  0
  8 26  1  0  0  0  0
  8 27  1  0  0  0  0
  9 28  1  0  0  0  0
  9 29  1  0  0  0  0
 10 30  1  0  0  0  0
 10 31  1  0  0  0  0
 11 32  1  0  0  0  0
 11 33  1  0  0  0  0
 13 34  1  0  0  0  0
 13 35  1  0  0  0  0
 13 36  1  0  0  0  0
 14 37  1  0  0  0  0
 14 38  1  0  0  0  0
 14 39  1  0  0  0  0
 15 40  1  0  0  0  0
 15 41  1  0  0  0  0
 15 42  1  0  0  0  0
 17 43  1  0  0  0  0
M  END
> <id>
EN300-21631243

> <smiles>
CC(C)(C)OC(=O)N1CCNC2(COC=3C=C(Br)C=CC32)C1

> <MDLNUMBER>
MFCD29043226

> <IUPAC Name>
tert-butyl 6-bromo-2H-spiro[1-benzofuran-3,2'-piperazine]-4'-carboxylate

> <CAS>
2385452-55-9

> <URL>
https://www.enaminestore.com/catalog/EN300-21631243

> <ROCS_ShapeQuery>
_x0404_0B

> <ROCS_TanimotoCombo>
0.364 

> <ROCS_ShapeTanimoto>
0.298 

> <ROCS_ColorTanimoto>
0.066 

> <ROCS_RefTversky>
0.274 

> <ROCS_RefColorTversky>
0.073 

> <ROCS_RefTverskyCombo>
0.346 

> <ROCS_FitTversky>
1.418 

> <ROCS_FitColorTversky>
0.425 

> <ROCS_FitTverskyCombo>
1.843 

> <ROCS_ColorScore>
-5.247

> <ROCS_Overlap>
1826.815

> <ROCS_Rank>
480                 

$$$$
untitled-dbase-21572_262
  -OEChem-08212314543D

 41 42  0     0  0  0  0  0  0999 V2000
   -8.6291    5.7709  -14.3611 C   0  0  0  0  0  0  0  0  0  0  0  0
   -9.2922    3.6813  -11.4113 C   0  0  0  0  0  0  0  0  0  0  0  0
   -8.6286    6.0229  -10.5861 C   0  0  0  0  0  0  0  0  0  0  0  0
   -9.7725    4.4082   -8.9468 C   0  0  0  0  0  0  0  0  0  0  0  0
   -7.7142    3.9135   -9.3657 C   0  0  0  0  0  0  0  0  0  0  0  0
   -9.8125    4.5347  -12.5623 C   0  0  0  0  0  0  0  0  0  0  0  0
   -7.9822    6.1302  -11.9606 C   0  0  0  0  0  0  0  0  0  0  0  0
   -8.7407    3.4593   -8.3155 C   0  0  0  0  0  0  0  0  0  0  0  0
   -8.8660    4.5517  -10.2117 C   0  0  0  0  0  0  0  0  0  0  0  0
   -7.3424    5.2405  -16.8608 C   0  0  0  0  0  0  0  0  0  0  0  0
   -9.1873    3.5805  -17.2481 C   0  0  0  0  0  0  0  0  0  0  0  0
   -9.7319    6.0193  -16.9959 C   0  0  0  0  0  0  0  0  0  0  0  0
   -8.7993    4.8890  -16.5630 C   0  0  0  0  0  0  0  0  0  0  0  0
   -8.8015    5.4985  -13.0009 N   0  0  0  0  0  0  0  0  0  0  0  0
   -9.1275    2.0785   -8.5961 N   0  0  0  0  0  0  0  0  0  0  0  0
   -8.2461    6.8493  -14.8103 O   0  0  0  0  0  0  0  0  0  0  0  0
   -8.9420    4.6956  -15.1511 O   0  0  0  0  0  0  0  0  0  0  0  0
  -10.0688    2.9605  -11.1103 H   0  0  0  0  0  0  0  0  0  0  0  0
   -8.4344    3.0805  -11.7551 H   0  0  0  0  0  0  0  0  0  0  0  0
   -7.9755    6.4948   -9.8383 H   0  0  0  0  0  0  0  0  0  0  0  0
   -9.5685    6.5904  -10.5821 H   0  0  0  0  0  0  0  0  0  0  0  0
  -10.7626    3.9615   -9.1584 H   0  0  0  0  0  0  0  0  0  0  0  0
   -9.9579    5.3344   -8.3770 H   0  0  0  0  0  0  0  0  0  0  0  0
   -6.9491    4.6160   -8.9971 H   0  0  0  0  0  0  0  0  0  0  0  0
   -7.1778    3.1015   -9.8898 H   0  0  0  0  0  0  0  0  0  0  0  0
  -10.1201    3.8915  -13.3931 H   0  0  0  0  0  0  0  0  0  0  0  0
  -10.6912    5.1119  -12.2506 H   0  0  0  0  0  0  0  0  0  0  0  0
   -7.8610    7.1838  -12.2523 H   0  0  0  0  0  0  0  0  0  0  0  0
   -6.9754    5.6948  -11.9270 H   0  0  0  0  0  0  0  0  0  0  0  0
   -8.4775    3.6701   -7.2724 H   0  0  0  0  0  0  0  0  0  0  0  0
   -7.0600    6.1792  -16.3707 H   0  0  0  0  0  0  0  0  0  0  0  0
   -6.6604    4.4533  -16.5233 H   0  0  0  0  0  0  0  0  0  0  0  0
   -7.1890    5.3944  -17.9350 H   0  0  0  0  0  0  0  0  0  0  0  0
  -10.2318    3.3244  -17.0372 H   0  0  0  0  0  0  0  0  0  0  0  0
   -8.5830    2.7479  -16.8702 H   0  0  0  0  0  0  0  0  0  0  0  0
   -9.0570    3.6387  -18.3336 H   0  0  0  0  0  0  0  0  0  0  0  0
  -10.7770    5.7674  -16.7824 H   0  0  0  0  0  0  0  0  0  0  0  0
   -9.4917    6.9580  -16.4862 H   0  0  0  0  0  0  0  0  0  0  0  0
   -9.6684    6.1842  -18.0776 H   0  0  0  0  0  0  0  0  0  0  0  0
   -8.3660    1.4844   -8.3616 H   0  0  0  0  0  0  0  0  0  0  0  0
   -9.9239    1.8570   -8.0444 H   0  0  0  0  0  0  0  0  0  0  0  0
  1 14  1  0  0  0  0
  1 16  2  0  0  0  0
  1 17  1  0  0  0  0
  2  6  1  0  0  0  0
  2  9  1  0  0  0  0
  3  7  1  0  0  0  0
  3  9  1  0  0  0  0
  4  8  1  0  0  0  0
  4  9  1  0  0  0  0
  5  8  1  0  0  0  0
  5  9  1  0  0  0  0
  6 14  1  0  0  0  0
  7 14  1  0  0  0  0
  8 15  1  0  0  0  0
 10 13  1  0  0  0  0
 11 13  1  0  0  0  0
 12 13  1  0  0  0  0
 13 17  1  0  0  0  0
  2 18  1  0  0  0  0
  2 19  1  0  0  0  0
  3 20  1  0  0  0  0
  3 21  1  0  0  0  0
  4 22  1  0  0  0  0
  4 23  1  0  0  0  0
  5 24  1  0  0  0  0
  5 25  1  0  0  0  0
  6 26  1  0  0  0  0
  6 27  1  0  0  0  0
  7 28  1  0  0  0  0
  7 29  1  0  0  0  0
  8 30  1  0  0  0  0
 10 31  1  0  0  0  0
 10 32  1  0  0  0  0
 10 33  1  0  0  0  0
 11 34  1  0  0  0  0
 11 35  1  0  0  0  0
 11 36  1  0  0  0  0
 12 37  1  0  0  0  0
 12 38  1  0  0  0  0
 12 39  1  0  0  0  0
 15 40  1  0  0  0  0
 15 41  1  0  0  0  0
M  END
> <id>
EN300-64079

> <smiles>
CC(C)(C)OC(=O)N1CCC2(CC(N)C2)CC1

> <MDLNUMBER>
MFCD14581153

> <IUPAC Name>
tert-butyl 2-amino-7-azaspiro[3.5]nonane-7-carboxylate

> <CAS>
1239319-82-4

> <Purity>
95

> <URL>
https://www.enaminestore.com/catalog/EN300-64079

> <ROCS_ShapeQuery>
_x0404_0B

> <ROCS_TanimotoCombo>
0.364 

> <ROCS_ShapeTanimoto>
0.281 

> <ROCS_ColorTanimoto>
0.083 

> <ROCS_RefTversky>
0.254 

> <ROCS_RefColorTversky>
0.087 

> <ROCS_RefTverskyCombo>
0.340 

> <ROCS_FitTversky>
1.614 

> <ROCS_FitColorTversky>
0.658 

> <ROCS_FitTverskyCombo>
2.272 

> <ROCS_ColorScore>
-6.238

> <ROCS_Overlap>
1691.344

> <ROCS_Rank>
481                 

$$$$
untitled-dbase-45505_38
  -OEChem-08212314543D

 40 42  0     0  0  0  0  0  0999 V2000
   -7.3700    6.5591  -16.7765 C   0  0  0  0  0  0  0  0  0  0  0  0
   -7.4859    6.9256  -15.4308 C   0  0  0  0  0  0  0  0  0  0  0  0
   -7.8391    5.3253  -17.2224 C   0  0  0  0  0  0  0  0  0  0  0  0
   -8.0863    6.0309  -14.5223 C   0  0  0  0  0  0  0  0  0  0  0  0
   -8.3646    6.0643  -13.1288 C   0  0  0  0  0  0  0  0  0  0  0  0
   -8.5475    4.7982  -14.9980 C   0  0  0  0  0  0  0  0  0  0  0  0
   -8.4374    4.4204  -16.3412 C   0  0  0  0  0  0  0  0  0  0  0  0
   -8.9719    4.8722  -12.7954 C   0  0  0  0  0  0  0  0  0  0  0  0
   -8.7468    5.1460   -9.1178 C   0  0  0  0  0  0  0  0  0  0  0  0
   -8.0939    7.1077  -12.1031 C   0  0  0  0  0  0  0  0  0  0  0  0
   -9.4487    4.4657  -11.4492 C   0  0  0  0  0  0  0  0  0  0  0  0
   -9.0001    6.8882  -10.8795 C   0  0  0  0  0  0  0  0  0  0  0  0
  -10.5546    3.4536   -8.2506 C   0  0  0  0  0  0  0  0  0  0  0  0
   -8.9401    1.5784   -8.6820 C   0  0  0  0  0  0  0  0  0  0  0  0
   -8.5954    3.0970   -6.7115 C   0  0  0  0  0  0  0  0  0  0  0  0
   -9.0984    3.0015   -8.1511 C   0  0  0  0  0  0  0  0  0  0  0  0
   -9.0835    4.1152  -13.9264 N   0  0  0  0  0  0  0  0  0  0  0  0
   -9.0126    5.4729  -10.4528 N   0  0  0  0  0  0  0  0  0  0  0  0
   -8.8993    5.9154   -8.1709 O   0  0  0  0  0  0  0  0  0  0  0  0
   -8.2977    3.8597   -8.9718 O   0  0  0  0  0  0  0  0  0  0  0  0
   -9.0649    2.7543  -16.9689 Br  0  0  0  0  0  0  0  0  0  0  0  0
   -6.9079    7.2462  -17.4806 H   0  0  0  0  0  0  0  0  0  0  0  0
   -7.1152    7.8910  -15.0981 H   0  0  0  0  0  0  0  0  0  0  0  0
   -7.7308    5.0760  -18.2759 H   0  0  0  0  0  0  0  0  0  0  0  0
   -7.0416    7.0516  -11.7998 H   0  0  0  0  0  0  0  0  0  0  0  0
   -8.2705    8.1073  -12.5149 H   0  0  0  0  0  0  0  0  0  0  0  0
  -10.5432    4.4361  -11.4202 H   0  0  0  0  0  0  0  0  0  0  0  0
   -9.0645    3.4758  -11.1859 H   0  0  0  0  0  0  0  0  0  0  0  0
   -8.6789    7.5390  -10.0600 H   0  0  0  0  0  0  0  0  0  0  0  0
  -10.0379    7.1525  -11.1192 H   0  0  0  0  0  0  0  0  0  0  0  0
  -10.6725    4.4747   -7.8705 H   0  0  0  0  0  0  0  0  0  0  0  0
  -10.9168    3.4230   -9.2834 H   0  0  0  0  0  0  0  0  0  0  0  0
  -11.2040    2.8185   -7.6372 H   0  0  0  0  0  0  0  0  0  0  0  0
   -7.8968    1.2499   -8.6126 H   0  0  0  0  0  0  0  0  0  0  0  0
   -9.2104    1.5252   -9.7428 H   0  0  0  0  0  0  0  0  0  0  0  0
   -9.5644    0.8691   -8.1291 H   0  0  0  0  0  0  0  0  0  0  0  0
   -7.5509    2.7728   -6.6398 H   0  0  0  0  0  0  0  0  0  0  0  0
   -8.6671    4.1193   -6.3262 H   0  0  0  0  0  0  0  0  0  0  0  0
   -9.1703    2.4357   -6.0532 H   0  0  0  0  0  0  0  0  0  0  0  0
   -9.4946    3.1931  -13.9755 H   0  0  0  0  0  0  0  0  0  0  0  0
  1  2  1  0  0  0  0
  1  3  2  0  0  0  0
  2  4  2  0  0  0  0
  3  7  1  0  0  0  0
  4  5  1  0  0  0  0
  4  6  1  0  0  0  0
  5  8  2  0  0  0  0
  5 10  1  0  0  0  0
  6  7  2  0  0  0  0
  6 17  1  0  0  0  0
  7 21  1  0  0  0  0
  8 11  1  0  0  0  0
  8 17  1  0  0  0  0
  9 18  1  0  0  0  0
  9 19  2  0  0  0  0
  9 20  1  0  0  0  0
 10 12  1  0  0  0  0
 11 18  1  0  0  0  0
 12 18  1  0  0  0  0
 13 16  1  0  0  0  0
 14 16  1  0  0  0  0
 15 16  1  0  0  0  0
 16 20  1  0  0  0  0
  1 22  1  0  0  0  0
  2 23  1  0  0  0  0
  3 24  1  0  0  0  0
 10 25  1  0  0  0  0
 10 26  1  0  0  0  0
 11 27  1  0  0  0  0
 11 28  1  0  0  0  0
 12 29  1  0  0  0  0
 12 30  1  0  0  0  0
 13 31  1  0  0  0  0
 13 32  1  0  0  0  0
 13 33  1  0  0  0  0
 14 34  1  0  0  0  0
 14 35  1  0  0  0  0
 14 36  1  0  0  0  0
 15 37  1  0  0  0  0
 15 38  1  0  0  0  0
 15 39  1  0  0  0  0
 17 40  1  0  0  0  0
M  END
> <id>
EN300-28298603

> <smiles>
CC(C)(C)OC(=O)N1CCC2=C(C1)NC=3C(Br)=CC=CC23

> <MDLNUMBER>
MFCD32206959

> <IUPAC Name>
tert-butyl 8-bromo-1H,2H,3H,4H,9H-pyrido[3,4-b]indole-2-carboxylate

> <CAS>
1234687-92-3

> <URL>
https://www.enaminestore.com/catalog/EN300-28298603

> <ROCS_ShapeQuery>
_x0404_0B

> <ROCS_TanimotoCombo>
0.364 

> <ROCS_ShapeTanimoto>
0.317 

> <ROCS_ColorTanimoto>
0.046 

> <ROCS_RefTversky>
0.286 

> <ROCS_RefColorTversky>
0.051 

> <ROCS_RefTverskyCombo>
0.337 

> <ROCS_FitTversky>
1.527 

> <ROCS_FitColorTversky>
0.350 

> <ROCS_FitTverskyCombo>
1.877 

> <ROCS_ColorScore>
-3.658

> <ROCS_Overlap>
1909.217

> <ROCS_Rank>
482                 

$$$$
untitled-dbase-37669_98
  -OEChem-08212314543D

 41 43  0     0  0  0  0  0  0999 V2000
   -9.0468    1.9954   -8.7537 C   0  0  0  0  0  0  0  0  0  0  0  0
   -8.9093    2.9075   -9.8030 C   0  0  0  0  0  0  0  0  0  0  0  0
   -9.2024    2.4449   -7.4366 C   0  0  0  0  0  0  0  0  0  0  0  0
   -8.9211    4.2731   -9.5310 C   0  0  0  0  0  0  0  0  0  0  0  0
   -9.0576    4.7037   -8.2012 C   0  0  0  0  0  0  0  0  0  0  0  0
   -9.2165    3.8103   -7.1534 C   0  0  0  0  0  0  0  0  0  0  0  0
   -8.6930    4.7808  -13.7791 C   0  0  0  0  0  0  0  0  0  0  0  0
   -8.7897    6.6742   -9.4295 C   0  0  0  0  0  0  0  0  0  0  0  0
   -7.7123    5.5696  -11.5527 C   0  0  0  0  0  0  0  0  0  0  0  0
   -9.8481    5.6695  -11.6153 C   0  0  0  0  0  0  0  0  0  0  0  0
   -8.8143    5.5187  -10.4709 C   0  0  0  0  0  0  0  0  0  0  0  0
   -8.1413    7.1334  -15.4426 C   0  0  0  0  0  0  0  0  0  0  0  0
   -6.1628    5.8217  -16.2637 C   0  0  0  0  0  0  0  0  0  0  0  0
   -8.4890    4.9836  -16.7045 C   0  0  0  0  0  0  0  0  0  0  0  0
   -7.5895    5.7369  -15.7256 C   0  0  0  0  0  0  0  0  0  0  0  0
   -9.0923    6.0962   -8.1171 N   0  0  0  0  0  0  0  0  0  0  0  0
   -8.7680    5.3383  -12.5252 N   0  0  0  0  0  0  0  0  0  0  0  0
   -9.3846    4.2569   -5.8295 N   0  0  0  0  0  0  0  0  0  0  0  0
   -9.6222    4.1561  -14.2901 O   0  0  0  0  0  0  0  0  0  0  0  0
   -7.5434    5.0045  -14.4903 O   0  0  0  0  0  0  0  0  0  0  0  0
   -9.0404    0.9289   -8.9616 H   0  0  0  0  0  0  0  0  0  0  0  0
   -8.8006    2.5516  -10.8225 H   0  0  0  0  0  0  0  0  0  0  0  0
   -9.3164    1.7150   -6.6385 H   0  0  0  0  0  0  0  0  0  0  0  0
   -7.7948    7.1352   -9.3822 H   0  0  0  0  0  0  0  0  0  0  0  0
   -9.5153    7.4613   -9.6655 H   0  0  0  0  0  0  0  0  0  0  0  0
   -7.1989    6.5261  -11.6822 H   0  0  0  0  0  0  0  0  0  0  0  0
   -6.9813    4.7552  -11.5376 H   0  0  0  0  0  0  0  0  0  0  0  0
  -10.6515    4.9257  -11.6399 H   0  0  0  0  0  0  0  0  0  0  0  0
  -10.2656    6.6692  -11.7649 H   0  0  0  0  0  0  0  0  0  0  0  0
   -9.1653    7.0768  -15.0563 H   0  0  0  0  0  0  0  0  0  0  0  0
   -7.5244    7.6712  -14.7153 H   0  0  0  0  0  0  0  0  0  0  0  0
   -8.1903    7.7281  -16.3619 H   0  0  0  0  0  0  0  0  0  0  0  0
   -5.7628    4.8219  -16.4681 H   0  0  0  0  0  0  0  0  0  0  0  0
   -5.4934    6.2768  -15.5247 H   0  0  0  0  0  0  0  0  0  0  0  0
   -6.1129    6.4102  -17.1855 H   0  0  0  0  0  0  0  0  0  0  0  0
   -8.0934    3.9819  -16.9076 H   0  0  0  0  0  0  0  0  0  0  0  0
   -9.5083    4.8808  -16.3182 H   0  0  0  0  0  0  0  0  0  0  0  0
   -8.5330    5.5003  -17.6700 H   0  0  0  0  0  0  0  0  0  0  0  0
   -8.9522    6.5919   -7.2466 H   0  0  0  0  0  0  0  0  0  0  0  0
   -9.3456    5.2383   -5.6337 H   0  0  0  0  0  0  0  0  0  0  0  0
   -9.4463    3.5853   -5.0891 H   0  0  0  0  0  0  0  0  0  0  0  0
  1  2  2  0  0  0  0
  1  3  1  0  0  0  0
  2  4  1  0  0  0  0
  3  6  2  0  0  0  0
  4  5  2  0  0  0  0
  4 11  1  0  0  0  0
  5  6  1  0  0  0  0
  5 16  1  0  0  0  0
  6 18  1  0  0  0  0
  7 17  1  0  0  0  0
  7 19  2  0  0  0  0
  7 20  1  0  0  0  0
  8 11  1  0  0  0  0
  8 16  1  0  0  0  0
  9 11  1  0  0  0  0
  9 17  1  0  0  0  0
 10 11  1  0  0  0  0
 10 17  1  0  0  0  0
 12 15  1  0  0  0  0
 13 15  1  0  0  0  0
 14 15  1  0  0  0  0
 15 20  1  0  0  0  0
  1 21  1  0  0  0  0
  2 22  1  0  0  0  0
  3 23  1  0  0  0  0
  8 24  1  0  0  0  0
  8 25  1  0  0  0  0
  9 26  1  0  0  0  0
  9 27  1  0  0  0  0
 10 28  1  0  0  0  0
 10 29  1  0  0  0  0
 12 30  1  0  0  0  0
 12 31  1  0  0  0  0
 12 32  1  0  0  0  0
 13 33  1  0  0  0  0
 13 34  1  0  0  0  0
 13 35  1  0  0  0  0
 14 36  1  0  0  0  0
 14 37  1  0  0  0  0
 14 38  1  0  0  0  0
 16 39  1  0  0  0  0
 18 40  1  0  0  0  0
 18 41  1  0  0  0  0
M  END
> <id>
EN300-338942

> <smiles>
CC(C)(C)OC(=O)N1CC2(C1)CNC=3C2=CC=CC3N

> <MDLNUMBER>
MFCD30499982

> <IUPAC Name>
tert-butyl 7'-amino-1',2'-dihydrospiro[azetidine-3,3'-indole]-1-carboxylate

> <CAS>
2059939-35-2

> <URL>
https://www.enaminestore.com/catalog/EN300-338942

> <ROCS_ShapeQuery>
_x0404_0B

> <ROCS_TanimotoCombo>
0.364 

> <ROCS_ShapeTanimoto>
0.306 

> <ROCS_ColorTanimoto>
0.058 

> <ROCS_RefTversky>
0.277 

> <ROCS_RefColorTversky>
0.063 

> <ROCS_RefTverskyCombo>
0.340 

> <ROCS_FitTversky>
1.525 

> <ROCS_FitColorTversky>
0.402 

> <ROCS_FitTverskyCombo>
1.927 

> <ROCS_ColorScore>
-4.581

> <ROCS_Overlap>
1845.015

> <ROCS_Rank>
483                 

$$$$
untitled-dbase-31997_165
  -OEChem-08212314543D

 40 41  0     0  0  0  0  0  0999 V2000
   -8.4955    5.7014  -14.4064 C   0  0  0  0  0  0  0  0  0  0  0  0
   -9.0231    3.7600  -11.2299 C   0  0  0  0  0  0  0  0  0  0  0  0
   -8.6224    6.2493  -10.7438 C   0  0  0  0  0  0  0  0  0  0  0  0
   -8.2126    4.1141  -12.4714 C   0  0  0  0  0  0  0  0  0  0  0  0
   -9.2246    6.3770  -12.1361 C   0  0  0  0  0  0  0  0  0  0  0  0
   -7.9000    4.5151   -8.9982 C   0  0  0  0  0  0  0  0  0  0  0  0
  -10.1078    4.8414   -9.1450 C   0  0  0  0  0  0  0  0  0  0  0  0
   -8.9041    4.8571  -10.1496 C   0  0  0  0  0  0  0  0  0  0  0  0
   -7.0339    5.4691  -16.8547 C   0  0  0  0  0  0  0  0  0  0  0  0
   -8.4720    3.4602  -17.3078 C   0  0  0  0  0  0  0  0  0  0  0  0
   -9.5271    5.7281  -17.0812 C   0  0  0  0  0  0  0  0  0  0  0  0
   -8.3941    4.8170  -16.6112 C   0  0  0  0  0  0  0  0  0  0  0  0
   -9.1566    4.6444   -6.7281 N   0  0  0  0  0  0  0  0  0  0  0  0
   -8.6431    5.3924  -13.0510 N   0  0  0  0  0  0  0  0  0  0  0  0
   -8.3318    6.8391  -14.8431 O   0  0  0  0  0  0  0  0  0  0  0  0
   -9.3894    2.4125   -8.2547 O   0  0  0  0  0  0  0  0  0  0  0  0
   -8.5453    4.5895  -15.2053 O   0  0  0  0  0  0  0  0  0  0  0  0
   -9.2002    3.8268   -8.0241 S   0  0  0  0  0  0  0  0  0  0  0  0
  -10.0708    3.5995  -11.5164 H   0  0  0  0  0  0  0  0  0  0  0  0
   -8.6640    2.8029  -10.8232 H   0  0  0  0  0  0  0  0  0  0  0  0
   -7.5370    6.4193  -10.7960 H   0  0  0  0  0  0  0  0  0  0  0  0
   -9.0303    7.0372  -10.0953 H   0  0  0  0  0  0  0  0  0  0  0  0
   -7.1466    4.1299  -12.2194 H   0  0  0  0  0  0  0  0  0  0  0  0
   -8.3441    3.3542  -13.2531 H   0  0  0  0  0  0  0  0  0  0  0  0
  -10.3051    6.1924  -12.1128 H   0  0  0  0  0  0  0  0  0  0  0  0
   -9.0737    7.3926  -12.5157 H   0  0  0  0  0  0  0  0  0  0  0  0
   -7.1216    3.7914   -9.2535 H   0  0  0  0  0  0  0  0  0  0  0  0
   -7.4228    5.3816   -8.5289 H   0  0  0  0  0  0  0  0  0  0  0  0
  -10.3727    5.8187   -8.7275 H   0  0  0  0  0  0  0  0  0  0  0  0
  -11.0226    4.3650   -9.5068 H   0  0  0  0  0  0  0  0  0  0  0  0
   -6.9740    6.4433  -16.3563 H   0  0  0  0  0  0  0  0  0  0  0  0
   -6.2144    4.8411  -16.4902 H   0  0  0  0  0  0  0  0  0  0  0  0
   -6.8764    5.6582  -17.9227 H   0  0  0  0  0  0  0  0  0  0  0  0
   -9.4463    2.9887  -17.1358 H   0  0  0  0  0  0  0  0  0  0  0  0
   -7.7204    2.7713  -16.9057 H   0  0  0  0  0  0  0  0  0  0  0  0
   -8.3166    3.5510  -18.3877 H   0  0  0  0  0  0  0  0  0  0  0  0
  -10.5029    5.2606  -16.9067 H   0  0  0  0  0  0  0  0  0  0  0  0
   -9.5091    6.6933  -16.5647 H   0  0  0  0  0  0  0  0  0  0  0  0
   -9.4595    5.9091  -18.1601 H   0  0  0  0  0  0  0  0  0  0  0  0
   -9.8603    4.3703   -6.0364 H   0  0  0  0  0  0  0  0  0  0  0  0
  1 14  1  0  0  0  0
  1 15  2  0  0  0  0
  1 17  1  0  0  0  0
  2  4  1  0  0  0  0
  2  8  1  0  0  0  0
  3  5  1  0  0  0  0
  3  8  1  0  0  0  0
  4 14  1  0  0  0  0
  5 14  1  0  0  0  0
  6  8  1  0  0  0  0
  6 18  1  0  0  0  0
  7  8  1  0  0  0  0
  7 18  1  0  0  0  0
  9 12  1  0  0  0  0
 10 12  1  0  0  0  0
 11 12  1  0  0  0  0
 12 17  1  0  0  0  0
 13 18  2  0  0  0  0
 16 18  2  0  0  0  0
  2 19  1  0  0  0  0
  2 20  1  0  0  0  0
  3 21  1  0  0  0  0
  3 22  1  0  0  0  0
  4 23  1  0  0  0  0
  4 24  1  0  0  0  0
  5 25  1  0  0  0  0
  5 26  1  0  0  0  0
  6 27  1  0  0  0  0
  6 28  1  0  0  0  0
  7 29  1  0  0  0  0
  7 30  1  0  0  0  0
  9 31  1  0  0  0  0
  9 32  1  0  0  0  0
  9 33  1  0  0  0  0
 10 34  1  0  0  0  0
 10 35  1  0  0  0  0
 10 36  1  0  0  0  0
 11 37  1  0  0  0  0
 11 38  1  0  0  0  0
 11 39  1  0  0  0  0
 13 40  1  0  0  0  0
M  END
> <id>
EN300-7494124

> <smiles>
CC(C)(C)OC(=O)N1CCC2(CS(=N)(=O)C2)CC1

> <MDLNUMBER>
MFCD32692015

> <IUPAC Name>
tert-butyl 2-imino-2-oxo-2lambda6-thia-7-azaspiro[3.5]nonane-7-carboxylate

> <CAS>
2445792-22-1

> <Purity>
95

> <URL>
https://www.enaminestore.com/catalog/EN300-7494124

> <ROCS_ShapeQuery>
_x0404_0B

> <ROCS_TanimotoCombo>
0.364 

> <ROCS_ShapeTanimoto>
0.302 

> <ROCS_ColorTanimoto>
0.062 

> <ROCS_RefTversky>
0.269 

> <ROCS_RefColorTversky>
0.065 

> <ROCS_RefTverskyCombo>
0.334 

> <ROCS_FitTversky>
1.667 

> <ROCS_FitColorTversky>
0.552 

> <ROCS_FitTverskyCombo>
2.219 

> <ROCS_ColorScore>
-4.712

> <ROCS_Overlap>
1793.000

> <ROCS_Rank>
484                 

$$$$
untitled-dbase-14546_31
  -OEChem-08212314543D

 49 52  0     1  0  0  0  0  0999 V2000
   -9.1368    1.3114   -8.1064 C   0  0  0  0  0  0  0  0  0  0  0  0
   -7.8685    1.4231   -9.7974 C   0  0  0  0  0  0  0  0  0  0  0  0
   -8.5864    2.5971   -9.8044 C   0  0  0  0  0  0  0  0  0  0  0  0
   -8.9532    5.4037  -14.2760 C   0  0  0  0  0  0  0  0  0  0  0  0
   -6.8575    1.1090  -10.8277 C   0  0  0  0  0  0  0  0  0  0  0  0
   -9.5499    6.5311  -10.8640 C   0  0  0  0  0  0  0  0  0  0  0  0
   -7.7633    4.9540  -10.1245 C   0  0  0  0  0  0  0  0  0  0  0  0
   -9.8567    4.1124  -11.3659 C   0  0  0  0  0  0  0  0  0  0  0  0
   -6.4534    2.4069  -11.5585 C   0  0  0  0  0  0  0  0  0  0  0  0
   -7.6746    6.3338  -12.2952 C   0  0  0  0  0  0  0  0  0  0  0  0
   -8.0360    6.3145  -10.8062 C   0  0  1  0  0  0  0  0  0  0  0  0
   -9.9144    5.5343  -11.9608 C   0  0  2  0  0  0  0  0  0  0  0  0
   -8.4521    3.7198  -10.7959 C   0  0  2  0  0  0  0  0  0  0  0  0
   -8.8628    5.1611  -17.1216 C   0  0  0  0  0  0  0  0  0  0  0  0
   -6.8630    6.6764  -17.0028 C   0  0  0  0  0  0  0  0  0  0  0  0
   -6.7961    4.4275  -15.8864 C   0  0  0  0  0  0  0  0  0  0  0  0
   -7.6790    5.6147  -16.2685 C   0  0  0  0  0  0  0  0  0  0  0  0
   -8.2155    0.6215   -8.7475 N   0  0  0  0  0  0  0  0  0  0  0  0
   -9.3924    2.5193   -8.7044 N   0  0  0  0  0  0  0  0  0  0  0  0
   -7.6169    3.2337  -11.9461 N   0  0  0  0  0  0  0  0  0  0  0  0
   -8.8476    5.7426  -12.9397 N   0  0  0  0  0  0  0  0  0  0  0  0
   -9.6507    4.4870  -14.7037 O   0  0  0  0  0  0  0  0  0  0  0  0
   -8.1840    6.2118  -15.0692 O   0  0  0  0  0  0  0  0  0  0  0  0
   -9.6574    0.9974   -7.2130 H   0  0  0  0  0  0  0  0  0  0  0  0
   -5.9788    0.6654  -10.3451 H   0  0  0  0  0  0  0  0  0  0  0  0
   -7.2493    0.3825  -11.5469 H   0  0  0  0  0  0  0  0  0  0  0  0
  -10.0517    6.3356   -9.9108 H   0  0  0  0  0  0  0  0  0  0  0  0
   -9.7863    7.5564  -11.1741 H   0  0  0  0  0  0  0  0  0  0  0  0
   -6.6781    4.7972  -10.0506 H   0  0  0  0  0  0  0  0  0  0  0  0
   -8.1041    5.0474   -9.0837 H   0  0  0  0  0  0  0  0  0  0  0  0
  -10.6060    4.0581  -10.5638 H   0  0  0  0  0  0  0  0  0  0  0  0
  -10.1948    3.3893  -12.1175 H   0  0  0  0  0  0  0  0  0  0  0  0
   -5.8058    2.9998  -10.9026 H   0  0  0  0  0  0  0  0  0  0  0  0
   -5.8515    2.1698  -12.4433 H   0  0  0  0  0  0  0  0  0  0  0  0
   -7.5807    7.3599  -12.6688 H   0  0  0  0  0  0  0  0  0  0  0  0
   -6.7611    5.7875  -12.5460 H   0  0  0  0  0  0  0  0  0  0  0  0
   -7.5309    7.1166  -10.2586 H   0  0  0  0  0  0  0  0  0  0  0  0
  -10.8959    5.7302  -12.4036 H   0  0  0  0  0  0  0  0  0  0  0  0
   -9.4510    4.3990  -16.5980 H   0  0  0  0  0  0  0  0  0  0  0  0
   -9.5227    5.9978  -17.3731 H   0  0  0  0  0  0  0  0  0  0  0  0
   -8.5186    4.6993  -18.0540 H   0  0  0  0  0  0  0  0  0  0  0  0
   -6.0125    7.0047  -16.3943 H   0  0  0  0  0  0  0  0  0  0  0  0
   -7.4680    7.5698  -17.1952 H   0  0  0  0  0  0  0  0  0  0  0  0
   -6.4817    6.3033  -17.9588 H   0  0  0  0  0  0  0  0  0  0  0  0
   -5.9469    4.7526  -15.2745 H   0  0  0  0  0  0  0  0  0  0  0  0
   -7.3565    3.6719  -15.3263 H   0  0  0  0  0  0  0  0  0  0  0  0
   -6.3710    3.9548  -16.7792 H   0  0  0  0  0  0  0  0  0  0  0  0
  -10.0560    3.2144   -8.3891 H   0  0  0  0  0  0  0  0  0  0  0  0
   -7.2650    4.0399  -12.4640 H   0  0  0  0  0  0  0  0  0  0  0  0
  1 18  2  0  0  0  0
  1 19  1  0  0  0  0
  2  3  2  0  0  0  0
  2  5  1  0  0  0  0
  2 18  1  0  0  0  0
  3 13  1  0  0  0  0
  3 19  1  0  0  0  0
  4 21  1  0  0  0  0
  4 22  2  0  0  0  0
  4 23  1  0  0  0  0
  5  9  1  0  0  0  0
  6 11  1  0  0  0  0
  6 12  1  0  0  0  0
  7 11  1  0  0  0  0
  7 13  1  0  0  0  0
  8 12  1  0  0  0  0
  8 13  1  0  0  0  0
  9 20  1  0  0  0  0
 10 11  1  0  0  0  0
 10 21  1  0  0  0  0
 12 21  1  0  0  0  0
 13 20  1  0  0  0  0
 14 17  1  0  0  0  0
 15 17  1  0  0  0  0
 16 17  1  0  0  0  0
 17 23  1  0  0  0  0
  1 24  1  0  0  0  0
  5 25  1  0  0  0  0
  5 26  1  0  0  0  0
  6 27  1  0  0  0  0
  6 28  1  0  0  0  0
  7 29  1  0  0  0  0
  7 30  1  0  0  0  0
  8 31  1  0  0  0  0
  8 32  1  0  0  0  0
  9 33  1  0  0  0  0
  9 34  1  0  0  0  0
 10 35  1  0  0  0  0
 10 36  1  0  0  0  0
 11 37  1  0  0  0  0
 12 38  1  0  0  0  0
 14 39  1  0  0  0  0
 14 40  1  0  0  0  0
 14 41  1  0  0  0  0
 15 42  1  0  0  0  0
 15 43  1  0  0  0  0
 15 44  1  0  0  0  0
 16 45  1  0  0  0  0
 16 46  1  0  0  0  0
 16 47  1  0  0  0  0
 19 48  1  0  0  0  0
 20 49  1  0  0  0  0
M  END
> <id>
EN300-1074732

> <smiles>
CC(C)(C)OC(=O)N1CC2CC1CC3(C2)NCCC=4N=CNC43

> <IUPAC Name>
tert-butyl 3',5',6',7'-tetrahydro-6-azaspiro[bicyclo[3.2.1]octane-3,4'-imidazo[4,5-c]pyridine]-6-carboxylate

> <URL>
https://www.enaminestore.com/catalog/EN300-1074732

> <ROCS_ShapeQuery>
_x0404_0B

> <ROCS_TanimotoCombo>
0.364 

> <ROCS_ShapeTanimoto>
0.286 

> <ROCS_ColorTanimoto>
0.078 

> <ROCS_RefTversky>
0.268 

> <ROCS_RefColorTversky>
0.090 

> <ROCS_RefTverskyCombo>
0.357 

> <ROCS_FitTversky>
1.315 

> <ROCS_FitColorTversky>
0.365 

> <ROCS_FitTverskyCombo>
1.681 

> <ROCS_ColorScore>
-6.524

> <ROCS_Overlap>
1786.730

> <ROCS_Rank>
485                 

$$$$
untitled-dbase-13138_106
  -OEChem-08212314543D

 44 45  0     1  0  0  0  0  0999 V2000
   -8.5316    5.5350  -14.2822 C   0  0  0  0  0  0  0  0  0  0  0  0
   -9.1578    4.9797   -7.6463 C   0  0  0  0  0  0  0  0  0  0  0  0
   -7.9422    4.0951   -7.9309 C   0  0  0  0  0  0  0  0  0  0  0  0
   -9.9558    5.0563   -8.9529 C   0  0  0  0  0  0  0  0  0  0  0  0
   -8.0424    5.5438  -10.5594 C   0  0  0  0  0  0  0  0  0  0  0  0
   -9.8854    3.9083  -11.2207 C   0  0  0  0  0  0  0  0  0  0  0  0
   -8.4910    6.2108  -11.8566 C   0  0  0  0  0  0  0  0  0  0  0  0
   -9.1082    3.8846  -12.5308 C   0  0  0  0  0  0  0  0  0  0  0  0
   -8.2604    3.3726   -9.2465 C   0  0  2  0  0  0  0  0  0  0  0  0
   -9.0416    4.4586  -10.0473 C   0  0  0  0  0  0  0  0  0  0  0  0
   -7.1774    5.1258  -16.7687 C   0  0  0  0  0  0  0  0  0  0  0  0
   -8.9137    3.3659  -17.2130 C   0  0  0  0  0  0  0  0  0  0  0  0
   -9.6068    5.7633  -16.9300 C   0  0  0  0  0  0  0  0  0  0  0  0
   -8.6151    4.6832  -16.5004 C   0  0  0  0  0  0  0  0  0  0  0  0
   -8.6937    5.2299  -12.9274 N   0  0  0  0  0  0  0  0  0  0  0  0
   -9.0392    2.1647   -8.9568 N   0  0  0  0  0  0  0  0  0  0  0  0
   -8.2069    6.6421  -14.7075 O   0  0  0  0  0  0  0  0  0  0  0  0
   -8.7676    4.4573  -15.0945 O   0  0  0  0  0  0  0  0  0  0  0  0
   -9.7634    4.5417   -6.8451 H   0  0  0  0  0  0  0  0  0  0  0  0
   -8.8567    5.9805   -7.3187 H   0  0  0  0  0  0  0  0  0  0  0  0
   -7.0199    4.6836   -8.0053 H   0  0  0  0  0  0  0  0  0  0  0  0
   -7.8031    3.3837   -7.1057 H   0  0  0  0  0  0  0  0  0  0  0  0
  -10.9231    4.5528   -8.8559 H   0  0  0  0  0  0  0  0  0  0  0  0
  -10.1702    6.1120   -9.1710 H   0  0  0  0  0  0  0  0  0  0  0  0
   -7.0577    5.0835  -10.7202 H   0  0  0  0  0  0  0  0  0  0  0  0
   -7.8979    6.3122   -9.7882 H   0  0  0  0  0  0  0  0  0  0  0  0
  -10.7978    4.4935  -11.3646 H   0  0  0  0  0  0  0  0  0  0  0  0
  -10.2012    2.8831  -11.0001 H   0  0  0  0  0  0  0  0  0  0  0  0
   -9.4425    6.7399  -11.7172 H   0  0  0  0  0  0  0  0  0  0  0  0
   -7.7507    6.9605  -12.1598 H   0  0  0  0  0  0  0  0  0  0  0  0
   -8.2461    3.2193  -12.4264 H   0  0  0  0  0  0  0  0  0  0  0  0
   -9.7197    3.4828  -13.3462 H   0  0  0  0  0  0  0  0  0  0  0  0
   -7.3635    3.1082   -9.7384 H   0  0  0  0  0  0  0  0  0  0  0  0
   -6.9591    6.0710  -16.2588 H   0  0  0  0  0  0  0  0  0  0  0  0
   -6.4548    4.3748  -16.4331 H   0  0  0  0  0  0  0  0  0  0  0  0
   -7.0170    5.3070  -17.8376 H   0  0  0  0  0  0  0  0  0  0  0  0
   -9.9442    3.0446  -17.0233 H   0  0  0  0  0  0  0  0  0  0  0  0
   -8.2666    2.5643  -16.8389 H   0  0  0  0  0  0  0  0  0  0  0  0
   -8.7705    3.4505  -18.2951 H   0  0  0  0  0  0  0  0  0  0  0  0
  -10.6382    5.4461  -16.7377 H   0  0  0  0  0  0  0  0  0  0  0  0
   -9.4309    6.7057  -16.4012 H   0  0  0  0  0  0  0  0  0  0  0  0
   -9.5367    5.9503  -18.0077 H   0  0  0  0  0  0  0  0  0  0  0  0
   -9.2469    1.7087   -9.8156 H   0  0  0  0  0  0  0  0  0  0  0  0
   -8.4963    1.5716   -8.3720 H   0  0  0  0  0  0  0  0  0  0  0  0
  1 15  1  0  0  0  0
  1 17  2  0  0  0  0
  1 18  1  0  0  0  0
  2  3  1  0  0  0  0
  2  4  1  0  0  0  0
  3  9  1  0  0  0  0
  4 10  1  0  0  0  0
  5  7  1  0  0  0  0
  5 10  1  0  0  0  0
  6  8  1  0  0  0  0
  6 10  1  0  0  0  0
  7 15  1  0  0  0  0
  8 15  1  0  0  0  0
  9 10  1  0  0  0  0
  9 16  1  0  0  0  0
 11 14  1  0  0  0  0
 12 14  1  0  0  0  0
 13 14  1  0  0  0  0
 14 18  1  0  0  0  0
  2 19  1  0  0  0  0
  2 20  1  0  0  0  0
  3 21  1  0  0  0  0
  3 22  1  0  0  0  0
  4 23  1  0  0  0  0
  4 24  1  0  0  0  0
  5 25  1  0  0  0  0
  5 26  1  0  0  0  0
  6 27  1  0  0  0  0
  6 28  1  0  0  0  0
  7 29  1  0  0  0  0
  7 30  1  0  0  0  0
  8 31  1  0  0  0  0
  8 32  1  0  0  0  0
  9 33  1  0  0  0  0
 11 34  1  0  0  0  0
 11 35  1  0  0  0  0
 11 36  1  0  0  0  0
 12 37  1  0  0  0  0
 12 38  1  0  0  0  0
 12 39  1  0  0  0  0
 13 40  1  0  0  0  0
 13 41  1  0  0  0  0
 13 42  1  0  0  0  0
 16 43  1  0  0  0  0
 16 44  1  0  0  0  0
M  END
> <id>
EN300-734973

> <smiles>
CC(C)(C)OC(=O)N1CCC2(CCCC2N)CC1

> <MDLNUMBER>
MFCD22209539

> <IUPAC Name>
tert-butyl 1-amino-8-azaspiro[4.5]decane-8-carboxylate

> <CAS>
1357352-82-9

> <Purity>
95

> <URL>
https://www.enaminestore.com/catalog/EN300-734973

> <ROCS_ShapeQuery>
_x0404_0B

> <ROCS_TanimotoCombo>
0.364 

> <ROCS_ShapeTanimoto>
0.284 

> <ROCS_ColorTanimoto>
0.080 

> <ROCS_RefTversky>
0.257 

> <ROCS_RefColorTversky>
0.084 

> <ROCS_RefTverskyCombo>
0.341 

> <ROCS_FitTversky>
1.575 

> <ROCS_FitColorTversky>
0.635 

> <ROCS_FitTverskyCombo>
2.210 

> <ROCS_ColorScore>
-6.023

> <ROCS_Overlap>
1714.205

> <ROCS_Rank>
486                 

$$$$
untitled-dbase-11494_0
  -OEChem-08212314543D

 37 41  0     1  0  0  0  0  0999 V2000
   -8.2289    2.2359  -15.9100 C   0  0  0  0  0  0  0  0  0  0  0  0
   -8.7843    2.2178   -7.5446 C   0  0  0  0  0  0  0  0  0  0  0  0
   -8.9412    3.1162  -16.7421 C   0  0  0  0  0  0  0  0  0  0  0  0
   -9.6016    3.0942   -6.8107 C   0  0  0  0  0  0  0  0  0  0  0  0
   -7.8848    2.6044  -14.6075 C   0  0  0  0  0  0  0  0  0  0  0  0
   -8.2712    2.5918   -8.7886 C   0  0  0  0  0  0  0  0  0  0  0  0
   -9.3225    4.3801  -16.2860 C   0  0  0  0  0  0  0  0  0  0  0  0
   -9.9208    4.3597   -7.3083 C   0  0  0  0  0  0  0  0  0  0  0  0
   -8.2718    3.8550  -14.1608 C   0  0  0  0  0  0  0  0  0  0  0  0
   -8.5971    3.8440   -9.2776 C   0  0  0  0  0  0  0  0  0  0  0  0
   -8.9812    4.7377  -14.9937 C   0  0  0  0  0  0  0  0  0  0  0  0
   -9.4116    4.7229   -8.5425 C   0  0  0  0  0  0  0  0  0  0  0  0
   -9.2750    6.3960  -11.7696 C   0  0  0  0  0  0  0  0  0  0  0  0
   -8.0007    4.5077  -12.8411 C   0  0  1  0  0  0  0  0  0  0  0  0
   -8.1537    4.5026  -10.5468 C   0  0  2  0  0  0  0  0  0  0  0  0
   -9.2784    6.0136  -14.2670 C   0  0  1  0  0  0  0  0  0  0  0  0
   -9.6107    6.0019   -9.2967 C   0  0  2  0  0  0  0  0  0  0  0  0
   -8.8224    5.7237  -12.9061 N   0  0  0  0  0  0  0  0  0  0  0  0
   -8.9775    5.7183  -10.5861 N   0  0  0  0  0  0  0  0  0  0  0  0
   -9.9490    7.4261  -11.8123 O   0  0  0  0  0  0  0  0  0  0  0  0
   -8.3862    3.7245  -11.7163 O   0  0  0  0  0  0  0  0  0  0  0  0
   -8.5208    7.0820  -14.8052 O   0  0  0  0  0  0  0  0  0  0  0  0
   -8.9321    7.0679   -8.6576 O   0  0  0  0  0  0  0  0  0  0  0  0
   -7.9397    1.2586  -16.2874 H   0  0  0  0  0  0  0  0  0  0  0  0
   -8.5463    1.2392   -7.1360 H   0  0  0  0  0  0  0  0  0  0  0  0
   -9.1971    2.8087  -17.7526 H   0  0  0  0  0  0  0  0  0  0  0  0
   -9.9885    2.7824   -5.8441 H   0  0  0  0  0  0  0  0  0  0  0  0
   -7.3266    1.9266  -13.9711 H   0  0  0  0  0  0  0  0  0  0  0  0
   -7.6326    1.9172   -9.3481 H   0  0  0  0  0  0  0  0  0  0  0  0
   -9.8732    5.0569  -16.9301 H   0  0  0  0  0  0  0  0  0  0  0  0
  -10.5525    5.0335   -6.7400 H   0  0  0  0  0  0  0  0  0  0  0  0
   -6.9442    4.7997  -12.7802 H   0  0  0  0  0  0  0  0  0  0  0  0
   -7.0987    4.7950  -10.4654 H   0  0  0  0  0  0  0  0  0  0  0  0
  -10.3440    6.2639  -14.2629 H   0  0  0  0  0  0  0  0  0  0  0  0
  -10.6665    6.2521   -9.4413 H   0  0  0  0  0  0  0  0  0  0  0  0
   -8.7522    7.8793  -14.2989 H   0  0  0  0  0  0  0  0  0  0  0  0
   -9.0948    7.8675   -9.1865 H   0  0  0  0  0  0  0  0  0  0  0  0
  1  3  2  0  0  0  0
  1  5  1  0  0  0  0
  2  4  2  0  0  0  0
  2  6  1  0  0  0  0
  3  7  1  0  0  0  0
  4  8  1  0  0  0  0
  5  9  2  0  0  0  0
  6 10  2  0  0  0  0
  7 11  2  0  0  0  0
  8 12  2  0  0  0  0
  9 11  1  0  0  0  0
  9 14  1  0  0  0  0
 10 12  1  0  0  0  0
 10 15  1  0  0  0  0
 11 16  1  0  0  0  0
 12 17  1  0  0  0  0
 13 18  1  0  0  0  0
 13 19  1  0  0  0  0
 13 20  2  0  0  0  0
 14 18  1  0  0  0  0
 14 21  1  0  0  0  0
 15 19  1  0  0  0  0
 15 21  1  0  0  0  0
 16 18  1  0  0  0  0
 16 22  1  0  0  0  0
 17 19  1  0  0  0  0
 17 23  1  0  0  0  0
  1 24  1  0  0  0  0
  2 25  1  0  0  0  0
  3 26  1  0  0  0  0
  4 27  1  0  0  0  0
  5 28  1  0  0  0  0
  6 29  1  0  0  0  0
  7 30  1  0  0  0  0
  8 31  1  0  0  0  0
 14 32  1  0  0  0  0
 15 33  1  0  0  0  0
 16 34  1  0  0  0  0
 17 35  1  0  0  0  0
 22 36  1  0  0  0  0
 23 37  1  0  0  0  0
M  END
> <id>
EN300-299316

> <smiles>
OC1N2C(OC3N(C(O)C=4C=CC=CC34)C2=O)C=5C=CC=CC15

> <MDLNUMBER>
MFCD30181006

> <IUPAC Name>
10,14-dihydroxy-2-oxa-11,13-diazapentacyclo[11.7.0.0^{3,11}.0^{4,9}.0^{15,20}]icosa-4(9),5,7,15(20),16,18-hexaen-12-one

> <CAS>
67209-38-5

> <Purity>
95

> <URL>
https://www.enaminestore.com/catalog/EN300-299316

> <ROCS_ShapeQuery>
_x0404_0B

> <ROCS_TanimotoCombo>
0.364 

> <ROCS_ShapeTanimoto>
0.295 

> <ROCS_ColorTanimoto>
0.068 

> <ROCS_RefTversky>
0.276 

> <ROCS_RefColorTversky>
0.076 

> <ROCS_RefTverskyCombo>
0.352 

> <ROCS_FitTversky>
1.316 

> <ROCS_FitColorTversky>
0.386 

> <ROCS_FitTverskyCombo>
1.702 

> <ROCS_ColorScore>
-5.521

> <ROCS_Overlap>
1843.130

> <ROCS_Rank>
487                 

$$$$
untitled-dbase-18297_28
  -OEChem-08212314543D

 46 47  0     0  0  0  0  0  0999 V2000
   -7.1449    5.4484  -17.9214 C   0  0  0  0  0  0  0  0  0  0  0  0
   -9.0242    5.2897  -11.5257 C   0  0  0  0  0  0  0  0  0  0  0  0
   -7.6986    4.1020  -18.3129 C   0  0  0  0  0  0  0  0  0  0  0  0
   -9.1835    4.1375  -18.6262 C   0  0  0  0  0  0  0  0  0  0  0  0
  -10.0623    4.0722  -17.3855 C   0  0  0  0  0  0  0  0  0  0  0  0
  -10.0041    5.3216  -16.5105 C   0  0  0  0  0  0  0  0  0  0  0  0
   -8.8744    6.8566  -14.8582 C   0  0  0  0  0  0  0  0  0  0  0  0
   -8.1030    4.4806  -14.9545 C   0  0  0  0  0  0  0  0  0  0  0  0
   -9.7020    6.5369  -13.6125 C   0  0  0  0  0  0  0  0  0  0  0  0
   -8.9698    4.1697  -13.7349 C   0  0  0  0  0  0  0  0  0  0  0  0
   -8.6565    5.6419  -15.8137 C   0  0  0  0  0  0  0  0  0  0  0  0
  -10.0637    4.7284   -8.9187 C   0  0  0  0  0  0  0  0  0  0  0  0
   -9.2289    2.3890   -9.2920 C   0  0  0  0  0  0  0  0  0  0  0  0
   -7.6036    4.3031   -9.2374 C   0  0  0  0  0  0  0  0  0  0  0  0
   -9.0165    3.8651   -9.6207 C   0  0  0  0  0  0  0  0  0  0  0  0
   -7.6449    6.0750  -16.8099 N   0  0  0  0  0  0  0  0  0  0  0  0
   -9.1892    5.3571  -12.9139 N   0  0  0  0  0  0  0  0  0  0  0  0
   -6.2446    5.9619  -18.5929 O   0  0  0  0  0  0  0  0  0  0  0  0
   -8.7701    6.2572  -10.8103 O   0  0  0  0  0  0  0  0  0  0  0  0
   -9.1734    4.0190  -11.0360 O   0  0  0  0  0  0  0  0  0  0  0  0
   -7.1690    3.8002  -19.2258 H   0  0  0  0  0  0  0  0  0  0  0  0
   -7.4474    3.3524  -17.5606 H   0  0  0  0  0  0  0  0  0  0  0  0
   -9.4331    5.0277  -19.2168 H   0  0  0  0  0  0  0  0  0  0  0  0
   -9.4225    3.2677  -19.2513 H   0  0  0  0  0  0  0  0  0  0  0  0
  -11.1020    3.9450  -17.7161 H   0  0  0  0  0  0  0  0  0  0  0  0
   -9.8264    3.1772  -16.7977 H   0  0  0  0  0  0  0  0  0  0  0  0
  -10.3192    6.1895  -17.1061 H   0  0  0  0  0  0  0  0  0  0  0  0
  -10.7770    5.2032  -15.7382 H   0  0  0  0  0  0  0  0  0  0  0  0
   -9.3853    7.6643  -15.4046 H   0  0  0  0  0  0  0  0  0  0  0  0
   -7.9036    7.2717  -14.5494 H   0  0  0  0  0  0  0  0  0  0  0  0
   -7.0829    4.6734  -14.6131 H   0  0  0  0  0  0  0  0  0  0  0  0
   -8.0383    3.5738  -15.5733 H   0  0  0  0  0  0  0  0  0  0  0  0
   -9.6788    7.3676  -12.8979 H   0  0  0  0  0  0  0  0  0  0  0  0
  -10.7482    6.4011  -13.9037 H   0  0  0  0  0  0  0  0  0  0  0  0
   -9.9271    3.7501  -14.0645 H   0  0  0  0  0  0  0  0  0  0  0  0
   -8.4919    3.4146  -13.0983 H   0  0  0  0  0  0  0  0  0  0  0  0
   -9.9147    5.7887   -9.1521 H   0  0  0  0  0  0  0  0  0  0  0  0
  -11.0805    4.4474   -9.2120 H   0  0  0  0  0  0  0  0  0  0  0  0
   -9.9798    4.6368   -7.8298 H   0  0  0  0  0  0  0  0  0  0  0  0
   -8.4796    1.7659   -9.7936 H   0  0  0  0  0  0  0  0  0  0  0  0
  -10.2060    2.0459   -9.6509 H   0  0  0  0  0  0  0  0  0  0  0  0
   -9.1701    2.2024   -8.2148 H   0  0  0  0  0  0  0  0  0  0  0  0
   -6.8523    3.6840   -9.7408 H   0  0  0  0  0  0  0  0  0  0  0  0
   -7.4208    5.3501   -9.4999 H   0  0  0  0  0  0  0  0  0  0  0  0
   -7.4357    4.1793   -8.1614 H   0  0  0  0  0  0  0  0  0  0  0  0
   -7.2184    6.9778  -16.6284 H   0  0  0  0  0  0  0  0  0  0  0  0
  1  3  1  0  0  0  0
  1 16  1  0  0  0  0
  1 18  2  0  0  0  0
  2 17  1  0  0  0  0
  2 19  2  0  0  0  0
  2 20  1  0  0  0  0
  3  4  1  0  0  0  0
  4  5  1  0  0  0  0
  5  6  1  0  0  0  0
  6 11  1  0  0  0  0
  7  9  1  0  0  0  0
  7 11  1  0  0  0  0
  8 10  1  0  0  0  0
  8 11  1  0  0  0  0
  9 17  1  0  0  0  0
 10 17  1  0  0  0  0
 11 16  1  0  0  0  0
 12 15  1  0  0  0  0
 13 15  1  0  0  0  0
 14 15  1  0  0  0  0
 15 20  1  0  0  0  0
  3 21  1  0  0  0  0
  3 22  1  0  0  0  0
  4 23  1  0  0  0  0
  4 24  1  0  0  0  0
  5 25  1  0  0  0  0
  5 26  1  0  0  0  0
  6 27  1  0  0  0  0
  6 28  1  0  0  0  0
  7 29  1  0  0  0  0
  7 30  1  0  0  0  0
  8 31  1  0  0  0  0
  8 32  1  0  0  0  0
  9 33  1  0  0  0  0
  9 34  1  0  0  0  0
 10 35  1  0  0  0  0
 10 36  1  0  0  0  0
 12 37  1  0  0  0  0
 12 38  1  0  0  0  0
 12 39  1  0  0  0  0
 13 40  1  0  0  0  0
 13 41  1  0  0  0  0
 13 42  1  0  0  0  0
 14 43  1  0  0  0  0
 14 44  1  0  0  0  0
 14 45  1  0  0  0  0
 16 46  1  0  0  0  0
M  END
> <id>
EN300-1628996

> <smiles>
CC(C)(C)OC(=O)N1CCC2(CC1)CCCCC(=O)N2

> <IUPAC Name>
tert-butyl 8-oxo-3,7-diazaspiro[5.6]dodecane-3-carboxylate

> <CAS>
2172582-66-8

> <URL>
https://www.enaminestore.com/catalog/EN300-1628996

> <ROCS_ShapeQuery>
_x0404_0B

> <ROCS_TanimotoCombo>
0.364 

> <ROCS_ShapeTanimoto>
0.334 

> <ROCS_ColorTanimoto>
0.029 

> <ROCS_RefTversky>
0.295 

> <ROCS_RefColorTversky>
0.032 

> <ROCS_RefTverskyCombo>
0.327 

> <ROCS_FitTversky>
1.675 

> <ROCS_FitColorTversky>
0.243 

> <ROCS_FitTverskyCombo>
1.918 

> <ROCS_ColorScore>
-2.307

> <ROCS_Overlap>
1965.366

> <ROCS_Rank>
488                 

$$$$
untitled-dbase-42884_102
  -OEChem-08212314543D

 43 44  0     1  0  0  0  0  0999 V2000
   -8.2811    5.8925  -15.3117 C   0  0  0  0  0  0  0  0  0  0  0  0
   -9.1648    4.5024  -12.6168 C   0  0  0  0  0  0  0  0  0  0  0  0
   -7.4307    6.3591  -12.3503 C   0  0  0  0  0  0  0  0  0  0  0  0
   -6.6433    3.9521  -12.5700 C   0  0  0  0  0  0  0  0  0  0  0  0
   -6.6350    4.0323  -14.9575 C   0  0  0  0  0  0  0  0  0  0  0  0
   -9.4316    4.3827  -11.1202 C   0  0  0  0  0  0  0  0  0  0  0  0
   -7.5134    6.3595  -10.8287 C   0  0  0  0  0  0  0  0  0  0  0  0
   -6.4278    3.0765  -13.7990 C   0  0  2  0  0  0  0  0  0  0  0  0
   -7.7352    4.9793  -12.9871 C   0  0  0  0  0  0  0  0  0  0  0  0
   -6.6662    6.7547  -17.1908 C   0  0  0  0  0  0  0  0  0  0  0  0
   -7.5999    5.0062  -18.7336 C   0  0  0  0  0  0  0  0  0  0  0  0
   -8.9627    7.0420  -18.1799 C   0  0  0  0  0  0  0  0  0  0  0  0
   -7.9326    6.0402  -17.6601 C   0  0  0  0  0  0  0  0  0  0  0  0
   -7.5890    5.0261  -14.4679 N   0  0  0  0  0  0  0  0  0  0  0  0
   -8.6562    7.0218  -15.0071 O   0  0  0  0  0  0  0  0  0  0  0  0
  -10.0809    6.8980  -10.7600 O   0  0  0  0  0  0  0  0  0  0  0  0
   -9.0519    5.6183   -8.8465 O   0  0  0  0  0  0  0  0  0  0  0  0
   -7.3953    2.0367  -13.8312 O   0  0  0  0  0  0  0  0  0  0  0  0
   -8.4995    5.3394  -16.5471 O   0  0  0  0  0  0  0  0  0  0  0  0
   -9.1398    5.9128  -10.2636 S   0  0  0  0  0  0  0  0  0  0  0  0
   -9.3740    3.5319  -13.0814 H   0  0  0  0  0  0  0  0  0  0  0  0
   -9.9004    5.2025  -13.0314 H   0  0  0  0  0  0  0  0  0  0  0  0
   -8.1296    7.1133  -12.7283 H   0  0  0  0  0  0  0  0  0  0  0  0
   -6.4272    6.6911  -12.6456 H   0  0  0  0  0  0  0  0  0  0  0  0
   -6.9195    3.3563  -11.6966 H   0  0  0  0  0  0  0  0  0  0  0  0
   -5.7014    4.4689  -12.3461 H   0  0  0  0  0  0  0  0  0  0  0  0
   -5.7126    4.5710  -15.2002 H   0  0  0  0  0  0  0  0  0  0  0  0
   -7.0207    3.5445  -15.8578 H   0  0  0  0  0  0  0  0  0  0  0  0
  -10.4777    4.1135  -10.9413 H   0  0  0  0  0  0  0  0  0  0  0  0
   -8.8076    3.6173  -10.6517 H   0  0  0  0  0  0  0  0  0  0  0  0
   -6.8025    5.6586  -10.3815 H   0  0  0  0  0  0  0  0  0  0  0  0
   -7.3017    7.3580  -10.4334 H   0  0  0  0  0  0  0  0  0  0  0  0
   -5.4335    2.6199  -13.8035 H   0  0  0  0  0  0  0  0  0  0  0  0
   -6.9008    7.4977  -16.4202 H   0  0  0  0  0  0  0  0  0  0  0  0
   -5.9332    6.0507  -16.7834 H   0  0  0  0  0  0  0  0  0  0  0  0
   -6.1978    7.3029  -18.0163 H   0  0  0  0  0  0  0  0  0  0  0  0
   -8.5057    4.4911  -19.0733 H   0  0  0  0  0  0  0  0  0  0  0  0
   -6.9346    4.2312  -18.3362 H   0  0  0  0  0  0  0  0  0  0  0  0
   -7.1166    5.4663  -19.6016 H   0  0  0  0  0  0  0  0  0  0  0  0
   -9.8712    6.5297  -18.5166 H   0  0  0  0  0  0  0  0  0  0  0  0
   -9.2412    7.7698  -17.4109 H   0  0  0  0  0  0  0  0  0  0  0  0
   -8.5739    7.5851  -19.0489 H   0  0  0  0  0  0  0  0  0  0  0  0
   -7.2159    1.5108  -14.6276 H   0  0  0  0  0  0  0  0  0  0  0  0
  1 14  1  0  0  0  0
  1 15  2  0  0  0  0
  1 19  1  0  0  0  0
  2  6  1  0  0  0  0
  2  9  1  0  0  0  0
  3  7  1  0  0  0  0
  3  9  1  0  0  0  0
  4  8  1  0  0  0  0
  4  9  1  0  0  0  0
  5  8  1  0  0  0  0
  5 14  1  0  0  0  0
  6 20  1  0  0  0  0
  7 20  1  0  0  0  0
  8 18  1  0  0  0  0
  9 14  1  0  0  0  0
 10 13  1  0  0  0  0
 11 13  1  0  0  0  0
 12 13  1  0  0  0  0
 13 19  1  0  0  0  0
 16 20  2  0  0  0  0
 17 20  2  0  0  0  0
  2 21  1  0  0  0  0
  2 22  1  0  0  0  0
  3 23  1  0  0  0  0
  3 24  1  0  0  0  0
  4 25  1  0  0  0  0
  4 26  1  0  0  0  0
  5 27  1  0  0  0  0
  5 28  1  0  0  0  0
  6 29  1  0  0  0  0
  6 30  1  0  0  0  0
  7 31  1  0  0  0  0
  7 32  1  0  0  0  0
  8 33  1  0  0  0  0
 10 34  1  0  0  0  0
 10 35  1  0  0  0  0
 10 36  1  0  0  0  0
 11 37  1  0  0  0  0
 11 38  1  0  0  0  0
 11 39  1  0  0  0  0
 12 40  1  0  0  0  0
 12 41  1  0  0  0  0
 12 42  1  0  0  0  0
 18 43  1  0  0  0  0
M  END
> <id>
EN300-27718499

> <smiles>
CC(C)(C)OC(=O)N1CC(O)CC21CCS(=O)(=O)CC2

> <IUPAC Name>
tert-butyl 3-hydroxy-8,8-dioxo-8lambda6-thia-1-azaspiro[4.5]decane-1-carboxylate

> <CAS>
2580199-03-5

> <URL>
https://www.enaminestore.com/catalog/EN300-27718499

> <ROCS_ShapeQuery>
_x0404_0B

> <ROCS_TanimotoCombo>
0.363 

> <ROCS_ShapeTanimoto>
0.245 

> <ROCS_ColorTanimoto>
0.119 

> <ROCS_RefTversky>
0.231 

> <ROCS_RefColorTversky>
0.123 

> <ROCS_RefTverskyCombo>
0.354 

> <ROCS_FitTversky>
1.324 

> <ROCS_FitColorTversky>
0.779 

> <ROCS_FitTverskyCombo>
2.103 

> <ROCS_ColorScore>
-8.871

> <ROCS_Overlap>
1540.044

> <ROCS_Rank>
489                 

$$$$
untitled-dbase-30598_625
  -OEChem-08212314543D

 46 47  0     1  0  0  0  0  0999 V2000
   -8.3857    5.3712  -10.3189 C   0  0  0  0  0  0  0  0  0  0  0  0
   -8.9581    6.2913  -11.1834 C   0  0  0  0  0  0  0  0  0  0  0  0
   -8.0322    4.1070  -10.7898 C   0  0  0  0  0  0  0  0  0  0  0  0
   -9.1797    5.9410  -12.5128 C   0  0  0  0  0  0  0  0  0  0  0  0
   -8.2424    3.7229  -12.1345 C   0  0  0  0  0  0  0  0  0  0  0  0
   -8.8387    4.6616  -13.0012 C   0  0  0  0  0  0  0  0  0  0  0  0
   -8.4903    5.1660  -15.3910 C   0  0  0  0  0  0  0  0  0  0  0  0
  -11.0016    2.2261  -12.5869 C   0  0  0  0  0  0  0  0  0  0  0  0
  -10.0453    1.0436  -12.7528 C   0  0  0  0  0  0  0  0  0  0  0  0
  -11.2482    3.0580  -13.8480 C   0  0  0  0  0  0  0  0  0  0  0  0
   -8.7021    1.2032  -12.0304 C   0  0  0  0  0  0  0  0  0  0  0  0
  -10.0672    3.3656  -14.7720 C   0  0  0  0  0  0  0  0  0  0  0  0
   -7.7675    2.3289  -12.5061 C   0  0  1  0  0  0  0  0  0  0  0  0
   -6.3605    5.6335  -17.2474 C   0  0  0  0  0  0  0  0  0  0  0  0
   -7.7107    4.2611  -18.8607 C   0  0  0  0  0  0  0  0  0  0  0  0
   -8.6407    6.4172  -17.9694 C   0  0  0  0  0  0  0  0  0  0  0  0
   -7.7673    5.2023  -17.6594 C   0  0  0  0  0  0  0  0  0  0  0  0
   -9.1175    4.4091  -14.3760 N   0  0  0  0  0  0  0  0  0  0  0  0
   -8.1259    6.3333  -15.2548 O   0  0  0  0  0  0  0  0  0  0  0  0
   -7.4378    2.1894  -13.8804 O   0  0  0  0  0  0  0  0  0  0  0  0
   -8.3591    4.4806  -16.5734 O   0  0  0  0  0  0  0  0  0  0  0  0
   -8.1999    5.6363   -9.2837 H   0  0  0  0  0  0  0  0  0  0  0  0
   -9.2279    7.2811  -10.8296 H   0  0  0  0  0  0  0  0  0  0  0  0
   -7.5633    3.4122  -10.0907 H   0  0  0  0  0  0  0  0  0  0  0  0
   -9.6383    6.6748  -13.1795 H   0  0  0  0  0  0  0  0  0  0  0  0
  -11.9748    1.8362  -12.2458 H   0  0  0  0  0  0  0  0  0  0  0  0
  -10.6821    2.8967  -11.7766 H   0  0  0  0  0  0  0  0  0  0  0  0
  -10.5391    0.1439  -12.3490 H   0  0  0  0  0  0  0  0  0  0  0  0
   -9.8695    0.8042  -13.8121 H   0  0  0  0  0  0  0  0  0  0  0  0
  -12.0357    2.5633  -14.4502 H   0  0  0  0  0  0  0  0  0  0  0  0
  -11.7082    4.0137  -13.5294 H   0  0  0  0  0  0  0  0  0  0  0  0
   -8.8951    1.3394  -10.9491 H   0  0  0  0  0  0  0  0  0  0  0  0
   -8.1619    0.2384  -12.0837 H   0  0  0  0  0  0  0  0  0  0  0  0
   -9.5093    2.4148  -14.9500 H   0  0  0  0  0  0  0  0  0  0  0  0
  -10.4629    3.6374  -15.7798 H   0  0  0  0  0  0  0  0  0  0  0  0
   -6.7533    2.1698  -11.9951 H   0  0  0  0  0  0  0  0  0  0  0  0
   -6.3969    6.3092  -16.3854 H   0  0  0  0  0  0  0  0  0  0  0  0
   -5.7345    4.7733  -16.9888 H   0  0  0  0  0  0  0  0  0  0  0  0
   -5.8695    6.1886  -18.0549 H   0  0  0  0  0  0  0  0  0  0  0  0
   -8.7179    3.9491  -19.1597 H   0  0  0  0  0  0  0  0  0  0  0  0
   -7.1645    3.3438  -18.6125 H   0  0  0  0  0  0  0  0  0  0  0  0
   -7.2241    4.7324  -19.7207 H   0  0  0  0  0  0  0  0  0  0  0  0
   -9.6499    6.1081  -18.2649 H   0  0  0  0  0  0  0  0  0  0  0  0
   -8.7229    7.0856  -17.1062 H   0  0  0  0  0  0  0  0  0  0  0  0
   -8.2321    6.9859  -18.8125 H   0  0  0  0  0  0  0  0  0  0  0  0
   -7.1523    1.2720  -13.9969 H   0  0  0  0  0  0  0  0  0  0  0  0
  1  2  2  0  0  0  0
  1  3  1  0  0  0  0
  2  4  1  0  0  0  0
  3  5  2  0  0  0  0
  4  6  2  0  0  0  0
  5  6  1  0  0  0  0
  5 13  1  0  0  0  0
  6 18  1  0  0  0  0
  7 18  1  0  0  0  0
  7 19  2  0  0  0  0
  7 21  1  0  0  0  0
  8  9  1  0  0  0  0
  8 10  1  0  0  0  0
  9 11  1  0  0  0  0
 10 12  1  0  0  0  0
 11 13  1  0  0  0  0
 12 18  1  0  0  0  0
 13 20  1  0  0  0  0
 14 17  1  0  0  0  0
 15 17  1  0  0  0  0
 16 17  1  0  0  0  0
 17 21  1  0  0  0  0
  1 22  1  0  0  0  0
  2 23  1  0  0  0  0
  3 24  1  0  0  0  0
  4 25  1  0  0  0  0
  8 26  1  0  0  0  0
  8 27  1  0  0  0  0
  9 28  1  0  0  0  0
  9 29  1  0  0  0  0
 10 30  1  0  0  0  0
 10 31  1  0  0  0  0
 11 32  1  0  0  0  0
 11 33  1  0  0  0  0
 12 34  1  0  0  0  0
 12 35  1  0  0  0  0
 13 36  1  0  0  0  0
 14 37  1  0  0  0  0
 14 38  1  0  0  0  0
 14 39  1  0  0  0  0
 15 40  1  0  0  0  0
 15 41  1  0  0  0  0
 15 42  1  0  0  0  0
 16 43  1  0  0  0  0
 16 44  1  0  0  0  0
 16 45  1  0  0  0  0
 20 46  1  0  0  0  0
M  END
> <id>
EN300-26666137

> <smiles>
CC(C)(C)OC(=O)N1CCCCCC(O)C=2C=CC=CC12

> <IUPAC Name>
tert-butyl 7-hydroxy-2,3,4,5,6,7-hexahydro-1H-1-benzazonine-1-carboxylate

> <CAS>
2413897-04-6

> <URL>
https://www.enaminestore.com/catalog/EN300-26666137

> <ROCS_ShapeQuery>
_x0404_0B

> <ROCS_TanimotoCombo>
0.363 

> <ROCS_ShapeTanimoto>
0.252 

> <ROCS_ColorTanimoto>
0.111 

> <ROCS_RefTversky>
0.238 

> <ROCS_RefColorTversky>
0.112 

> <ROCS_RefTverskyCombo>
0.350 

> <ROCS_FitTversky>
1.301 

> <ROCS_FitColorTversky>
0.945 

> <ROCS_FitTverskyCombo>
2.247 

> <ROCS_ColorScore>
-8.064

> <ROCS_Overlap>
1590.107

> <ROCS_Rank>
490                 

$$$$
untitled-dbase-45424_11
  -OEChem-08212314543D

 36 37  0     0  0  0  0  0  0999 V2000
   -8.9301    6.8836  -11.0789 C   0  0  0  0  0  0  0  0  0  0  0  0
   -8.6440    4.1605  -11.6378 C   0  0  0  0  0  0  0  0  0  0  0  0
   -8.7389    5.0751  -12.7123 C   0  0  0  0  0  0  0  0  0  0  0  0
   -8.9046    6.4359  -12.4035 C   0  0  0  0  0  0  0  0  0  0  0  0
   -8.8102    5.9797  -10.0323 C   0  0  0  0  0  0  0  0  0  0  0  0
   -8.6793    4.6236  -10.3101 C   0  0  0  0  0  0  0  0  0  0  0  0
   -8.4806    5.3583  -15.2241 C   0  0  0  0  0  0  0  0  0  0  0  0
   -8.5525    2.6705  -11.8535 C   0  0  0  0  0  0  0  0  0  0  0  0
   -8.1699    2.3173  -13.2800 C   0  0  0  0  0  0  0  0  0  0  0  0
   -8.9814    3.1545  -14.2519 C   0  0  0  0  0  0  0  0  0  0  0  0
   -6.3811    5.1178  -17.1597 C   0  0  0  0  0  0  0  0  0  0  0  0
   -8.1569    4.2318  -18.6995 C   0  0  0  0  0  0  0  0  0  0  0  0
   -8.3219    6.5783  -17.8191 C   0  0  0  0  0  0  0  0  0  0  0  0
   -7.8667    5.1516  -17.5154 C   0  0  0  0  0  0  0  0  0  0  0  0
   -8.7162    4.5870  -14.0684 N   0  0  0  0  0  0  0  0  0  0  0  0
   -8.2472    6.5672  -15.1999 O   0  0  0  0  0  0  0  0  0  0  0  0
   -8.6149    4.6627  -16.3956 O   0  0  0  0  0  0  0  0  0  0  0  0
   -9.1660    7.3562  -13.3382 F   0  0  0  0  0  0  0  0  0  0  0  0
   -8.8455    6.4359   -8.7713 F   0  0  0  0  0  0  0  0  0  0  0  0
   -8.6073    3.4646   -8.7933 Br  0  0  0  0  0  0  0  0  0  0  0  0
   -9.0717    7.9393  -10.8682 H   0  0  0  0  0  0  0  0  0  0  0  0
   -7.7904    2.2118  -11.2090 H   0  0  0  0  0  0  0  0  0  0  0  0
   -9.5238    2.2160  -11.6048 H   0  0  0  0  0  0  0  0  0  0  0  0
   -7.0992    2.4945  -13.4445 H   0  0  0  0  0  0  0  0  0  0  0  0
   -8.3489    1.2510  -13.4580 H   0  0  0  0  0  0  0  0  0  0  0  0
   -8.7267    2.8373  -15.2624 H   0  0  0  0  0  0  0  0  0  0  0  0
  -10.0516    2.9979  -14.1072 H   0  0  0  0  0  0  0  0  0  0  0  0
   -6.1687    5.7768  -16.3102 H   0  0  0  0  0  0  0  0  0  0  0  0
   -6.0500    4.1055  -16.9058 H   0  0  0  0  0  0  0  0  0  0  0  0
   -5.7709    5.4825  -17.9939 H   0  0  0  0  0  0  0  0  0  0  0  0
   -9.2217    4.2530  -18.9581 H   0  0  0  0  0  0  0  0  0  0  0  0
   -7.9199    3.1907  -18.4522 H   0  0  0  0  0  0  0  0  0  0  0  0
   -7.5794    4.5180  -19.5844 H   0  0  0  0  0  0  0  0  0  0  0  0
   -9.3875    6.6028  -18.0743 H   0  0  0  0  0  0  0  0  0  0  0  0
   -8.1553    7.2449  -16.9667 H   0  0  0  0  0  0  0  0  0  0  0  0
   -7.7869    6.9817  -18.6864 H   0  0  0  0  0  0  0  0  0  0  0  0
  1  4  1  0  0  0  0
  1  5  2  0  0  0  0
  2  3  1  0  0  0  0
  2  6  2  0  0  0  0
  2  8  1  0  0  0  0
  3  4  2  0  0  0  0
  3 15  1  0  0  0  0
  4 18  1  0  0  0  0
  5  6  1  0  0  0  0
  5 19  1  0  0  0  0
  6 20  1  0  0  0  0
  7 15  1  0  0  0  0
  7 16  2  0  0  0  0
  7 17  1  0  0  0  0
  8  9  1  0  0  0  0
  9 10  1  0  0  0  0
 10 15  1  0  0  0  0
 11 14  1  0  0  0  0
 12 14  1  0  0  0  0
 13 14  1  0  0  0  0
 14 17  1  0  0  0  0
  1 21  1  0  0  0  0
  8 22  1  0  0  0  0
  8 23  1  0  0  0  0
  9 24  1  0  0  0  0
  9 25  1  0  0  0  0
 10 26  1  0  0  0  0
 10 27  1  0  0  0  0
 11 28  1  0  0  0  0
 11 29  1  0  0  0  0
 11 30  1  0  0  0  0
 12 31  1  0  0  0  0
 12 32  1  0  0  0  0
 12 33  1  0  0  0  0
 13 34  1  0  0  0  0
 13 35  1  0  0  0  0
 13 36  1  0  0  0  0
M  END
> <id>
EN300-28298197

> <smiles>
CC(C)(C)OC(=O)N1CCCC=2C(Br)=C(F)C=C(F)C12

> <IUPAC Name>
tert-butyl 5-bromo-6,8-difluoro-1,2,3,4-tetrahydroquinoline-1-carboxylate

> <CAS>
2680823-68-9

> <URL>
https://www.enaminestore.com/catalog/EN300-28298197

> <ROCS_ShapeQuery>
_x0404_0B

> <ROCS_TanimotoCombo>
0.363 

> <ROCS_ShapeTanimoto>
0.318 

> <ROCS_ColorTanimoto>
0.045 

> <ROCS_RefTversky>
0.285 

> <ROCS_RefColorTversky>
0.048 

> <ROCS_RefTverskyCombo>
0.333 

> <ROCS_FitTversky>
1.590 

> <ROCS_FitColorTversky>
0.406 

> <ROCS_FitTverskyCombo>
1.996 

> <ROCS_ColorScore>
-3.465

> <ROCS_Overlap>
1899.505

> <ROCS_Rank>
491                 

$$$$
untitled-dbase-50515_4
  -OEChem-08212314543D

 41 42  0     1  0  0  0  0  0999 V2000
   -8.7854    3.4123   -6.8571 C   0  0  0  0  0  0  0  0  0  0  0  0
   -9.5203    4.3534   -7.5669 C   0  0  0  0  0  0  0  0  0  0  0  0
   -7.9527    2.5236   -7.5370 C   0  0  0  0  0  0  0  0  0  0  0  0
   -9.4366    4.3943   -8.9574 C   0  0  0  0  0  0  0  0  0  0  0  0
   -7.8481    2.5489   -8.9408 C   0  0  0  0  0  0  0  0  0  0  0  0
   -8.6205    3.4867   -9.6566 C   0  0  0  0  0  0  0  0  0  0  0  0
   -8.4053    4.7389  -11.7585 C   0  0  0  0  0  0  0  0  0  0  0  0
   -7.7767    1.3301  -11.9446 C   0  0  0  0  0  0  0  0  0  0  0  0
   -8.9560    2.2724  -11.7751 C   0  0  0  0  0  0  0  0  0  0  0  0
   -6.8053    1.6638   -9.5882 C   0  0  1  0  0  0  0  0  0  0  0  0
   -7.3509    0.6825  -10.6297 C   0  0  2  0  0  0  0  0  0  0  0  0
   -6.8530    6.2759  -13.6098 C   0  0  0  0  0  0  0  0  0  0  0  0
   -8.4385    5.4241  -15.3619 C   0  0  0  0  0  0  0  0  0  0  0  0
   -9.3000    6.8508  -13.4829 C   0  0  0  0  0  0  0  0  0  0  0  0
   -8.2754    5.7924  -13.8888 C   0  0  0  0  0  0  0  0  0  0  0  0
   -8.6172    3.5249  -11.0843 N   0  0  0  0  0  0  0  0  0  0  0  0
   -8.1207    5.8046  -11.2138 O   0  0  0  0  0  0  0  0  0  0  0  0
   -5.8003    2.5037  -10.1606 O   0  0  0  0  0  0  0  0  0  0  0  0
   -6.3246   -0.2636  -10.9453 O   0  0  0  0  0  0  0  0  0  0  0  0
   -8.5135    4.6083  -13.1190 O   0  0  0  0  0  0  0  0  0  0  0  0
   -8.8606    3.3663   -5.7737 H   0  0  0  0  0  0  0  0  0  0  0  0
  -10.1447    5.0667   -7.0378 H   0  0  0  0  0  0  0  0  0  0  0  0
   -7.3944    1.7948   -6.9570 H   0  0  0  0  0  0  0  0  0  0  0  0
   -9.9767    5.1818   -9.4677 H   0  0  0  0  0  0  0  0  0  0  0  0
   -8.0260    0.5396  -12.6602 H   0  0  0  0  0  0  0  0  0  0  0  0
   -6.9402    1.8763  -12.3926 H   0  0  0  0  0  0  0  0  0  0  0  0
   -9.4121    2.5221  -12.7472 H   0  0  0  0  0  0  0  0  0  0  0  0
   -9.7559    1.7496  -11.2280 H   0  0  0  0  0  0  0  0  0  0  0  0
   -6.3184    1.0828   -8.8077 H   0  0  0  0  0  0  0  0  0  0  0  0
   -8.1812    0.1075  -10.2099 H   0  0  0  0  0  0  0  0  0  0  0  0
   -6.7318    6.5413  -12.5535 H   0  0  0  0  0  0  0  0  0  0  0  0
   -6.1104    5.5126  -13.8640 H   0  0  0  0  0  0  0  0  0  0  0  0
   -6.6283    7.1821  -14.1839 H   0  0  0  0  0  0  0  0  0  0  0  0
   -9.4576    5.0767  -15.5666 H   0  0  0  0  0  0  0  0  0  0  0  0
   -7.7706    4.5989  -15.6341 H   0  0  0  0  0  0  0  0  0  0  0  0
   -8.2239    6.2745  -16.0171 H   0  0  0  0  0  0  0  0  0  0  0  0
  -10.3204    6.5043  -13.6830 H   0  0  0  0  0  0  0  0  0  0  0  0
   -9.2221    7.1008  -12.4199 H   0  0  0  0  0  0  0  0  0  0  0  0
   -9.1649    7.7682  -14.0672 H   0  0  0  0  0  0  0  0  0  0  0  0
   -5.1478    1.9132  -10.5668 H   0  0  0  0  0  0  0  0  0  0  0  0
   -6.0614   -0.6687  -10.1060 H   0  0  0  0  0  0  0  0  0  0  0  0
  1  2  2  0  0  0  0
  1  3  1  0  0  0  0
  2  4  1  0  0  0  0
  3  5  2  0  0  0  0
  4  6  2  0  0  0  0
  5  6  1  0  0  0  0
  5 10  1  0  0  0  0
  6 16  1  0  0  0  0
  7 16  1  0  0  0  0
  7 17  2  0  0  0  0
  7 20  1  0  0  0  0
  8  9  1  0  0  0  0
  8 11  1  0  0  0  0
  9 16  1  0  0  0  0
 10 11  1  0  0  0  0
 10 18  1  1  0  0  0
 11 19  1  1  0  0  0
 12 15  1  0  0  0  0
 13 15  1  0  0  0  0
 14 15  1  0  0  0  0
 15 20  1  0  0  0  0
  1 21  1  0  0  0  0
  2 22  1  0  0  0  0
  3 23  1  0  0  0  0
  4 24  1  0  0  0  0
  8 25  1  0  0  0  0
  8 26  1  0  0  0  0
  9 27  1  0  0  0  0
  9 28  1  0  0  0  0
 10 29  1  0  0  0  0
 11 30  1  0  0  0  0
 12 31  1  0  0  0  0
 12 32  1  0  0  0  0
 12 33  1  0  0  0  0
 13 34  1  0  0  0  0
 13 35  1  0  0  0  0
 13 36  1  0  0  0  0
 14 37  1  0  0  0  0
 14 38  1  0  0  0  0
 14 39  1  0  0  0  0
 18 40  1  0  0  0  0
 19 41  1  0  0  0  0
M  END
> <id>
EN300-37397685

> <smiles>
CC(C)(C)OC(=O)N1CC[C@@H](O)[C@@H](O)C=2C=CC=CC12 |&1:10,12,r|

> <IUPAC Name>
rac-tert-butyl (4R,5S)-4,5-dihydroxy-2,3,4,5-tetrahydro-1H-1-benzazepine-1-carboxylate

> <URL>
https://www.enaminestore.com/catalog/EN300-37397685

> <ROCS_ShapeQuery>
_x0404_0B

> <ROCS_TanimotoCombo>
0.363 

> <ROCS_ShapeTanimoto>
0.219 

> <ROCS_ColorTanimoto>
0.144 

> <ROCS_RefTversky>
0.212 

> <ROCS_RefColorTversky>
0.146 

> <ROCS_RefTverskyCombo>
0.358 

> <ROCS_FitTversky>
1.186 

> <ROCS_FitColorTversky>
0.924 

> <ROCS_FitTverskyCombo>
2.110 

> <ROCS_ColorScore>
-10.513

> <ROCS_Overlap>
1415.182

> <ROCS_Rank>
492                 

$$$$
untitled-dbase-49914_0
  -OEChem-08212314543D

 30 33  0     1  0  0  0  0  0999 V2000
   -8.6036    6.4535  -12.6414 C   0  0  0  0  0  0  0  0  0  0  0  0
   -8.3557    3.6120  -12.6117 C   0  0  0  0  0  0  0  0  0  0  0  0
   -8.7318    5.7435  -11.4346 C   0  0  0  0  0  0  0  0  0  0  0  0
   -8.6004    4.3473  -11.4518 C   0  0  0  0  0  0  0  0  0  0  0  0
   -8.3450    5.7347  -13.8166 C   0  0  0  0  0  0  0  0  0  0  0  0
   -8.2462    4.3382  -13.8033 C   0  0  0  0  0  0  0  0  0  0  0  0
   -8.9960    5.1374   -9.4172 C   0  0  0  0  0  0  0  0  0  0  0  0
   -9.2000    4.8068   -7.9924 C   0  0  0  0  0  0  0  0  0  0  0  0
   -8.7933    2.7955   -9.3745 C   0  0  0  0  0  0  0  0  0  0  0  0
   -7.6130    5.7210  -16.0226 C   0  0  0  0  0  0  0  0  0  0  0  0
   -8.2735    4.3616  -16.1281 C   0  0  0  0  0  0  0  0  0  0  0  0
   -9.4783    3.2764   -8.0740 C   0  0  1  0  0  0  0  0  0  0  0  0
   -8.9789    6.2189  -10.1521 N   0  0  0  0  0  0  0  0  0  0  0  0
   -8.7704    4.0162  -10.1559 N   0  0  0  0  0  0  0  0  0  0  0  0
   -9.0138    2.5578   -6.9003 N   0  0  0  0  0  0  0  0  0  0  0  0
   -8.2075    6.4760  -14.9643 O   0  0  0  0  0  0  0  0  0  0  0  0
   -8.0280    3.6019  -14.9424 O   0  0  0  0  0  0  0  0  0  0  0  0
   -8.6925    7.5355  -12.6574 H   0  0  0  0  0  0  0  0  0  0  0  0
   -8.2681    2.5311  -12.5907 H   0  0  0  0  0  0  0  0  0  0  0  0
   -8.2907    5.0292   -7.4232 H   0  0  0  0  0  0  0  0  0  0  0  0
  -10.0427    5.3439   -7.5484 H   0  0  0  0  0  0  0  0  0  0  0  0
   -7.7543    2.4821   -9.2305 H   0  0  0  0  0  0  0  0  0  0  0  0
   -9.3680    2.0294   -9.9008 H   0  0  0  0  0  0  0  0  0  0  0  0
   -6.5364    5.6347  -15.8305 H   0  0  0  0  0  0  0  0  0  0  0  0
   -7.7507    6.2837  -16.9512 H   0  0  0  0  0  0  0  0  0  0  0  0
   -9.3578    4.4478  -16.2718 H   0  0  0  0  0  0  0  0  0  0  0  0
   -7.8603    3.8028  -16.9734 H   0  0  0  0  0  0  0  0  0  0  0  0
  -10.5583    3.1258   -8.1729 H   0  0  0  0  0  0  0  0  0  0  0  0
   -9.4868    2.9153   -6.1017 H   0  0  0  0  0  0  0  0  0  0  0  0
   -9.2176    1.5916   -7.0193 H   0  0  0  0  0  0  0  0  0  0  0  0
  1  3  2  0  0  0  0
  1  5  1  0  0  0  0
  2  4  2  0  0  0  0
  2  6  1  0  0  0  0
  3  4  1  0  0  0  0
  3 13  1  0  0  0  0
  4 14  1  0  0  0  0
  5  6  2  0  0  0  0
  5 16  1  0  0  0  0
  6 17  1  0  0  0  0
  7  8  1  0  0  0  0
  7 13  2  0  0  0  0
  7 14  1  0  0  0  0
  8 12  1  0  0  0  0
  9 12  1  0  0  0  0
  9 14  1  0  0  0  0
 10 11  1  0  0  0  0
 10 16  1  0  0  0  0
 11 17  1  0  0  0  0
 12 15  1  0  0  0  0
  1 18  1  0  0  0  0
  2 19  1  0  0  0  0
  8 20  1  0  0  0  0
  8 21  1  0  0  0  0
  9 22  1  0  0  0  0
  9 23  1  0  0  0  0
 10 24  1  0  0  0  0
 10 25  1  0  0  0  0
 11 26  1  0  0  0  0
 11 27  1  0  0  0  0
 12 28  1  0  0  0  0
 15 29  1  0  0  0  0
 15 30  1  0  0  0  0
M  END
> <id>
EN300-37334723

> <smiles>
NC1CC2=NC=3C=C4OCCOC4=CC3N2C1

> <MDLNUMBER>
MFCD34601209

> <IUPAC Name>
4,7-dioxa-11,16-diazatetracyclo[8.6.0.0^{3,8}.0^{11,15}]hexadeca-1,3(8),9,15-tetraen-13-amine

> <CAS>
2757956-57-1

> <URL>
https://www.enaminestore.com/catalog/EN300-37334723

> <ROCS_ShapeQuery>
_x0404_0B

> <ROCS_TanimotoCombo>
0.363 

> <ROCS_ShapeTanimoto>
0.279 

> <ROCS_ColorTanimoto>
0.084 

> <ROCS_RefTversky>
0.255 

> <ROCS_RefColorTversky>
0.092 

> <ROCS_RefTverskyCombo>
0.347 

> <ROCS_FitTversky>
1.513 

> <ROCS_FitColorTversky>
0.499 

> <ROCS_FitTverskyCombo>
2.012 

> <ROCS_ColorScore>
-6.672

> <ROCS_Overlap>
1698.390

> <ROCS_Rank>
493                 

$$$$
untitled-dbase-29960_0
  -OEChem-08212314543D

 30 33  0     1  0  0  0  0  0999 V2000
   -8.6036    6.4535  -12.6414 C   0  0  0  0  0  0  0  0  0  0  0  0
   -8.3557    3.6120  -12.6117 C   0  0  0  0  0  0  0  0  0  0  0  0
   -8.7318    5.7435  -11.4346 C   0  0  0  0  0  0  0  0  0  0  0  0
   -8.6004    4.3473  -11.4518 C   0  0  0  0  0  0  0  0  0  0  0  0
   -8.3450    5.7347  -13.8166 C   0  0  0  0  0  0  0  0  0  0  0  0
   -8.2462    4.3382  -13.8033 C   0  0  0  0  0  0  0  0  0  0  0  0
   -8.9960    5.1374   -9.4172 C   0  0  0  0  0  0  0  0  0  0  0  0
   -9.2000    4.8068   -7.9924 C   0  0  0  0  0  0  0  0  0  0  0  0
   -8.7933    2.7955   -9.3745 C   0  0  0  0  0  0  0  0  0  0  0  0
   -7.6130    5.7210  -16.0226 C   0  0  0  0  0  0  0  0  0  0  0  0
   -8.2735    4.3616  -16.1281 C   0  0  0  0  0  0  0  0  0  0  0  0
   -9.4783    3.2764   -8.0740 C   0  0  1  0  0  0  0  0  0  0  0  0
   -8.9789    6.2189  -10.1521 N   0  0  0  0  0  0  0  0  0  0  0  0
   -8.7704    4.0162  -10.1559 N   0  0  0  0  0  0  0  0  0  0  0  0
   -9.0138    2.5578   -6.9003 N   0  0  0  0  0  0  0  0  0  0  0  0
   -8.2075    6.4760  -14.9643 O   0  0  0  0  0  0  0  0  0  0  0  0
   -8.0280    3.6019  -14.9424 O   0  0  0  0  0  0  0  0  0  0  0  0
   -8.6925    7.5355  -12.6574 H   0  0  0  0  0  0  0  0  0  0  0  0
   -8.2681    2.5311  -12.5907 H   0  0  0  0  0  0  0  0  0  0  0  0
   -8.2907    5.0292   -7.4232 H   0  0  0  0  0  0  0  0  0  0  0  0
  -10.0427    5.3439   -7.5484 H   0  0  0  0  0  0  0  0  0  0  0  0
   -7.7543    2.4821   -9.2305 H   0  0  0  0  0  0  0  0  0  0  0  0
   -9.3680    2.0294   -9.9008 H   0  0  0  0  0  0  0  0  0  0  0  0
   -6.5364    5.6347  -15.8305 H   0  0  0  0  0  0  0  0  0  0  0  0
   -7.7507    6.2837  -16.9512 H   0  0  0  0  0  0  0  0  0  0  0  0
   -9.3578    4.4478  -16.2718 H   0  0  0  0  0  0  0  0  0  0  0  0
   -7.8603    3.8028  -16.9734 H   0  0  0  0  0  0  0  0  0  0  0  0
  -10.5583    3.1258   -8.1729 H   0  0  0  0  0  0  0  0  0  0  0  0
   -9.4868    2.9153   -6.1017 H   0  0  0  0  0  0  0  0  0  0  0  0
   -9.2176    1.5916   -7.0193 H   0  0  0  0  0  0  0  0  0  0  0  0
  1  3  2  0  0  0  0
  1  5  1  0  0  0  0
  2  4  2  0  0  0  0
  2  6  1  0  0  0  0
  3  4  1  0  0  0  0
  3 13  1  0  0  0  0
  4 14  1  0  0  0  0
  5  6  2  0  0  0  0
  5 16  1  0  0  0  0
  6 17  1  0  0  0  0
  7  8  1  0  0  0  0
  7 13  2  0  0  0  0
  7 14  1  0  0  0  0
  8 12  1  0  0  0  0
  9 12  1  0  0  0  0
  9 14  1  0  0  0  0
 10 11  1  0  0  0  0
 10 16  1  0  0  0  0
 11 17  1  0  0  0  0
 12 15  1  0  0  0  0
  1 18  1  0  0  0  0
  2 19  1  0  0  0  0
  8 20  1  0  0  0  0
  8 21  1  0  0  0  0
  9 22  1  0  0  0  0
  9 23  1  0  0  0  0
 10 24  1  0  0  0  0
 10 25  1  0  0  0  0
 11 26  1  0  0  0  0
 11 27  1  0  0  0  0
 12 28  1  0  0  0  0
 15 29  1  0  0  0  0
 15 30  1  0  0  0  0
M  END
> <id>
EN300-37334722

> <smiles>
Cl.Cl.NC1CC2=NC=3C=C4OCCOC4=CC3N2C1

> <MDLNUMBER>
MFCD34600777

> <IUPAC Name>
4,7-dioxa-11,16-diazatetracyclo[8.6.0.0^{3,8}.0^{11,15}]hexadeca-1,3(8),9,15-tetraen-13-amine dihydrochloride

> <CAS>
2758001-89-5

> <Purity>
95

> <URL>
https://www.enaminestore.com/catalog/EN300-37334722

> <Saltdate>
Cl

> <ROCS_ShapeQuery>
_x0404_0B

> <ROCS_TanimotoCombo>
0.363 

> <ROCS_ShapeTanimoto>
0.279 

> <ROCS_ColorTanimoto>
0.084 

> <ROCS_RefTversky>
0.255 

> <ROCS_RefColorTversky>
0.092 

> <ROCS_RefTverskyCombo>
0.347 

> <ROCS_FitTversky>
1.513 

> <ROCS_FitColorTversky>
0.499 

> <ROCS_FitTverskyCombo>
2.012 

> <ROCS_ColorScore>
-6.672

> <ROCS_Overlap>
1698.390

> <ROCS_Rank>
494                 

$$$$
untitled-dbase-12236_4
  -OEChem-08212314543D

 36 38  0     1  0  0  0  0  0999 V2000
   -8.3249    3.8511  -11.8369 C   0  0  0  0  0  0  0  0  0  0  0  0
   -8.7477    4.7607  -10.8677 C   0  0  0  0  0  0  0  0  0  0  0  0
   -8.6594    6.5443  -12.4959 C   0  0  0  0  0  0  0  0  0  0  0  0
   -8.0725    4.2955  -13.1378 C   0  0  0  0  0  0  0  0  0  0  0  0
   -8.2533    5.6350  -13.4745 C   0  0  0  0  0  0  0  0  0  0  0  0
   -8.9104    6.1063  -11.1953 C   0  0  0  0  0  0  0  0  0  0  0  0
   -7.5768    3.3644  -14.1636 C   0  0  0  0  0  0  0  0  0  0  0  0
   -7.2197    3.9691  -15.4973 C   0  0  0  0  0  0  0  0  0  0  0  0
   -9.7675    4.1664  -17.4666 C   0  0  0  0  0  0  0  0  0  0  0  0
   -9.2308    5.0228  -18.6086 C   0  0  0  0  0  0  0  0  0  0  0  0
   -9.5623    4.8474  -16.1168 C   0  0  0  0  0  0  0  0  0  0  0  0
   -7.5005    5.9846  -17.0217 C   0  0  0  0  0  0  0  0  0  0  0  0
   -7.7609    5.4165  -18.4262 C   0  0  1  0  0  0  0  0  0  0  0  0
   -8.0855    5.1971  -15.8209 C   0  0  2  0  0  0  0  0  0  0  0  0
   -6.8135    4.2807  -18.8135 C   0  0  0  0  0  0  0  0  0  0  0  0
   -7.4116    2.1752  -13.9169 O   0  0  0  0  0  0  0  0  0  0  0  0
   -8.0344    6.1413  -14.7241 O   0  0  0  0  0  0  0  0  0  0  0  0
   -9.3129    6.9936  -10.2450 O   0  0  0  0  0  0  0  0  0  0  0  0
   -8.2079    2.8062  -11.5638 H   0  0  0  0  0  0  0  0  0  0  0  0
   -8.9556    4.4131   -9.8595 H   0  0  0  0  0  0  0  0  0  0  0  0
   -8.7708    7.5975  -12.7428 H   0  0  0  0  0  0  0  0  0  0  0  0
   -6.1553    4.2402  -15.4891 H   0  0  0  0  0  0  0  0  0  0  0  0
   -7.3646    3.1776  -16.2467 H   0  0  0  0  0  0  0  0  0  0  0  0
  -10.8329    3.9672  -17.6276 H   0  0  0  0  0  0  0  0  0  0  0  0
   -9.2600    3.1958  -17.4684 H   0  0  0  0  0  0  0  0  0  0  0  0
   -9.3545    4.4729  -19.5581 H   0  0  0  0  0  0  0  0  0  0  0  0
   -9.8520    5.9294  -18.7020 H   0  0  0  0  0  0  0  0  0  0  0  0
  -10.1716    5.7647  -16.1037 H   0  0  0  0  0  0  0  0  0  0  0  0
   -9.9573    4.1943  -15.3224 H   0  0  0  0  0  0  0  0  0  0  0  0
   -6.3958    6.0941  -16.8757 H   0  0  0  0  0  0  0  0  0  0  0  0
   -7.8758    7.0371  -17.0091 H   0  0  0  0  0  0  0  0  0  0  0  0
   -7.5625    6.2543  -19.1643 H   0  0  0  0  0  0  0  0  0  0  0  0
   -6.9537    3.4382  -18.1388 H   0  0  0  0  0  0  0  0  0  0  0  0
   -5.7824    4.6232  -18.7481 H   0  0  0  0  0  0  0  0  0  0  0  0
   -7.0201    3.9606  -19.8330 H   0  0  0  0  0  0  0  0  0  0  0  0
   -9.4449    6.5410   -9.3967 H   0  0  0  0  0  0  0  0  0  0  0  0
  1  2  1  0  0  0  0
  1  4  2  0  0  0  0
  2  6  2  0  0  0  0
  3  5  2  0  0  0  0
  3  6  1  0  0  0  0
  4  5  1  0  0  0  0
  4  7  1  0  0  0  0
  5 17  1  0  0  0  0
  6 18  1  0  0  0  0
  7  8  1  0  0  0  0
  7 16  2  0  0  0  0
  8 14  1  0  0  0  0
  9 10  1  0  0  0  0
  9 11  1  0  0  0  0
 10 13  1  0  0  0  0
 11 14  1  0  0  0  0
 12 13  1  0  0  0  0
 12 14  1  0  0  0  0
 13 15  1  0  0  0  0
 14 17  1  0  0  0  0
  1 19  1  0  0  0  0
  2 20  1  0  0  0  0
  3 21  1  0  0  0  0
  8 22  1  0  0  0  0
  8 23  1  0  0  0  0
  9 24  1  0  0  0  0
  9 25  1  0  0  0  0
 10 26  1  0  0  0  0
 10 27  1  0  0  0  0
 11 28  1  0  0  0  0
 11 29  1  0  0  0  0
 12 30  1  0  0  0  0
 12 31  1  0  0  0  0
 13 32  1  0  0  0  0
 15 33  1  0  0  0  0
 15 34  1  0  0  0  0
 15 35  1  0  0  0  0
 18 36  1  0  0  0  0
M  END
> <id>
EN300-717721

> <smiles>
CC1CCCC2(C1)CC(=O)C=3C=CC(O)=CC3O2

> <IUPAC Name>
7-hydroxy-5'-methyl-3,4-dihydrospiro[1-benzopyran-2,1'-cyclohexane]-4-one

> <CAS>
1269285-05-3

> <URL>
https://www.enaminestore.com/catalog/EN300-717721

> <ROCS_ShapeQuery>
_x0404_0B

> <ROCS_TanimotoCombo>
0.363 

> <ROCS_ShapeTanimoto>
0.277 

> <ROCS_ColorTanimoto>
0.086 

> <ROCS_RefTversky>
0.254 

> <ROCS_RefColorTversky>
0.091 

> <ROCS_RefTverskyCombo>
0.344 

> <ROCS_FitTversky>
1.509 

> <ROCS_FitColorTversky>
0.627 

> <ROCS_FitTverskyCombo>
2.136 

> <ROCS_ColorScore>
-6.544

> <ROCS_Overlap>
1690.233

> <ROCS_Rank>
495                 

$$$$
untitled-dbase-8496_4
  -OEChem-08212314543D

 36 38  0     1  0  0  0  0  0999 V2000
   -8.3251    3.8506  -11.8369 C   0  0  0  0  0  0  0  0  0  0  0  0
   -8.7483    4.7600  -10.8677 C   0  0  0  0  0  0  0  0  0  0  0  0
   -8.6603    6.5436  -12.4959 C   0  0  0  0  0  0  0  0  0  0  0  0
   -8.0725    4.2951  -13.1377 C   0  0  0  0  0  0  0  0  0  0  0  0
   -8.2537    5.6346  -13.4744 C   0  0  0  0  0  0  0  0  0  0  0  0
   -8.9115    6.1056  -11.1953 C   0  0  0  0  0  0  0  0  0  0  0  0
   -7.5763    3.3641  -14.1634 C   0  0  0  0  0  0  0  0  0  0  0  0
   -7.2190    3.9690  -15.4969 C   0  0  0  0  0  0  0  0  0  0  0  0
   -9.7668    4.1671  -17.4673 C   0  0  0  0  0  0  0  0  0  0  0  0
   -9.2301    5.0244  -18.6085 C   0  0  0  0  0  0  0  0  0  0  0  0
   -9.5615    4.8472  -16.1171 C   0  0  0  0  0  0  0  0  0  0  0  0
   -7.4992    5.9843  -17.0213 C   0  0  0  0  0  0  0  0  0  0  0  0
   -7.7600    5.4170  -18.4260 C   0  0  1  0  0  0  0  0  0  0  0  0
   -8.0848    5.1968  -15.8208 C   0  0  2  0  0  0  0  0  0  0  0  0
   -6.8136    4.2806  -18.8140 C   0  0  0  0  0  0  0  0  0  0  0  0
   -7.4108    2.1750  -13.9168 O   0  0  0  0  0  0  0  0  0  0  0  0
   -8.0342    6.1411  -14.7239 O   0  0  0  0  0  0  0  0  0  0  0  0
   -9.3146    6.9927  -10.2451 O   0  0  0  0  0  0  0  0  0  0  0  0
   -8.2073    2.8058  -11.5637 H   0  0  0  0  0  0  0  0  0  0  0  0
   -8.9563    4.4122   -9.8596 H   0  0  0  0  0  0  0  0  0  0  0  0
   -8.7720    7.5968  -12.7427 H   0  0  0  0  0  0  0  0  0  0  0  0
   -6.1545    4.2402  -15.4884 H   0  0  0  0  0  0  0  0  0  0  0  0
   -7.3630    3.1775  -16.2468 H   0  0  0  0  0  0  0  0  0  0  0  0
  -10.8323    3.9682  -17.6286 H   0  0  0  0  0  0  0  0  0  0  0  0
   -9.2598    3.1964  -17.4699 H   0  0  0  0  0  0  0  0  0  0  0  0
   -9.3542    4.4753  -19.5585 H   0  0  0  0  0  0  0  0  0  0  0  0
   -9.8509    5.9314  -18.7009 H   0  0  0  0  0  0  0  0  0  0  0  0
  -10.1711    5.7644  -16.1032 H   0  0  0  0  0  0  0  0  0  0  0  0
   -9.9563    4.1934  -15.3232 H   0  0  0  0  0  0  0  0  0  0  0  0
   -6.3947    6.0926  -16.8753 H   0  0  0  0  0  0  0  0  0  0  0  0
   -7.8741    7.0370  -17.0083 H   0  0  0  0  0  0  0  0  0  0  0  0
   -7.5613    6.2551  -19.1638 H   0  0  0  0  0  0  0  0  0  0  0  0
   -6.9544    3.4379  -18.1396 H   0  0  0  0  0  0  0  0  0  0  0  0
   -5.7823    4.6222  -18.7487 H   0  0  0  0  0  0  0  0  0  0  0  0
   -7.0207    3.9611  -19.8336 H   0  0  0  0  0  0  0  0  0  0  0  0
   -9.4467    6.5400   -9.3969 H   0  0  0  0  0  0  0  0  0  0  0  0
  1  2  1  0  0  0  0
  1  4  2  0  0  0  0
  2  6  2  0  0  0  0
  3  5  2  0  0  0  0
  3  6  1  0  0  0  0
  4  5  1  0  0  0  0
  4  7  1  0  0  0  0
  5 17  1  0  0  0  0
  6 18  1  0  0  0  0
  7  8  1  0  0  0  0
  7 16  2  0  0  0  0
  8 14  1  0  0  0  0
  9 10  1  0  0  0  0
  9 11  1  0  0  0  0
 10 13  1  0  0  0  0
 11 14  1  6  0  0  0
 12 13  1  0  0  0  0
 12 14  1  0  0  0  0
 13 15  1  0  0  0  0
 14 17  1  0  0  0  0
  1 19  1  0  0  0  0
  2 20  1  0  0  0  0
  3 21  1  0  0  0  0
  8 22  1  0  0  0  0
  8 23  1  0  0  0  0
  9 24  1  0  0  0  0
  9 25  1  0  0  0  0
 10 26  1  0  0  0  0
 10 27  1  0  0  0  0
 11 28  1  0  0  0  0
 11 29  1  0  0  0  0
 12 30  1  0  0  0  0
 12 31  1  0  0  0  0
 13 32  1  0  0  0  0
 15 33  1  0  0  0  0
 15 34  1  0  0  0  0
 15 35  1  0  0  0  0
 18 36  1  0  0  0  0
M  END
> <id>
EN300-302507

> <smiles>
CC1CCC[C@]2(C1)CC(=O)C=3C=CC(O)=CC3O2

> <MDLNUMBER>
MFCD15730782

> <IUPAC Name>
(2S)-7-hydroxy-5'-methyl-3,4-dihydrospiro[1-benzopyran-2,1'-cyclohexane]-4-one

> <CAS>
1242843-10-2

> <URL>
https://www.enaminestore.com/catalog/EN300-302507

> <ROCS_ShapeQuery>
_x0404_0B

> <ROCS_TanimotoCombo>
0.363 

> <ROCS_ShapeTanimoto>
0.277 

> <ROCS_ColorTanimoto>
0.086 

> <ROCS_RefTversky>
0.254 

> <ROCS_RefColorTversky>
0.091 

> <ROCS_RefTverskyCombo>
0.344 

> <ROCS_FitTversky>
1.509 

> <ROCS_FitColorTversky>
0.627 

> <ROCS_FitTverskyCombo>
2.136 

> <ROCS_ColorScore>
-6.544

> <ROCS_Overlap>
1690.211

> <ROCS_Rank>
496                 

$$$$
untitled-dbase-26160_17
  -OEChem-08212314543D

 48 50  0     1  0  0  0  0  0999 V2000
   -8.9633    4.9075  -13.9533 C   0  0  0  0  0  0  0  0  0  0  0  0
   -9.6132    2.1944   -8.6213 C   0  0  0  0  0  0  0  0  0  0  0  0
   -9.4126    3.0853   -7.4033 C   0  0  0  0  0  0  0  0  0  0  0  0
   -9.5116    6.9180  -11.0116 C   0  0  0  0  0  0  0  0  0  0  0  0
   -7.9751    6.9118  -11.1514 C   0  0  0  0  0  0  0  0  0  0  0  0
   -8.6218    2.5739   -9.7178 C   0  0  0  0  0  0  0  0  0  0  0  0
  -10.0336    4.4092  -10.8295 C   0  0  0  0  0  0  0  0  0  0  0  0
   -7.4703    4.3932  -11.0441 C   0  0  0  0  0  0  0  0  0  0  0  0
   -9.4516    4.5596   -7.7881 C   0  0  0  0  0  0  0  0  0  0  0  0
   -9.9771    5.6539  -11.7413 C   0  0  2  0  0  0  0  0  0  0  0  0
   -7.6588    5.6373  -11.9389 C   0  0  1  0  0  0  0  0  0  0  0  0
   -8.6848    4.0766  -10.0965 C   0  0  0  0  0  0  0  0  0  0  0  0
   -8.3066    6.3334  -16.3417 C   0  0  0  0  0  0  0  0  0  0  0  0
   -6.2676    4.8694  -16.4346 C   0  0  0  0  0  0  0  0  0  0  0  0
   -8.5540    3.8400  -16.5795 C   0  0  0  0  0  0  0  0  0  0  0  0
   -7.7209    4.9702  -15.9765 C   0  0  0  0  0  0  0  0  0  0  0  0
   -8.5123    4.8812   -8.8638 N   0  0  0  0  0  0  0  0  0  0  0  0
   -8.8886    5.4265  -12.6758 N   0  0  0  0  0  0  0  0  0  0  0  0
  -10.0079    4.5528  -14.4946 O   0  0  0  0  0  0  0  0  0  0  0  0
   -7.7342    4.8357  -14.5510 O   0  0  0  0  0  0  0  0  0  0  0  0
   -9.4737    1.1445   -8.3408 H   0  0  0  0  0  0  0  0  0  0  0  0
  -10.6407    2.2920   -8.9906 H   0  0  0  0  0  0  0  0  0  0  0  0
  -10.1861    2.8745   -6.6563 H   0  0  0  0  0  0  0  0  0  0  0  0
   -8.4468    2.8531   -6.9371 H   0  0  0  0  0  0  0  0  0  0  0  0
   -9.8689    6.9905   -9.9819 H   0  0  0  0  0  0  0  0  0  0  0  0
   -9.9007    7.8023  -11.5329 H   0  0  0  0  0  0  0  0  0  0  0  0
   -7.6815    7.7862  -11.7469 H   0  0  0  0  0  0  0  0  0  0  0  0
   -7.4351    6.9958  -10.2056 H   0  0  0  0  0  0  0  0  0  0  0  0
   -7.6088    2.3238   -9.3733 H   0  0  0  0  0  0  0  0  0  0  0  0
   -8.8077    1.9505  -10.6015 H   0  0  0  0  0  0  0  0  0  0  0  0
  -10.8615    4.5239  -10.1226 H   0  0  0  0  0  0  0  0  0  0  0  0
  -10.3124    3.5516  -11.4581 H   0  0  0  0  0  0  0  0  0  0  0  0
   -7.2949    3.5305  -11.7024 H   0  0  0  0  0  0  0  0  0  0  0  0
   -6.5507    4.5050  -10.4540 H   0  0  0  0  0  0  0  0  0  0  0  0
  -10.4710    4.8590   -8.0529 H   0  0  0  0  0  0  0  0  0  0  0  0
   -9.1812    5.1550   -6.9085 H   0  0  0  0  0  0  0  0  0  0  0  0
  -10.9340    5.7983  -12.2516 H   0  0  0  0  0  0  0  0  0  0  0  0
   -6.8021    5.7595  -12.6093 H   0  0  0  0  0  0  0  0  0  0  0  0
   -9.3497    6.4097  -16.0145 H   0  0  0  0  0  0  0  0  0  0  0  0
   -7.7387    7.1514  -15.8866 H   0  0  0  0  0  0  0  0  0  0  0  0
   -8.3120    6.4783  -17.4281 H   0  0  0  0  0  0  0  0  0  0  0  0
   -5.8434    3.8929  -16.1746 H   0  0  0  0  0  0  0  0  0  0  0  0
   -5.6468    5.6195  -15.9313 H   0  0  0  0  0  0  0  0  0  0  0  0
   -6.1741    5.0112  -17.5161 H   0  0  0  0  0  0  0  0  0  0  0  0
   -8.1341    2.8621  -16.3177 H   0  0  0  0  0  0  0  0  0  0  0  0
   -9.5918    3.8746  -16.2326 H   0  0  0  0  0  0  0  0  0  0  0  0
   -8.5507    3.8949  -17.6741 H   0  0  0  0  0  0  0  0  0  0  0  0
   -8.5428    5.8762   -9.0335 H   0  0  0  0  0  0  0  0  0  0  0  0
  1 18  1  0  0  0  0
  1 19  2  0  0  0  0
  1 20  1  0  0  0  0
  2  3  1  0  0  0  0
  2  6  1  0  0  0  0
  3  9  1  0  0  0  0
  4  5  1  0  0  0  0
  4 10  1  0  0  0  0
  5 11  1  0  0  0  0
  6 12  1  0  0  0  0
  7 10  1  0  0  0  0
  7 12  1  0  0  0  0
  8 11  1  0  0  0  0
  8 12  1  0  0  0  0
  9 17  1  0  0  0  0
 10 18  1  0  0  0  0
 11 18  1  0  0  0  0
 12 17  1  0  0  0  0
 13 16  1  0  0  0  0
 14 16  1  0  0  0  0
 15 16  1  0  0  0  0
 16 20  1  0  0  0  0
  2 21  1  0  0  0  0
  2 22  1  0  0  0  0
  3 23  1  0  0  0  0
  3 24  1  0  0  0  0
  4 25  1  0  0  0  0
  4 26  1  0  0  0  0
  5 27  1  0  0  0  0
  5 28  1  0  0  0  0
  6 29  1  0  0  0  0
  6 30  1  0  0  0  0
  7 31  1  0  0  0  0
  7 32  1  0  0  0  0
  8 33  1  0  0  0  0
  8 34  1  0  0  0  0
  9 35  1  0  0  0  0
  9 36  1  0  0  0  0
 10 37  1  0  0  0  0
 11 38  1  0  0  0  0
 13 39  1  0  0  0  0
 13 40  1  0  0  0  0
 13 41  1  0  0  0  0
 14 42  1  0  0  0  0
 14 43  1  0  0  0  0
 14 44  1  0  0  0  0
 15 45  1  0  0  0  0
 15 46  1  0  0  0  0
 15 47  1  0  0  0  0
 17 48  1  0  0  0  0
M  END
> <id>
EN300-6738470

> <smiles>
CC(C)(C)OC(=O)N1C2CCC1CC3(CCCCN3)C2

> <MDLNUMBER>
MFCD31746496

> <IUPAC Name>
tert-butyl 8-azaspiro[bicyclo[3.2.1]octane-3,2'-piperidine]-8-carboxylate

> <CAS>
2287345-38-2

> <Purity>
95

> <URL>
https://www.enaminestore.com/catalog/EN300-6738470

> <ROCS_ShapeQuery>
_x0404_0B

> <ROCS_TanimotoCombo>
0.363 

> <ROCS_ShapeTanimoto>
0.291 

> <ROCS_ColorTanimoto>
0.072 

> <ROCS_RefTversky>
0.266 

> <ROCS_RefColorTversky>
0.080 

> <ROCS_RefTverskyCombo>
0.346 

> <ROCS_FitTversky>
1.486 

> <ROCS_FitColorTversky>
0.414 

> <ROCS_FitTverskyCombo>
1.899 

> <ROCS_ColorScore>
-5.806

> <ROCS_Overlap>
1773.366

> <ROCS_Rank>
497                 

$$$$
untitled-dbase-16409_12
  -OEChem-08212314543D

 44 47  0     1  0  0  0  0  0999 V2000
   -7.9643    6.0953  -15.5615 C   0  0  0  0  0  0  0  0  0  0  0  0
   -7.0197    5.6656  -14.4446 C   0  0  0  0  0  0  0  0  0  0  0  0
   -9.4085    5.7049  -15.2687 C   0  0  0  0  0  0  0  0  0  0  0  0
  -10.1392    3.3146   -7.1820 C   0  0  0  0  0  0  0  0  0  0  0  0
   -8.6489    3.2842   -6.8570 C   0  0  0  0  0  0  0  0  0  0  0  0
   -7.4846    6.1791  -13.0816 C   0  0  0  0  0  0  0  0  0  0  0  0
   -9.8684    6.2254  -13.9073 C   0  0  0  0  0  0  0  0  0  0  0  0
  -10.1618    4.3000   -9.5337 C   0  0  0  0  0  0  0  0  0  0  0  0
   -7.7052    4.3307   -8.9741 C   0  0  0  0  0  0  0  0  0  0  0  0
   -9.0940    4.2680  -12.4805 C   0  0  0  0  0  0  0  0  0  0  0  0
   -9.3875    6.5151  -11.4561 C   0  0  0  0  0  0  0  0  0  0  0  0
  -10.2105    3.0115   -8.6813 C   0  0  1  0  0  0  0  0  0  0  0  0
   -7.9745    3.0181   -8.2041 C   0  0  2  0  0  0  0  0  0  0  0  0
   -8.9487    5.7876  -12.7430 C   0  0  0  0  0  0  0  0  0  0  0  0
   -8.7487    4.6491  -10.0825 C   0  0  0  0  0  0  0  0  0  0  0  0
   -8.4015    3.8294  -11.2662 N   0  0  0  0  0  0  0  0  0  0  0  0
   -8.9930    2.2134   -8.8999 N   0  0  0  0  0  0  0  0  0  0  0  0
   -8.6328    6.0606  -10.3337 O   0  0  0  0  0  0  0  0  0  0  0  0
   -7.9020    7.1832  -15.6901 H   0  0  0  0  0  0  0  0  0  0  0  0
   -7.6448    5.6453  -16.5083 H   0  0  0  0  0  0  0  0  0  0  0  0
   -6.9375    4.5731  -14.4288 H   0  0  0  0  0  0  0  0  0  0  0  0
   -6.0142    6.0492  -14.6529 H   0  0  0  0  0  0  0  0  0  0  0  0
  -10.0605    6.1093  -16.0515 H   0  0  0  0  0  0  0  0  0  0  0  0
   -9.5123    4.6146  -15.3092 H   0  0  0  0  0  0  0  0  0  0  0  0
  -10.6487    2.5270   -6.6130 H   0  0  0  0  0  0  0  0  0  0  0  0
  -10.6112    4.2648   -6.9163 H   0  0  0  0  0  0  0  0  0  0  0  0
   -8.3003    4.2024   -6.3771 H   0  0  0  0  0  0  0  0  0  0  0  0
   -8.4481    2.4575   -6.1651 H   0  0  0  0  0  0  0  0  0  0  0  0
   -6.7895    5.8248  -12.3116 H   0  0  0  0  0  0  0  0  0  0  0  0
   -7.3979    7.2745  -13.0847 H   0  0  0  0  0  0  0  0  0  0  0  0
   -9.9027    7.3220  -13.9504 H   0  0  0  0  0  0  0  0  0  0  0  0
  -10.8977    5.8928  -13.7249 H   0  0  0  0  0  0  0  0  0  0  0  0
  -10.8569    4.1613  -10.3757 H   0  0  0  0  0  0  0  0  0  0  0  0
  -10.5714    5.1214   -8.9348 H   0  0  0  0  0  0  0  0  0  0  0  0
   -7.6665    5.1583   -8.2516 H   0  0  0  0  0  0  0  0  0  0  0  0
   -6.7004    4.2498   -9.4159 H   0  0  0  0  0  0  0  0  0  0  0  0
  -10.1605    3.9931  -12.4148 H   0  0  0  0  0  0  0  0  0  0  0  0
   -8.6975    3.6826  -13.3232 H   0  0  0  0  0  0  0  0  0  0  0  0
   -9.2193    7.5920  -11.5446 H   0  0  0  0  0  0  0  0  0  0  0  0
  -10.4544    6.3823  -11.2616 H   0  0  0  0  0  0  0  0  0  0  0  0
  -11.1140    2.4474   -8.9213 H   0  0  0  0  0  0  0  0  0  0  0  0
   -7.0422    2.4715   -8.0694 H   0  0  0  0  0  0  0  0  0  0  0  0
   -8.6126    2.8496  -11.0856 H   0  0  0  0  0  0  0  0  0  0  0  0
   -9.0935    1.3224   -8.4153 H   0  0  0  0  0  0  0  0  0  0  0  0
  1  2  1  0  0  0  0
  1  3  1  0  0  0  0
  2  6  1  0  0  0  0
  3  7  1  0  0  0  0
  4  5  1  0  0  0  0
  4 12  1  0  0  0  0
  5 13  1  0  0  0  0
  6 14  1  0  0  0  0
  7 14  1  0  0  0  0
  8 12  1  0  0  0  0
  8 15  1  0  0  0  0
  9 13  1  0  0  0  0
  9 15  1  0  0  0  0
 10 14  1  0  0  0  0
 10 16  1  0  0  0  0
 11 14  1  0  0  0  0
 11 18  1  0  0  0  0
 12 17  1  0  0  0  0
 13 17  1  0  0  0  0
 15 16  1  0  0  0  0
 15 18  1  0  0  0  0
  1 19  1  0  0  0  0
  1 20  1  0  0  0  0
  2 21  1  0  0  0  0
  2 22  1  0  0  0  0
  3 23  1  0  0  0  0
  3 24  1  0  0  0  0
  4 25  1  0  0  0  0
  4 26  1  0  0  0  0
  5 27  1  0  0  0  0
  5 28  1  0  0  0  0
  6 29  1  0  0  0  0
  6 30  1  0  0  0  0
  7 31  1  0  0  0  0
  7 32  1  0  0  0  0
  8 33  1  0  0  0  0
  8 34  1  0  0  0  0
  9 35  1  0  0  0  0
  9 36  1  0  0  0  0
 10 37  1  0  0  0  0
 10 38  1  0  0  0  0
 11 39  1  0  0  0  0
 11 40  1  0  0  0  0
 12 41  1  0  0  0  0
 13 42  1  0  0  0  0
 16 43  1  0  0  0  0
 17 44  1  0  0  0  0
M  END
> <id>
EN300-1279942

> <smiles>
C1CC2CC3(CC1N2)NCC4(CCCCC4)CO3

> <IUPAC Name>
dispiro[8-azabicyclo[3.2.1]octane-3,2'-[1,3]oxazinane-5',1''-cyclohexane]

> <URL>
https://www.enaminestore.com/catalog/EN300-1279942

> <ROCS_ShapeQuery>
_x0404_0B

> <ROCS_TanimotoCombo>
0.363 

> <ROCS_ShapeTanimoto>
0.253 

> <ROCS_ColorTanimoto>
0.111 

> <ROCS_RefTversky>
0.235 

> <ROCS_RefColorTversky>
0.121 

> <ROCS_RefTverskyCombo>
0.357 

> <ROCS_FitTversky>
1.407 

> <ROCS_FitColorTversky>
0.553 

> <ROCS_FitTverskyCombo>
1.959 

> <ROCS_ColorScore>
-8.798

> <ROCS_Overlap>
1569.533

> <ROCS_Rank>
498                 

$$$$
untitled-dbase-23839_0
  -OEChem-08212314543D

 52 55  0     1  0  0  0  0  0999 V2000
   -8.2915    5.1699  -17.7121 C   0  0  0  0  0  0  0  0  0  0  0  0
   -8.9463    4.0662  -16.9228 C   0  0  0  0  0  0  0  0  0  0  0  0
   -9.4752    3.0396  -14.6819 C   0  0  0  0  0  0  0  0  0  0  0  0
   -9.1317    3.0143  -13.1951 C   0  0  0  0  0  0  0  0  0  0  0  0
   -8.4245    6.8406  -12.6104 C   0  0  0  0  0  0  0  0  0  0  0  0
   -9.4886    3.4014  -10.1217 C   0  0  0  0  0  0  0  0  0  0  0  0
   -8.0712    6.7530  -11.1139 C   0  0  0  0  0  0  0  0  0  0  0  0
   -9.1857    3.9615   -8.7196 C   0  0  0  0  0  0  0  0  0  0  0  0
   -7.8186    6.3894  -15.6236 C   0  0  0  0  0  0  0  0  0  0  0  0
   -8.6466    4.0905  -15.4296 C   0  0  2  0  0  0  0  0  0  0  0  0
   -9.2671    4.3991  -12.5443 C   0  0  2  0  0  0  0  0  0  0  0  0
   -8.4241    5.4608  -13.3181 C   0  0  1  0  0  0  0  0  0  0  0  0
   -8.8098    4.3752  -11.0793 C   0  0  1  0  0  0  0  0  0  0  0  0
   -8.9620    5.7404  -10.3739 C   0  0  1  0  0  0  0  0  0  0  0  0
   -8.8080    5.5119  -14.8390 C   0  0  1  0  0  0  0  0  0  0  0  0
   -8.5436    5.3610   -8.9195 C   0  0  2  0  0  0  0  0  0  0  0  0
  -10.4249    6.2735  -10.3672 C   0  0  0  0  0  0  0  0  0  0  0  0
  -10.2352    6.0752  -15.0472 C   0  0  0  0  0  0  0  0  0  0  0  0
   -7.0336    5.2987   -8.6580 C   0  0  0  0  0  0  0  0  0  0  0  0
   -8.1436    5.0732  -18.9289 O   0  0  0  0  0  0  0  0  0  0  0  0
   -7.9712    6.3093  -17.0583 O   0  0  0  0  0  0  0  0  0  0  0  0
   -9.0867    6.2633   -7.9586 O   0  0  0  0  0  0  0  0  0  0  0  0
  -10.0247    4.1231  -17.1094 H   0  0  0  0  0  0  0  0  0  0  0  0
   -8.5934    3.1131  -17.3359 H   0  0  0  0  0  0  0  0  0  0  0  0
   -9.2841    2.0463  -15.1065 H   0  0  0  0  0  0  0  0  0  0  0  0
  -10.5475    3.2290  -14.8093 H   0  0  0  0  0  0  0  0  0  0  0  0
   -9.7897    2.2953  -12.6934 H   0  0  0  0  0  0  0  0  0  0  0  0
   -8.1062    2.6434  -13.0704 H   0  0  0  0  0  0  0  0  0  0  0  0
   -9.3951    7.3322  -12.7200 H   0  0  0  0  0  0  0  0  0  0  0  0
   -7.6920    7.5015  -13.0876 H   0  0  0  0  0  0  0  0  0  0  0  0
   -9.1014    2.3834  -10.2324 H   0  0  0  0  0  0  0  0  0  0  0  0
  -10.5708    3.3620  -10.2900 H   0  0  0  0  0  0  0  0  0  0  0  0
   -7.0158    6.4649  -11.0416 H   0  0  0  0  0  0  0  0  0  0  0  0
   -8.1552    7.7459  -10.6561 H   0  0  0  0  0  0  0  0  0  0  0  0
  -10.1096    4.0197   -8.1319 H   0  0  0  0  0  0  0  0  0  0  0  0
   -8.5146    3.2834   -8.1797 H   0  0  0  0  0  0  0  0  0  0  0  0
   -7.9430    7.4460  -15.3639 H   0  0  0  0  0  0  0  0  0  0  0  0
   -6.7786    6.1252  -15.3977 H   0  0  0  0  0  0  0  0  0  0  0  0
   -7.5898    3.8012  -15.3160 H   0  0  0  0  0  0  0  0  0  0  0  0
  -10.3270    4.6714  -12.5828 H   0  0  0  0  0  0  0  0  0  0  0  0
   -7.3789    5.1145  -13.2739 H   0  0  0  0  0  0  0  0  0  0  0  0
   -7.7440    4.1005  -11.0953 H   0  0  0  0  0  0  0  0  0  0  0  0
  -11.0441    5.5591   -9.8470 H   0  0  0  0  0  0  0  0  0  0  0  0
  -10.7505    6.3840  -11.3900 H   0  0  0  0  0  0  0  0  0  0  0  0
  -10.4366    7.2260   -9.8602 H   0  0  0  0  0  0  0  0  0  0  0  0
  -10.9354    5.4610  -14.4970 H   0  0  0  0  0  0  0  0  0  0  0  0
  -10.4680    6.0512  -16.1034 H   0  0  0  0  0  0  0  0  0  0  0  0
  -10.2643    7.0930  -14.6817 H   0  0  0  0  0  0  0  0  0  0  0  0
   -6.5997    6.2845   -8.8018 H   0  0  0  0  0  0  0  0  0  0  0  0
   -6.5745    4.5972   -9.3492 H   0  0  0  0  0  0  0  0  0  0  0  0
   -6.8555    4.9704   -7.6376 H   0  0  0  0  0  0  0  0  0  0  0  0
   -8.6630    7.1211   -8.1155 H   0  0  0  0  0  0  0  0  0  0  0  0
  1  2  1  0  0  0  0
  1 20  2  0  0  0  0
  1 21  1  0  0  0  0
  2 10  1  0  0  0  0
  3  4  1  0  0  0  0
  3 10  1  1  0  0  0
  4 11  1  0  0  0  0
  5  7  1  0  0  0  0
  5 12  1  1  0  0  0
  6  8  1  0  0  0  0
  6 13  1  1  0  0  0
  7 14  1  0  0  0  0
  8 16  1  0  0  0  0
  9 15  1  0  0  0  0
  9 21  1  0  0  0  0
 10 15  1  0  0  0  0
 11 12  1  0  0  0  0
 11 13  1  0  0  0  0
 12 15  1  0  0  0  0
 13 14  1  0  0  0  0
 14 16  1  0  0  0  0
 14 17  1  1  0  0  0
 15 18  1  1  0  0  0
 16 19  1  6  0  0  0
 16 22  1  0  0  0  0
  2 23  1  0  0  0  0
  2 24  1  0  0  0  0
  3 25  1  0  0  0  0
  3 26  1  0  0  0  0
  4 27  1  0  0  0  0
  4 28  1  0  0  0  0
  5 29  1  0  0  0  0
  5 30  1  0  0  0  0
  6 31  1  0  0  0  0
  6 32  1  0  0  0  0
  7 33  1  0  0  0  0
  7 34  1  0  0  0  0
  8 35  1  0  0  0  0
  8 36  1  0  0  0  0
  9 37  1  0  0  0  0
  9 38  1  0  0  0  0
 10 39  1  0  0  0  0
 11 40  1  0  0  0  0
 12 41  1  0  0  0  0
 13 42  1  0  0  0  0
 17 43  1  0  0  0  0
 17 44  1  0  0  0  0
 17 45  1  0  0  0  0
 18 46  1  0  0  0  0
 18 47  1  0  0  0  0
 18 48  1  0  0  0  0
 19 49  1  0  0  0  0
 19 50  1  0  0  0  0
 19 51  1  0  0  0  0
 22 52  1  0  0  0  0
M  END
> <id>
EN300-27122306

> <smiles>
C[C@]1(O)CC[C@H]2C3CC[C@H]4CC(=O)OC[C@]4(C)[C@H]3CC[C@@]21C

> <IUPAC Name>
(1S,2S,7S,11S,14S,15S)-14-hydroxy-2,14,15-trimethyl-4-oxatetracyclo[8.7.0.0^{2,7}.0^{11,15}]heptadecan-5-one

> <CAS>
2743430-01-3

> <URL>
https://www.enaminestore.com/catalog/EN300-27122306

> <ROCS_ShapeQuery>
_x0404_0B

> <ROCS_TanimotoCombo>
0.363 

> <ROCS_ShapeTanimoto>
0.317 

> <ROCS_ColorTanimoto>
0.047 

> <ROCS_RefTversky>
0.286 

> <ROCS_RefColorTversky>
0.051 

> <ROCS_RefTverskyCombo>
0.337 

> <ROCS_FitTversky>
1.498 

> <ROCS_FitColorTversky>
0.352 

> <ROCS_FitTverskyCombo>
1.850 

> <ROCS_ColorScore>
-3.676

> <ROCS_Overlap>
1911.908

> <ROCS_Rank>
499                 

$$$$
untitled-dbase-9918_49
  -OEChem-08212314543D

 39 40  0     0  0  0  0  0  0999 V2000
   -9.5342    8.0830   -9.6002 C   0  0  0  0  0  0  0  0  0  0  0  0
   -9.7392    6.1411   -8.1697 C   0  0  0  0  0  0  0  0  0  0  0  0
   -9.6580    4.7688   -7.9478 C   0  0  0  0  0  0  0  0  0  0  0  0
   -9.4319    6.6640   -9.4257 C   0  0  0  0  0  0  0  0  0  0  0  0
   -9.0384    5.8183  -10.4730 C   0  0  0  0  0  0  0  0  0  0  0  0
   -8.9395    4.4347  -10.2412 C   0  0  0  0  0  0  0  0  0  0  0  0
   -9.2640    3.9177   -8.9796 C   0  0  0  0  0  0  0  0  0  0  0  0
   -8.5497    5.6843  -14.2232 C   0  0  0  0  0  0  0  0  0  0  0  0
   -8.5419    3.5024  -11.3553 C   0  0  0  0  0  0  0  0  0  0  0  0
   -8.7174    6.4186  -11.8198 C   0  0  0  0  0  0  0  0  0  0  0  0
   -7.7062    4.2205  -12.4076 C   0  0  0  0  0  0  0  0  0  0  0  0
   -6.8627    4.6947  -16.3121 C   0  0  0  0  0  0  0  0  0  0  0  0
   -8.7816    3.1816  -16.8931 C   0  0  0  0  0  0  0  0  0  0  0  0
   -9.0630    5.6728  -17.0447 C   0  0  0  0  0  0  0  0  0  0  0  0
   -8.3816    4.5287  -16.2953 C   0  0  0  0  0  0  0  0  0  0  0  0
   -9.6170    9.2319   -9.7416 N   0  0  0  0  0  0  0  0  0  0  0  0
   -8.3836    5.4341  -12.8567 N   0  0  0  0  0  0  0  0  0  0  0  0
   -9.1938    2.5303   -8.7143 N   0  0  0  0  0  0  0  0  0  0  0  0
   -8.4657    6.7962  -14.7412 O   0  0  0  0  0  0  0  0  0  0  0  0
   -8.8268    4.5460  -14.9341 O   0  0  0  0  0  0  0  0  0  0  0  0
  -10.0411    6.7908   -7.3513 H   0  0  0  0  0  0  0  0  0  0  0  0
   -9.9013    4.3733   -6.9648 H   0  0  0  0  0  0  0  0  0  0  0  0
   -7.9755    2.6640  -10.9317 H   0  0  0  0  0  0  0  0  0  0  0  0
   -9.4269    3.0929  -11.8555 H   0  0  0  0  0  0  0  0  0  0  0  0
   -9.5886    6.9704  -12.1929 H   0  0  0  0  0  0  0  0  0  0  0  0
   -7.8789    7.1158  -11.7178 H   0  0  0  0  0  0  0  0  0  0  0  0
   -6.7159    4.4530  -12.0030 H   0  0  0  0  0  0  0  0  0  0  0  0
   -7.5587    3.5868  -13.2911 H   0  0  0  0  0  0  0  0  0  0  0  0
   -6.5715    5.6605  -15.8838 H   0  0  0  0  0  0  0  0  0  0  0  0
   -6.3638    3.8997  -15.7484 H   0  0  0  0  0  0  0  0  0  0  0  0
   -6.4795    4.6838  -17.3389 H   0  0  0  0  0  0  0  0  0  0  0  0
   -9.8706    3.0582  -16.8831 H   0  0  0  0  0  0  0  0  0  0  0  0
   -8.3718    2.3549  -16.3016 H   0  0  0  0  0  0  0  0  0  0  0  0
   -8.4304    3.0771  -17.9248 H   0  0  0  0  0  0  0  0  0  0  0  0
  -10.1525    5.5540  -17.0327 H   0  0  0  0  0  0  0  0  0  0  0  0
   -8.8166    6.6453  -16.6063 H   0  0  0  0  0  0  0  0  0  0  0  0
   -8.7643    5.6804  -18.0992 H   0  0  0  0  0  0  0  0  0  0  0  0
   -9.3806    2.2043   -7.7896 H   0  0  0  0  0  0  0  0  0  0  0  0
   -8.8679    1.9166   -9.4308 H   0  0  0  0  0  0  0  0  0  0  0  0
  1  4  1  0  0  0  0
  1 16  3  0  0  0  0
  2  3  2  0  0  0  0
  2  4  1  0  0  0  0
  3  7  1  0  0  0  0
  4  5  2  0  0  0  0
  5  6  1  0  0  0  0
  5 10  1  0  0  0  0
  6  7  2  0  0  0  0
  6  9  1  0  0  0  0
  7 18  1  0  0  0  0
  8 17  1  0  0  0  0
  8 19  2  0  0  0  0
  8 20  1  0  0  0  0
  9 11  1  0  0  0  0
 10 17  1  0  0  0  0
 11 17  1  0  0  0  0
 12 15  1  0  0  0  0
 13 15  1  0  0  0  0
 14 15  1  0  0  0  0
 15 20  1  0  0  0  0
  2 21  1  0  0  0  0
  3 22  1  0  0  0  0
  9 23  1  0  0  0  0
  9 24  1  0  0  0  0
 10 25  1  0  0  0  0
 10 26  1  0  0  0  0
 11 27  1  0  0  0  0
 11 28  1  0  0  0  0
 12 29  1  0  0  0  0
 12 30  1  0  0  0  0
 12 31  1  0  0  0  0
 13 32  1  0  0  0  0
 13 33  1  0  0  0  0
 13 34  1  0  0  0  0
 14 35  1  0  0  0  0
 14 36  1  0  0  0  0
 14 37  1  0  0  0  0
 18 38  1  0  0  0  0
 18 39  1  0  0  0  0
M  END
> <id>
EN300-340110

> <smiles>
CC(C)(C)OC(=O)N1CCC=2C(N)=CC=C(C#N)C2C1

> <MDLNUMBER>
MFCD30500794

> <IUPAC Name>
tert-butyl 5-amino-8-cyano-1,2,3,4-tetrahydroisoquinoline-2-carboxylate

> <CAS>
2060060-35-5

> <URL>
https://www.enaminestore.com/catalog/EN300-340110

> <ROCS_ShapeQuery>
_x0404_0B

> <ROCS_TanimotoCombo>
0.363 

> <ROCS_ShapeTanimoto>
0.283 

> <ROCS_ColorTanimoto>
0.080 

> <ROCS_RefTversky>
0.260 

> <ROCS_RefColorTversky>
0.085 

> <ROCS_RefTverskyCombo>
0.345 

> <ROCS_FitTversky>
1.452 

> <ROCS_FitColorTversky>
0.587 

> <ROCS_FitTverskyCombo>
2.039 

> <ROCS_ColorScore>
-6.125

> <ROCS_Overlap>
1735.099

> <ROCS_Rank>
500                 

$$$$
